MODEL 1
REMARK VINA RESULT:      -7.1      0.000      0.000
REMARK  Name = 
REMARK  5 active torsions:
REMARK  status: ('A' for Active; 'I' for Inactive)
REMARK    1  A    between atoms: C_1  and  C_2
REMARK    2  A    between atoms: C_6  and  C_7
REMARK    3  A    between atoms: C_7  and  S_8
REMARK    4  A    between atoms: S_8  and  C_9
REMARK    5  A    between atoms: N_15  and  C_16
REMARK                            x       y       z     vdW  Elec       q    Type
REMARK                         _______ _______ _______ _____ _____    ______ ____
ROOT
ATOM      1  C   UNL     1       4.095   4.637  17.057  0.00  0.00    +0.000 A 
ATOM      2  N   UNL     1       3.836   3.451  17.529  0.00  0.00    +0.000 NA
ATOM      3  C   UNL     1       3.144   3.414  18.717  0.00  0.00    +0.000 A 
ATOM      4  C   UNL     1       2.738   4.481  19.406  0.00  0.00    +0.000 A 
ATOM      5  C   UNL     1       3.025   5.826  18.887  0.00  0.00    +0.000 A 
ATOM      6  O   UNL     1       2.665   6.835  19.489  0.00  0.00    +0.000 OA
ATOM      7  N   UNL     1       3.712   5.833  17.676  0.00  0.00    +0.000 N 
ATOM      8  C   UNL     1       4.002   7.143  17.107  0.00  0.00    +0.000 C 
ATOM      9  S   UNL     1       1.885   4.171  20.864  0.00  0.00    +0.000 S 
ATOM     10  C   UNL     1       1.682   2.416  20.418  0.00  0.00    +0.000 C 
ATOM     11  C   UNL     1       2.773   2.114  19.377  0.00  0.00    +0.000 C 
ENDROOT
BRANCH   1  12
ATOM     12  S   UNL     1       4.978   4.826  15.546  0.00  0.00    +0.000 S 
BRANCH  12  13
ATOM     13  C   UNL     1       6.694   4.410  15.925  0.00  0.00    +0.000 C 
BRANCH  13  19
ATOM     14  C   UNL     1       7.991   8.976  17.710  0.00  0.00    +0.000 C 
ATOM     15  C   UNL     1       7.854   7.495  17.913  0.00  0.00    +0.000 A 
ATOM     16  C   UNL     1       8.247   6.906  19.119  0.00  0.00    +0.000 A 
ATOM     17  C   UNL     1       8.130   5.528  19.296  0.00  0.00    +0.000 A 
ATOM     18  C   UNL     1       7.616   4.726  18.271  0.00  0.00    +0.000 A 
ATOM     19  C   UNL     1       7.206   5.291  17.055  0.00  0.00    +0.000 A 
ATOM     20  C   UNL     1       7.339   6.682  16.887  0.00  0.00    +0.000 A 
ENDBRANCH  13  19
ENDBRANCH  12  13
ENDBRANCH   1  12
TORSDOF 3
ENDMDL
MODEL 2
REMARK VINA RESULT:      -7.1      2.199      3.911
REMARK  Name = 
REMARK  5 active torsions:
REMARK  status: ('A' for Active; 'I' for Inactive)
REMARK    1  A    between atoms: C_1  and  C_2
REMARK    2  A    between atoms: C_6  and  C_7
REMARK    3  A    between atoms: C_7  and  S_8
REMARK    4  A    between atoms: S_8  and  C_9
REMARK    5  A    between atoms: N_15  and  C_16
REMARK                            x       y       z     vdW  Elec       q    Type
REMARK                         _______ _______ _______ _____ _____    ______ ____
ROOT
ATOM      1  C   UNL     1       4.359   5.493  17.772  0.00  0.00    +0.000 A 
ATOM      2  N   UNL     1       4.550   4.292  18.239  0.00  0.00    +0.000 NA
ATOM      3  C   UNL     1       3.819   3.957  19.355  0.00  0.00    +0.000 A 
ATOM      4  C   UNL     1       2.958   4.759  19.982  0.00  0.00    +0.000 A 
ATOM      5  C   UNL     1       2.734   6.117  19.469  0.00  0.00    +0.000 A 
ATOM      6  O   UNL     1       1.946   6.886  20.014  0.00  0.00    +0.000 OA
ATOM      7  N   UNL     1       3.474   6.424  18.329  0.00  0.00    +0.000 N 
ATOM      8  C   UNL     1       3.271   7.753  17.767  0.00  0.00    +0.000 C 
ATOM      9  S   UNL     1       2.163   4.103  21.355  0.00  0.00    +0.000 S 
ATOM     10  C   UNL     1       2.720   2.422  20.924  0.00  0.00    +0.000 C 
ATOM     11  C   UNL     1       3.935   2.602  19.999  0.00  0.00    +0.000 C 
ENDROOT
BRANCH   1  12
ATOM     12  S   UNL     1       5.235   6.052  16.350  0.00  0.00    +0.000 S 
BRANCH  12  13
ATOM     13  C   UNL     1       6.491   4.797  16.023  0.00  0.00    +0.000 C 
BRANCH  13  19
ATOM     14  C   UNL     1       5.399   2.449  11.662  0.00  0.00    +0.000 C 
ATOM     15  C   UNL     1       6.176   3.488  12.416  0.00  0.00    +0.000 A 
ATOM     16  C   UNL     1       7.127   4.277  11.760  0.00  0.00    +0.000 A 
ATOM     17  C   UNL     1       7.856   5.231  12.470  0.00  0.00    +0.000 A 
ATOM     18  C   UNL     1       7.640   5.407  13.841  0.00  0.00    +0.000 A 
ATOM     19  C   UNL     1       6.688   4.637  14.522  0.00  0.00    +0.000 A 
ATOM     20  C   UNL     1       5.966   3.671  13.795  0.00  0.00    +0.000 A 
ENDBRANCH  13  19
ENDBRANCH  12  13
ENDBRANCH   1  12
TORSDOF 3
ENDMDL
MODEL 3
REMARK VINA RESULT:      -7.0      1.637      2.841
REMARK  Name = 
REMARK  5 active torsions:
REMARK  status: ('A' for Active; 'I' for Inactive)
REMARK    1  A    between atoms: C_1  and  C_2
REMARK    2  A    between atoms: C_6  and  C_7
REMARK    3  A    between atoms: C_7  and  S_8
REMARK    4  A    between atoms: S_8  and  C_9
REMARK    5  A    between atoms: N_15  and  C_16
REMARK                            x       y       z     vdW  Elec       q    Type
REMARK                         _______ _______ _______ _____ _____    ______ ____
ROOT
ATOM      1  C   UNL     1       3.618   4.856  17.980  0.00  0.00    +0.000 A 
ATOM      2  N   UNL     1       3.233   6.034  17.576  0.00  0.00    +0.000 NA
ATOM      3  C   UNL     1       2.550   6.793  18.497  0.00  0.00    +0.000 A 
ATOM      4  C   UNL     1       2.254   6.413  19.741  0.00  0.00    +0.000 A 
ATOM      5  C   UNL     1       2.678   5.087  20.210  0.00  0.00    +0.000 A 
ATOM      6  O   UNL     1       2.429   4.701  21.350  0.00  0.00    +0.000 OA
ATOM      7  N   UNL     1       3.381   4.347  19.263  0.00  0.00    +0.000 N 
ATOM      8  C   UNL     1       3.844   3.031  19.687  0.00  0.00    +0.000 C 
ATOM      9  S   UNL     1       1.395   7.548  20.702  0.00  0.00    +0.000 S 
ATOM     10  C   UNL     1       1.724   8.877  19.499  0.00  0.00    +0.000 C 
ATOM     11  C   UNL     1       2.050   8.174  18.170  0.00  0.00    +0.000 C 
ENDROOT
BRANCH   1  12
ATOM     12  S   UNL     1       4.497   3.780  16.899  0.00  0.00    +0.000 S 
BRANCH  12  13
ATOM     13  C   UNL     1       5.710   4.817  16.053  0.00  0.00    +0.000 C 
BRANCH  13  19
ATOM     14  C   UNL     1       7.990   9.040  17.693  0.00  0.00    +0.000 C 
ATOM     15  C   UNL     1       7.697   7.577  17.856  0.00  0.00    +0.000 A 
ATOM     16  C   UNL     1       8.263   6.856  18.912  0.00  0.00    +0.000 A 
ATOM     17  C   UNL     1       7.998   5.493  19.050  0.00  0.00    +0.000 A 
ATOM     18  C   UNL     1       7.164   4.841  18.136  0.00  0.00    +0.000 A 
ATOM     19  C   UNL     1       6.576   5.541  17.074  0.00  0.00    +0.000 A 
ATOM     20  C   UNL     1       6.860   6.914  16.941  0.00  0.00    +0.000 A 
ENDBRANCH  13  19
ENDBRANCH  12  13
ENDBRANCH   1  12
TORSDOF 3
ENDMDL
MODEL 4
REMARK VINA RESULT:      -6.8      2.456      4.641
REMARK  Name = 
REMARK  5 active torsions:
REMARK  status: ('A' for Active; 'I' for Inactive)
REMARK    1  A    between atoms: C_1  and  C_2
REMARK    2  A    between atoms: C_6  and  C_7
REMARK    3  A    between atoms: C_7  and  S_8
REMARK    4  A    between atoms: S_8  and  C_9
REMARK    5  A    between atoms: N_15  and  C_16
REMARK                            x       y       z     vdW  Elec       q    Type
REMARK                         _______ _______ _______ _____ _____    ______ ____
ROOT
ATOM      1  C   UNL     1       4.040   4.895  17.773  0.00  0.00    +0.000 A 
ATOM      2  N   UNL     1       3.613   6.067  17.395  0.00  0.00    +0.000 NA
ATOM      3  C   UNL     1       2.843   6.750  18.307  0.00  0.00    +0.000 A 
ATOM      4  C   UNL     1       2.503   6.303  19.517  0.00  0.00    +0.000 A 
ATOM      5  C   UNL     1       2.974   4.983  19.956  0.00  0.00    +0.000 A 
ATOM      6  O   UNL     1       2.687   4.536  21.065  0.00  0.00    +0.000 OA
ATOM      7  N   UNL     1       3.764   4.321  19.020  0.00  0.00    +0.000 N 
ATOM      8  C   UNL     1       4.276   3.014  19.416  0.00  0.00    +0.000 C 
ATOM      9  S   UNL     1       1.535   7.350  20.474  0.00  0.00    +0.000 S 
ATOM     10  C   UNL     1       1.853   8.743  19.343  0.00  0.00    +0.000 C 
ATOM     11  C   UNL     1       2.286   8.115  18.008  0.00  0.00    +0.000 C 
ENDROOT
BRANCH   1  12
ATOM     12  S   UNL     1       5.031   3.913  16.699  0.00  0.00    +0.000 S 
BRANCH  12  13
ATOM     13  C   UNL     1       6.352   5.000  16.120  0.00  0.00    +0.000 C 
BRANCH  13  19
ATOM     14  C   UNL     1       5.305   2.549  11.805  0.00  0.00    +0.000 C 
ATOM     15  C   UNL     1       6.117   3.563  12.556  0.00  0.00    +0.000 A 
ATOM     16  C   UNL     1       7.151   4.256  11.918  0.00  0.00    +0.000 A 
ATOM     17  C   UNL     1       7.912   5.186  12.626  0.00  0.00    +0.000 A 
ATOM     18  C   UNL     1       7.644   5.436  13.976  0.00  0.00    +0.000 A 
ATOM     19  C   UNL     1       6.608   4.763  14.638  0.00  0.00    +0.000 A 
ATOM     20  C   UNL     1       5.855   3.819  13.914  0.00  0.00    +0.000 A 
ENDBRANCH  13  19
ENDBRANCH  12  13
ENDBRANCH   1  12
TORSDOF 3
ENDMDL
MODEL 5
REMARK VINA RESULT:      -6.8      4.510      6.747
REMARK  Name = 
REMARK  5 active torsions:
REMARK  status: ('A' for Active; 'I' for Inactive)
REMARK    1  A    between atoms: C_1  and  C_2
REMARK    2  A    between atoms: C_6  and  C_7
REMARK    3  A    between atoms: C_7  and  S_8
REMARK    4  A    between atoms: S_8  and  C_9
REMARK    5  A    between atoms: N_15  and  C_16
REMARK                            x       y       z     vdW  Elec       q    Type
REMARK                         _______ _______ _______ _____ _____    ______ ____
ROOT
ATOM      1  C   UNL     1       1.396   8.499  20.257  0.00  0.00    +0.000 A 
ATOM      2  N   UNL     1       0.999   8.559  21.496  0.00  0.00    +0.000 NA
ATOM      3  C   UNL     1       0.244   9.658  21.834  0.00  0.00    +0.000 A 
ATOM      4  C   UNL     1      -0.094  10.645  21.004  0.00  0.00    +0.000 A 
ATOM      5  C   UNL     1       0.348  10.593  19.604  0.00  0.00    +0.000 A 
ATOM      6  O   UNL     1       0.055  11.481  18.806  0.00  0.00    +0.000 OA
ATOM      7  N   UNL     1       1.097   9.463  19.286  0.00  0.00    +0.000 N 
ATOM      8  C   UNL     1       1.542   9.352  17.902  0.00  0.00    +0.000 C 
ATOM      9  S   UNL     1      -1.051  11.907  21.667  0.00  0.00    +0.000 S 
ATOM     10  C   UNL     1      -1.398  10.916  23.157  0.00  0.00    +0.000 C 
ATOM     11  C   UNL     1      -0.286   9.856  23.228  0.00  0.00    +0.000 C 
ENDROOT
BRANCH   1  12
ATOM     12  S   UNL     1       2.375   7.148  19.693  0.00  0.00    +0.000 S 
BRANCH  12  13
ATOM     13  C   UNL     1       1.662   5.674  20.456  0.00  0.00    +0.000 C 
BRANCH  13  19
ATOM     14  C   UNL     1       4.308   3.362  16.799  0.00  0.00    +0.000 C 
ATOM     15  C   UNL     1       3.185   3.347  17.795  0.00  0.00    +0.000 A 
ATOM     16  C   UNL     1       2.334   2.240  17.886  0.00  0.00    +0.000 A 
ATOM     17  C   UNL     1       1.284   2.239  18.804  0.00  0.00    +0.000 A 
ATOM     18  C   UNL     1       1.077   3.340  19.642  0.00  0.00    +0.000 A 
ATOM     19  C   UNL     1       1.920   4.458  19.578  0.00  0.00    +0.000 A 
ATOM     20  C   UNL     1       2.970   4.450  18.640  0.00  0.00    +0.000 A 
ENDBRANCH  13  19
ENDBRANCH  12  13
ENDBRANCH   1  12
TORSDOF 3
ENDMDL
MODEL 6
REMARK VINA RESULT:      -6.8      2.553      5.279
REMARK  Name = 
REMARK  5 active torsions:
REMARK  status: ('A' for Active; 'I' for Inactive)
REMARK    1  A    between atoms: C_1  and  C_2
REMARK    2  A    between atoms: C_6  and  C_7
REMARK    3  A    between atoms: C_7  and  S_8
REMARK    4  A    between atoms: S_8  and  C_9
REMARK    5  A    between atoms: N_15  and  C_16
REMARK                            x       y       z     vdW  Elec       q    Type
REMARK                         _______ _______ _______ _____ _____    ______ ____
ROOT
ATOM      1  C   UNL     1       3.934   2.965  17.955  0.00  0.00    +0.000 A 
ATOM      2  N   UNL     1       4.132   3.280  16.706  0.00  0.00    +0.000 NA
ATOM      3  C   UNL     1       5.180   4.135  16.460  0.00  0.00    +0.000 A 
ATOM      4  C   UNL     1       5.983   4.658  17.388  0.00  0.00    +0.000 A 
ATOM      5  C   UNL     1       5.771   4.315  18.800  0.00  0.00    +0.000 A 
ATOM      6  O   UNL     1       6.490   4.772  19.686  0.00  0.00    +0.000 OA
ATOM      7  N   UNL     1       4.713   3.435  19.019  0.00  0.00    +0.000 N 
ATOM      8  C   UNL     1       4.475   3.045  20.403  0.00  0.00    +0.000 C 
ATOM      9  S   UNL     1       7.227   5.698  16.824  0.00  0.00    +0.000 S 
ATOM     10  C   UNL     1       6.950   5.163  15.104  0.00  0.00    +0.000 C 
ATOM     11  C   UNL     1       5.527   4.580  15.065  0.00  0.00    +0.000 C 
ENDROOT
BRANCH   1  12
ATOM     12  S   UNL     1       2.622   1.883  18.410  0.00  0.00    +0.000 S 
BRANCH  12  13
ATOM     13  C   UNL     1       1.129   2.900  18.425  0.00  0.00    +0.000 C 
BRANCH  13  19
ATOM     14  C   UNL     1       2.833   7.629  17.756  0.00  0.00    +0.000 C 
ATOM     15  C   UNL     1       2.291   6.562  18.661  0.00  0.00    +0.000 A 
ATOM     16  C   UNL     1       2.127   6.809  20.028  0.00  0.00    +0.000 A 
ATOM     17  C   UNL     1       1.637   5.808  20.866  0.00  0.00    +0.000 A 
ATOM     18  C   UNL     1       1.302   4.553  20.346  0.00  0.00    +0.000 A 
ATOM     19  C   UNL     1       1.447   4.281  18.979  0.00  0.00    +0.000 A 
ATOM     20  C   UNL     1       1.953   5.298  18.146  0.00  0.00    +0.000 A 
ENDBRANCH  13  19
ENDBRANCH  12  13
ENDBRANCH   1  12
TORSDOF 3
ENDMDL
MODEL 7
REMARK VINA RESULT:      -6.6      6.005      7.669
REMARK  Name = 
REMARK  5 active torsions:
REMARK  status: ('A' for Active; 'I' for Inactive)
REMARK    1  A    between atoms: C_1  and  C_2
REMARK    2  A    between atoms: C_6  and  C_7
REMARK    3  A    between atoms: C_7  and  S_8
REMARK    4  A    between atoms: S_8  and  C_9
REMARK    5  A    between atoms: N_15  and  C_16
REMARK                            x       y       z     vdW  Elec       q    Type
REMARK                         _______ _______ _______ _____ _____    ______ ____
ROOT
ATOM      1  C   UNL     1      -0.529  10.295  18.589  0.00  0.00    +0.000 A 
ATOM      2  N   UNL     1      -0.939   9.824  17.445  0.00  0.00    +0.000 NA
ATOM      3  C   UNL     1      -2.170  10.264  17.019  0.00  0.00    +0.000 A 
ATOM      4  C   UNL     1      -2.959  11.110  17.683  0.00  0.00    +0.000 A 
ATOM      5  C   UNL     1      -2.512  11.648  18.975  0.00  0.00    +0.000 A 
ATOM      6  O   UNL     1      -3.206  12.434  19.617  0.00  0.00    +0.000 OA
ATOM      7  N   UNL     1      -1.255  11.199  19.374  0.00  0.00    +0.000 N 
ATOM      8  C   UNL     1      -0.756  11.721  20.640  0.00  0.00    +0.000 C 
ATOM      9  S   UNL     1      -4.452  11.510  16.936  0.00  0.00    +0.000 S 
ATOM     10  C   UNL     1      -3.905  10.777  15.359  0.00  0.00    +0.000 C 
ATOM     11  C   UNL     1      -2.767   9.806  15.716  0.00  0.00    +0.000 C 
ENDROOT
BRANCH   1  12
ATOM     12  S   UNL     1       1.028   9.810  19.253  0.00  0.00    +0.000 S 
BRANCH  12  13
ATOM     13  C   UNL     1       1.974   9.159  17.859  0.00  0.00    +0.000 C 
BRANCH  13  19
ATOM     14  C   UNL     1       2.177   5.078  20.864  0.00  0.00    +0.000 C 
ATOM     15  C   UNL     1       2.713   5.859  19.699  0.00  0.00    +0.000 A 
ATOM     16  C   UNL     1       3.824   5.396  18.986  0.00  0.00    +0.000 A 
ATOM     17  C   UNL     1       4.325   6.135  17.915  0.00  0.00    +0.000 A 
ATOM     18  C   UNL     1       3.719   7.340  17.543  0.00  0.00    +0.000 A 
ATOM     19  C   UNL     1       2.599   7.823  18.234  0.00  0.00    +0.000 A 
ATOM     20  C   UNL     1       2.110   7.072  19.320  0.00  0.00    +0.000 A 
ENDBRANCH  13  19
ENDBRANCH  12  13
ENDBRANCH   1  12
TORSDOF 3
ENDMDL
MODEL 8
REMARK VINA RESULT:      -6.5      4.311      6.585
REMARK  Name = 
REMARK  5 active torsions:
REMARK  status: ('A' for Active; 'I' for Inactive)
REMARK    1  A    between atoms: C_1  and  C_2
REMARK    2  A    between atoms: C_6  and  C_7
REMARK    3  A    between atoms: C_7  and  S_8
REMARK    4  A    between atoms: S_8  and  C_9
REMARK    5  A    between atoms: N_15  and  C_16
REMARK                            x       y       z     vdW  Elec       q    Type
REMARK                         _______ _______ _______ _____ _____    ______ ____
ROOT
ATOM      1  C   UNL     1       2.640   6.781  18.546  0.00  0.00    +0.000 A 
ATOM      2  N   UNL     1       1.917   6.193  19.457  0.00  0.00    +0.000 NA
ATOM      3  C   UNL     1       2.322   4.932  19.826  0.00  0.00    +0.000 A 
ATOM      4  C   UNL     1       3.371   4.281  19.323  0.00  0.00    +0.000 A 
ATOM      5  C   UNL     1       4.195   4.929  18.293  0.00  0.00    +0.000 A 
ATOM      6  O   UNL     1       5.172   4.365  17.806  0.00  0.00    +0.000 OA
ATOM      7  N   UNL     1       3.771   6.211  17.950  0.00  0.00    +0.000 N 
ATOM      8  C   UNL     1       4.569   6.906  16.948  0.00  0.00    +0.000 C 
ATOM      9  S   UNL     1       3.673   2.713  19.955  0.00  0.00    +0.000 S 
ATOM     10  C   UNL     1       2.510   2.999  21.329  0.00  0.00    +0.000 C 
ATOM     11  C   UNL     1       1.584   4.138  20.870  0.00  0.00    +0.000 C 
ENDROOT
BRANCH   1  12
ATOM     12  S   UNL     1       2.229   8.396  17.979  0.00  0.00    +0.000 S 
BRANCH  12  13
ATOM     13  C   UNL     1       1.393   9.204  19.361  0.00  0.00    +0.000 C 
BRANCH  13  19
ATOM     14  C   UNL     1      -2.589   9.894  16.297  0.00  0.00    +0.000 C 
ATOM     15  C   UNL     1      -1.655  10.419  17.348  0.00  0.00    +0.000 A 
ATOM     16  C   UNL     1      -1.783  11.730  17.820  0.00  0.00    +0.000 A 
ATOM     17  C   UNL     1      -0.903  12.216  18.786  0.00  0.00    +0.000 A 
ATOM     18  C   UNL     1       0.112  11.396  19.292  0.00  0.00    +0.000 A 
ATOM     19  C   UNL     1       0.258  10.076  18.845  0.00  0.00    +0.000 A 
ATOM     20  C   UNL     1      -0.632   9.602  17.862  0.00  0.00    +0.000 A 
ENDBRANCH  13  19
ENDBRANCH  12  13
ENDBRANCH   1  12
TORSDOF 3
ENDMDL
MODEL 9
REMARK VINA RESULT:      -6.5      5.994      7.478
REMARK  Name = 
REMARK  5 active torsions:
REMARK  status: ('A' for Active; 'I' for Inactive)
REMARK    1  A    between atoms: C_1  and  C_2
REMARK    2  A    between atoms: C_6  and  C_7
REMARK    3  A    between atoms: C_7  and  S_8
REMARK    4  A    between atoms: S_8  and  C_9
REMARK    5  A    between atoms: N_15  and  C_16
REMARK                            x       y       z     vdW  Elec       q    Type
REMARK                         _______ _______ _______ _____ _____    ______ ____
ROOT
ATOM      1  C   UNL     1      -0.527  10.263  18.599  0.00  0.00    +0.000 A 
ATOM      2  N   UNL     1      -0.951   9.806  17.455  0.00  0.00    +0.000 NA
ATOM      3  C   UNL     1      -2.180  10.263  17.041  0.00  0.00    +0.000 A 
ATOM      4  C   UNL     1      -2.954  11.113  17.718  0.00  0.00    +0.000 A 
ATOM      5  C   UNL     1      -2.491  11.636  19.011  0.00  0.00    +0.000 A 
ATOM      6  O   UNL     1      -3.172  12.424  19.664  0.00  0.00    +0.000 OA
ATOM      7  N   UNL     1      -1.237  11.169  19.397  0.00  0.00    +0.000 N 
ATOM      8  C   UNL     1      -0.723  11.675  20.663  0.00  0.00    +0.000 C 
ATOM      9  S   UNL     1      -4.448  11.537  16.985  0.00  0.00    +0.000 S 
ATOM     10  C   UNL     1      -3.921  10.810  15.398  0.00  0.00    +0.000 C 
ATOM     11  C   UNL     1      -2.791   9.823  15.739  0.00  0.00    +0.000 C 
ENDROOT
BRANCH   1  12
ATOM     12  S   UNL     1       1.029   9.755  19.247  0.00  0.00    +0.000 S 
BRANCH  12  13
ATOM     13  C   UNL     1       1.947   9.080  17.846  0.00  0.00    +0.000 C 
BRANCH  13  19
ATOM     14  C   UNL     1       5.432   5.502  16.964  0.00  0.00    +0.000 C 
ATOM     15  C   UNL     1       4.340   6.065  17.826  0.00  0.00    +0.000 A 
ATOM     16  C   UNL     1       3.939   5.395  18.987  0.00  0.00    +0.000 A 
ATOM     17  C   UNL     1       2.913   5.916  19.776  0.00  0.00    +0.000 A 
ATOM     18  C   UNL     1       2.282   7.111  19.415  0.00  0.00    +0.000 A 
ATOM     19  C   UNL     1       2.670   7.807  18.262  0.00  0.00    +0.000 A 
ATOM     20  C   UNL     1       3.700   7.265  17.469  0.00  0.00    +0.000 A 
ENDBRANCH  13  19
ENDBRANCH  12  13
ENDBRANCH   1  12
TORSDOF 3
ENDMDL
