MODEL 1
REMARK VINA RESULT:      -8.6      0.000      0.000
REMARK  Name = 
REMARK  7 active torsions:
REMARK  status: ('A' for Active; 'I' for Inactive)
REMARK    1  A    between atoms: C_1  and  C_2
REMARK    2  A    between atoms: C_7  and  N_8
REMARK    3  A    between atoms: N_11  and  C_12
REMARK    4  A    between atoms: C_12  and  C_13
REMARK    5  A    between atoms: C_13  and  C_14
REMARK    6  A    between atoms: C_14  and  C_15
REMARK    7  A    between atoms: C_15  and  N_16
REMARK                            x       y       z     vdW  Elec       q    Type
REMARK                         _______ _______ _______ _____ _____    ______ ____
ROOT
ATOM      1  C   UNL     1       8.535   8.496  18.458  0.00  0.00    +0.000 C 
ENDROOT
BRANCH   1   2
ATOM      2  C   UNL     1       7.551   7.763  17.529  0.00  0.00    +0.000 C 
BRANCH   2   6
ATOM      3  N   UNL     1       5.072   5.132  17.792  0.00  0.00    +0.000 N 
ATOM      4  C   UNL     1       5.811   5.605  18.967  0.00  0.00    +0.000 C 
ATOM      5  C   UNL     1       7.335   5.608  18.696  0.00  0.00    +0.000 C 
ATOM      6  N   UNL     1       7.759   6.303  17.458  0.00  0.00    +0.000 NA
ATOM      7  C   UNL     1       6.988   5.718  16.335  0.00  0.00    +0.000 C 
ATOM      8  C   UNL     1       5.452   5.751  16.510  0.00  0.00    +0.000 C 
BRANCH   3  15
ATOM      9  C   UNL     1       2.338   6.409  18.257  0.00  0.00    +0.000 C 
ATOM     10  C   UNL     1       2.623   4.934  18.168  0.00  0.00    +0.000 A 
ATOM     11  C   UNL     1       1.520   4.070  18.348  0.00  0.00    +0.000 A 
ATOM     12  C   UNL     1       1.646   2.692  18.210  0.00  0.00    +0.000 A 
ATOM     13  C   UNL     1       2.880   2.153  17.895  0.00  0.00    +0.000 A 
ATOM     14  C   UNL     1       3.984   2.994  17.746  0.00  0.00    +0.000 A 
ATOM     15  C   UNL     1       3.901   4.397  17.889  0.00  0.00    +0.000 A 
ENDBRANCH   3  15
ENDBRANCH   2   6
ENDBRANCH   1   2
BRANCH   1  16
ATOM     16  C   UNL     1       8.424  10.022  18.427  0.00  0.00    +0.000 C 
BRANCH  16  17
ATOM     17  C   UNL     1       9.765  10.688  18.119  0.00  0.00    +0.000 C 
BRANCH  17  18
ATOM     18  N   UNL     1       9.691  12.136  18.003  0.00  0.00    +0.000 N 
ATOM     19  C   UNL     1       8.389  12.706  17.694  0.00  0.00    +0.000 C 
ATOM     20  C   UNL     1       8.247  14.172  18.052  0.00  0.00    +0.000 C 
ATOM     21  O   UNL     1       7.173  14.649  18.415  0.00  0.00    +0.000 OA
ATOM     22  N   UNL     1       9.364  14.945  17.677  0.00  0.00    +0.000 N 
ATOM     23  C   UNL     1       9.169  16.366  17.858  0.00  0.00    +0.000 C 
ATOM     24  C   UNL     1      10.287  17.260  17.375  0.00  0.00    +0.000 C 
ATOM     25  C   UNL     1      11.679  16.666  17.257  0.00  0.00    +0.000 C 
ATOM     26  C   UNL     1      11.841  15.163  17.440  0.00  0.00    +0.000 C 
ATOM     27  C   UNL     1      10.667  14.397  18.051  0.00  0.00    +0.000 C 
ATOM     28  C   UNL     1      10.837  12.881  17.733  0.00  0.00    +0.000 C 
ATOM     29  O   UNL     1      11.932  12.360  17.529  0.00  0.00    +0.000 OA
ENDBRANCH  17  18
ENDBRANCH  16  17
ENDBRANCH   1  16
TORSDOF 6
ENDMDL
MODEL 2
REMARK VINA RESULT:      -8.5      1.299      1.371
REMARK  Name = 
REMARK  7 active torsions:
REMARK  status: ('A' for Active; 'I' for Inactive)
REMARK    1  A    between atoms: C_1  and  C_2
REMARK    2  A    between atoms: C_7  and  N_8
REMARK    3  A    between atoms: N_11  and  C_12
REMARK    4  A    between atoms: C_12  and  C_13
REMARK    5  A    between atoms: C_13  and  C_14
REMARK    6  A    between atoms: C_14  and  C_15
REMARK    7  A    between atoms: C_15  and  N_16
REMARK                            x       y       z     vdW  Elec       q    Type
REMARK                         _______ _______ _______ _____ _____    ______ ____
ROOT
ATOM      1  C   UNL     1       8.164   8.095  18.005  0.00  0.00    +0.000 C 
ENDROOT
BRANCH   1   2
ATOM      2  C   UNL     1       6.829   7.493  17.529  0.00  0.00    +0.000 C 
BRANCH   2   6
ATOM      3  N   UNL     1       4.351   4.962  18.296  0.00  0.00    +0.000 N 
ATOM      4  C   UNL     1       5.456   5.252  19.216  0.00  0.00    +0.000 C 
ATOM      5  C   UNL     1       6.814   5.221  18.475  0.00  0.00    +0.000 C 
ATOM      6  N   UNL     1       6.886   6.046  17.245  0.00  0.00    +0.000 NA
ATOM      7  C   UNL     1       5.757   5.639  16.372  0.00  0.00    +0.000 C 
ATOM      8  C   UNL     1       4.360   5.718  17.032  0.00  0.00    +0.000 C 
BRANCH   3  15
ATOM      9  C   UNL     1       2.152   6.210  20.007  0.00  0.00    +0.000 C 
ATOM     10  C   UNL     1       2.201   4.783  19.530  0.00  0.00    +0.000 A 
ATOM     11  C   UNL     1       1.139   3.948  19.943  0.00  0.00    +0.000 A 
ATOM     12  C   UNL     1       1.035   2.634  19.500  0.00  0.00    +0.000 A 
ATOM     13  C   UNL     1       1.994   2.130  18.639  0.00  0.00    +0.000 A 
ATOM     14  C   UNL     1       3.065   2.937  18.249  0.00  0.00    +0.000 A 
ATOM     15  C   UNL     1       3.213   4.272  18.686  0.00  0.00    +0.000 A 
ENDBRANCH   3  15
ENDBRANCH   2   6
ENDBRANCH   1   2
BRANCH   1  16
ATOM     16  C   UNL     1       8.250   9.619  17.899  0.00  0.00    +0.000 C 
BRANCH  16  17
ATOM     17  C   UNL     1       9.258  10.207  18.886  0.00  0.00    +0.000 C 
BRANCH  17  18
ATOM     18  N   UNL     1       9.371  11.655  18.820  0.00  0.00    +0.000 N 
ATOM     19  C   UNL     1       8.629  12.327  17.764  0.00  0.00    +0.000 C 
ATOM     20  C   UNL     1       8.382  13.801  18.014  0.00  0.00    +0.000 C 
ATOM     21  O   UNL     1       7.366  14.365  17.611  0.00  0.00    +0.000 OA
ATOM     22  N   UNL     1       9.519  14.480  18.495  0.00  0.00    +0.000 N 
ATOM     23  C   UNL     1       9.346  15.913  18.573  0.00  0.00    +0.000 C 
ATOM     24  C   UNL     1      10.563  16.711  18.979  0.00  0.00    +0.000 C 
ATOM     25  C   UNL     1      11.651  16.006  19.769  0.00  0.00    +0.000 C 
ATOM     26  C   UNL     1      11.556  14.497  19.940  0.00  0.00    +0.000 C 
ATOM     27  C   UNL     1      10.222  13.831  19.601  0.00  0.00    +0.000 C 
ATOM     28  C   UNL     1      10.460  12.305  19.398  0.00  0.00    +0.000 C 
ATOM     29  O   UNL     1      11.385  11.695  19.933  0.00  0.00    +0.000 OA
ENDBRANCH  17  18
ENDBRANCH  16  17
ENDBRANCH   1  16
TORSDOF 6
ENDMDL
MODEL 3
REMARK VINA RESULT:      -8.4      1.525      2.709
REMARK  Name = 
REMARK  7 active torsions:
REMARK  status: ('A' for Active; 'I' for Inactive)
REMARK    1  A    between atoms: C_1  and  C_2
REMARK    2  A    between atoms: C_7  and  N_8
REMARK    3  A    between atoms: N_11  and  C_12
REMARK    4  A    between atoms: C_12  and  C_13
REMARK    5  A    between atoms: C_13  and  C_14
REMARK    6  A    between atoms: C_14  and  C_15
REMARK    7  A    between atoms: C_15  and  N_16
REMARK                            x       y       z     vdW  Elec       q    Type
REMARK                         _______ _______ _______ _____ _____    ______ ____
ROOT
ATOM      1  C   UNL     1       8.060   7.835  17.530  0.00  0.00    +0.000 C 
ENDROOT
BRANCH   1   2
ATOM      2  C   UNL     1       6.674   7.253  17.865  0.00  0.00    +0.000 C 
BRANCH   2   6
ATOM      3  N   UNL     1       4.065   4.826  18.525  0.00  0.00    +0.000 N 
ATOM      4  C   UNL     1       5.442   4.609  18.979  0.00  0.00    +0.000 C 
ATOM      5  C   UNL     1       6.444   4.804  17.816  0.00  0.00    +0.000 C 
ATOM      6  N   UNL     1       6.303   6.072  17.062  0.00  0.00    +0.000 NA
ATOM      7  C   UNL     1       4.893   6.166  16.613  0.00  0.00    +0.000 C 
ATOM      8  C   UNL     1       3.840   6.052  17.740  0.00  0.00    +0.000 C 
BRANCH   3  15
ATOM      9  C   UNL     1       3.486   1.917  17.802  0.00  0.00    +0.000 C 
ATOM     10  C   UNL     1       2.640   2.796  18.683  0.00  0.00    +0.000 A 
ATOM     11  C   UNL     1       1.455   2.218  19.193  0.00  0.00    +0.000 A 
ATOM     12  C   UNL     1       0.635   2.906  20.081  0.00  0.00    +0.000 A 
ATOM     13  C   UNL     1       0.983   4.187  20.471  0.00  0.00    +0.000 A 
ATOM     14  C   UNL     1       2.135   4.780  19.949  0.00  0.00    +0.000 A 
ATOM     15  C   UNL     1       2.988   4.120  19.037  0.00  0.00    +0.000 A 
ENDBRANCH   3  15
ENDBRANCH   2   6
ENDBRANCH   1   2
BRANCH   1  16
ATOM     16  C   UNL     1       8.485   9.015  18.406  0.00  0.00    +0.000 C 
BRANCH  16  17
ATOM     17  C   UNL     1       8.338  10.351  17.679  0.00  0.00    +0.000 C 
BRANCH  17  18
ATOM     18  N   UNL     1       9.224  11.392  18.176  0.00  0.00    +0.000 N 
ATOM     19  C   UNL     1      10.064  11.055  19.314  0.00  0.00    +0.000 C 
ATOM     20  C   UNL     1      11.273  11.953  19.487  0.00  0.00    +0.000 C 
ATOM     21  O   UNL     1      12.332  11.531  19.949  0.00  0.00    +0.000 OA
ATOM     22  N   UNL     1      10.976  13.320  19.325  0.00  0.00    +0.000 N 
ATOM     23  C   UNL     1      12.079  14.194  19.655  0.00  0.00    +0.000 C 
ATOM     24  C   UNL     1      11.794  15.677  19.606  0.00  0.00    +0.000 C 
ATOM     25  C   UNL     1      10.643  16.157  18.741  0.00  0.00    +0.000 C 
ATOM     26  C   UNL     1       9.718  15.115  18.128  0.00  0.00    +0.000 C 
ATOM     27  C   UNL     1      10.187  13.660  18.142  0.00  0.00    +0.000 C 
ATOM     28  C   UNL     1       8.956  12.733  17.908  0.00  0.00    +0.000 C 
ATOM     29  O   UNL     1       7.951  13.098  17.300  0.00  0.00    +0.000 OA
ENDBRANCH  17  18
ENDBRANCH  16  17
ENDBRANCH   1  16
TORSDOF 6
ENDMDL
MODEL 4
REMARK VINA RESULT:      -8.3      2.023      2.699
REMARK  Name = 
REMARK  7 active torsions:
REMARK  status: ('A' for Active; 'I' for Inactive)
REMARK    1  A    between atoms: C_1  and  C_2
REMARK    2  A    between atoms: C_7  and  N_8
REMARK    3  A    between atoms: N_11  and  C_12
REMARK    4  A    between atoms: C_12  and  C_13
REMARK    5  A    between atoms: C_13  and  C_14
REMARK    6  A    between atoms: C_14  and  C_15
REMARK    7  A    between atoms: C_15  and  N_16
REMARK                            x       y       z     vdW  Elec       q    Type
REMARK                         _______ _______ _______ _____ _____    ______ ____
ROOT
ATOM      1  C   UNL     1       8.001   8.248  17.428  0.00  0.00    +0.000 C 
ENDROOT
BRANCH   1   2
ATOM      2  C   UNL     1       6.678   7.571  17.831  0.00  0.00    +0.000 C 
BRANCH   2   6
ATOM      3  N   UNL     1       4.122   5.107  18.559  0.00  0.00    +0.000 N 
ATOM      4  C   UNL     1       5.470   4.999  19.126  0.00  0.00    +0.000 C 
ATOM      5  C   UNL     1       6.545   5.121  18.020  0.00  0.00    +0.000 C 
ATOM      6  N   UNL     1       6.411   6.299  17.131  0.00  0.00    +0.000 NA
ATOM      7  C   UNL     1       5.034   6.284  16.579  0.00  0.00    +0.000 C 
ATOM      8  C   UNL     1       3.907   6.236  17.638  0.00  0.00    +0.000 C 
BRANCH   3  15
ATOM      9  C   UNL     1       2.784   2.800  17.072  0.00  0.00    +0.000 C 
ATOM     10  C   UNL     1       2.344   3.378  18.390  0.00  0.00    +0.000 A 
ATOM     11  C   UNL     1       1.185   2.812  18.967  0.00  0.00    +0.000 A 
ATOM     12  C   UNL     1       0.729   3.209  20.220  0.00  0.00    +0.000 A 
ATOM     13  C   UNL     1       1.421   4.185  20.915  0.00  0.00    +0.000 A 
ATOM     14  C   UNL     1       2.549   4.774  20.340  0.00  0.00    +0.000 A 
ATOM     15  C   UNL     1       3.038   4.408  19.067  0.00  0.00    +0.000 A 
ENDBRANCH   3  15
ENDBRANCH   2   6
ENDBRANCH   1   2
BRANCH   1  16
ATOM     16  C   UNL     1       8.134   9.704  17.877  0.00  0.00    +0.000 C 
BRANCH  16  17
ATOM     17  C   UNL     1       9.226   9.881  18.932  0.00  0.00    +0.000 C 
BRANCH  17  18
ATOM     18  N   UNL     1       9.684  11.254  19.080  0.00  0.00    +0.000 N 
ATOM     19  C   UNL     1      10.650  11.735  18.105  0.00  0.00    +0.000 C 
ATOM     20  C   UNL     1      10.729  13.245  17.996  0.00  0.00    +0.000 C 
ATOM     21  O   UNL     1      10.988  13.804  16.932  0.00  0.00    +0.000 OA
ATOM     22  N   UNL     1      10.742  13.892  19.247  0.00  0.00    +0.000 N 
ATOM     23  C   UNL     1      10.989  15.313  19.160  0.00  0.00    +0.000 C 
ATOM     24  C   UNL     1      11.123  16.049  20.472  0.00  0.00    +0.000 C 
ATOM     25  C   UNL     1      10.486  15.437  21.706  0.00  0.00    +0.000 C 
ATOM     26  C   UNL     1       9.918  14.028  21.601  0.00  0.00    +0.000 C 
ATOM     27  C   UNL     1       9.725  13.448  20.199  0.00  0.00    +0.000 C 
ATOM     28  C   UNL     1       9.588  11.900  20.311  0.00  0.00    +0.000 C 
ATOM     29  O   UNL     1       9.170  11.337  21.322  0.00  0.00    +0.000 OA
ENDBRANCH  17  18
ENDBRANCH  16  17
ENDBRANCH   1  16
TORSDOF 6
ENDMDL
MODEL 5
REMARK VINA RESULT:      -8.3      1.727      2.248
REMARK  Name = 
REMARK  7 active torsions:
REMARK  status: ('A' for Active; 'I' for Inactive)
REMARK    1  A    between atoms: C_1  and  C_2
REMARK    2  A    between atoms: C_7  and  N_8
REMARK    3  A    between atoms: N_11  and  C_12
REMARK    4  A    between atoms: C_12  and  C_13
REMARK    5  A    between atoms: C_13  and  C_14
REMARK    6  A    between atoms: C_14  and  C_15
REMARK    7  A    between atoms: C_15  and  N_16
REMARK                            x       y       z     vdW  Elec       q    Type
REMARK                         _______ _______ _______ _____ _____    ______ ____
ROOT
ATOM      1  C   UNL     1       7.845   8.467  17.347  0.00  0.00    +0.000 C 
ENDROOT
BRANCH   1   2
ATOM      2  C   UNL     1       7.789   7.166  18.168  0.00  0.00    +0.000 C 
BRANCH   2   6
ATOM      3  N   UNL     1       4.932   4.940  18.049  0.00  0.00    +0.000 N 
ATOM      4  C   UNL     1       6.059   4.688  18.953  0.00  0.00    +0.000 C 
ATOM      5  C   UNL     1       7.402   4.737  18.187  0.00  0.00    +0.000 C 
ATOM      6  N   UNL     1       7.617   5.946  17.357  0.00  0.00    +0.000 NA
ATOM      7  C   UNL     1       6.447   6.077  16.454  0.00  0.00    +0.000 C 
ATOM      8  C   UNL     1       5.074   6.109  17.165  0.00  0.00    +0.000 C 
BRANCH   3  15
ATOM      9  C   UNL     1       2.647   6.209  19.628  0.00  0.00    +0.000 C 
ATOM     10  C   UNL     1       2.630   4.849  18.982  0.00  0.00    +0.000 A 
ATOM     11  C   UNL     1       1.452   4.089  19.155  0.00  0.00    +0.000 A 
ATOM     12  C   UNL     1       1.288   2.853  18.538  0.00  0.00    +0.000 A 
ATOM     13  C   UNL     1       2.303   2.353  17.742  0.00  0.00    +0.000 A 
ATOM     14  C   UNL     1       3.485   3.081  17.590  0.00  0.00    +0.000 A 
ATOM     15  C   UNL     1       3.695   4.334  18.208  0.00  0.00    +0.000 A 
ENDBRANCH   3  15
ENDBRANCH   2   6
ENDBRANCH   1   2
BRANCH   1  16
ATOM     16  C   UNL     1       7.965   9.744  18.182  0.00  0.00    +0.000 C 
BRANCH  16  17
ATOM     17  C   UNL     1       9.323   9.849  18.876  0.00  0.00    +0.000 C 
BRANCH  17  18
ATOM     18  N   UNL     1       9.839  11.206  18.958  0.00  0.00    +0.000 N 
ATOM     19  C   UNL     1      10.843  11.589  17.978  0.00  0.00    +0.000 C 
ATOM     20  C   UNL     1      10.991  13.085  17.787  0.00  0.00    +0.000 C 
ATOM     21  O   UNL     1      11.295  13.572  16.699  0.00  0.00    +0.000 OA
ATOM     22  N   UNL     1      11.011  13.800  19.000  0.00  0.00    +0.000 N 
ATOM     23  C   UNL     1      11.323  15.203  18.839  0.00  0.00    +0.000 C 
ATOM     24  C   UNL     1      11.466  16.005  20.112  0.00  0.00    +0.000 C 
ATOM     25  C   UNL     1      10.779  15.491  21.364  0.00  0.00    +0.000 C 
ATOM     26  C   UNL     1      10.151  14.104  21.326  0.00  0.00    +0.000 C 
ATOM     27  C   UNL     1       9.958  13.456  19.954  0.00  0.00    +0.000 C 
ATOM     28  C   UNL     1       9.749  11.924  20.149  0.00  0.00    +0.000 C 
ATOM     29  O   UNL     1       9.289  11.438  21.181  0.00  0.00    +0.000 OA
ENDBRANCH  17  18
ENDBRANCH  16  17
ENDBRANCH   1  16
TORSDOF 6
ENDMDL
MODEL 6
REMARK VINA RESULT:      -8.2      1.834      1.992
REMARK  Name = 
REMARK  7 active torsions:
REMARK  status: ('A' for Active; 'I' for Inactive)
REMARK    1  A    between atoms: C_1  and  C_2
REMARK    2  A    between atoms: C_7  and  N_8
REMARK    3  A    between atoms: N_11  and  C_12
REMARK    4  A    between atoms: C_12  and  C_13
REMARK    5  A    between atoms: C_13  and  C_14
REMARK    6  A    between atoms: C_14  and  C_15
REMARK    7  A    between atoms: C_15  and  N_16
REMARK                            x       y       z     vdW  Elec       q    Type
REMARK                         _______ _______ _______ _____ _____    ______ ____
ROOT
ATOM      1  C   UNL     1       8.065   8.548  17.651  0.00  0.00    +0.000 C 
ENDROOT
BRANCH   1   2
ATOM      2  C   UNL     1       7.749   7.134  18.171  0.00  0.00    +0.000 C 
BRANCH   2   6
ATOM      3  N   UNL     1       4.845   4.976  17.956  0.00  0.00    +0.000 N 
ATOM      4  C   UNL     1       6.096   4.515  18.566  0.00  0.00    +0.000 C 
ATOM      5  C   UNL     1       7.298   4.777  17.628  0.00  0.00    +0.000 C 
ATOM      6  N   UNL     1       7.412   6.162  17.113  0.00  0.00    +0.000 NA
ATOM      7  C   UNL     1       6.115   6.507  16.479  0.00  0.00    +0.000 C 
ATOM      8  C   UNL     1       4.877   6.336  17.390  0.00  0.00    +0.000 C 
BRANCH   3  15
ATOM      9  C   UNL     1       2.591   6.162  19.639  0.00  0.00    +0.000 C 
ATOM     10  C   UNL     1       2.585   4.810  18.977  0.00  0.00    +0.000 A 
ATOM     11  C   UNL     1       1.437   4.014  19.186  0.00  0.00    +0.000 A 
ATOM     12  C   UNL     1       1.284   2.781  18.560  0.00  0.00    +0.000 A 
ATOM     13  C   UNL     1       2.280   2.320  17.719  0.00  0.00    +0.000 A 
ATOM     14  C   UNL     1       3.434   3.083  17.530  0.00  0.00    +0.000 A 
ATOM     15  C   UNL     1       3.633   4.334  18.155  0.00  0.00    +0.000 A 
ENDBRANCH   3  15
ENDBRANCH   2   6
ENDBRANCH   1   2
BRANCH   1  16
ATOM     16  C   UNL     1       8.711   9.477  18.681  0.00  0.00    +0.000 C 
BRANCH  16  17
ATOM     17  C   UNL     1       9.480  10.620  18.020  0.00  0.00    +0.000 C 
BRANCH  17  18
ATOM     18  N   UNL     1       9.194  11.928  18.587  0.00  0.00    +0.000 N 
ATOM     19  C   UNL     1       8.643  12.930  17.687  0.00  0.00    +0.000 C 
ATOM     20  C   UNL     1       7.927  14.070  18.384  0.00  0.00    +0.000 C 
ATOM     21  O   UNL     1       6.962  14.636  17.874  0.00  0.00    +0.000 OA
ATOM     22  N   UNL     1       8.628  14.564  19.502  0.00  0.00    +0.000 N 
ATOM     23  C   UNL     1       8.041  15.758  20.068  0.00  0.00    +0.000 C 
ATOM     24  C   UNL     1       8.804  16.401  21.203  0.00  0.00    +0.000 C 
ATOM     25  C   UNL     1       9.759  15.537  22.006  0.00  0.00    +0.000 C 
ATOM     26  C   UNL     1      10.048  14.127  21.509  0.00  0.00    +0.000 C 
ATOM     27  C   UNL     1       9.121  13.554  20.436  0.00  0.00    +0.000 C 
ATOM     28  C   UNL     1       9.830  12.346  19.754  0.00  0.00    +0.000 C 
ATOM     29  O   UNL     1      10.686  11.667  20.319  0.00  0.00    +0.000 OA
ENDBRANCH  17  18
ENDBRANCH  16  17
ENDBRANCH   1  16
TORSDOF 6
ENDMDL
MODEL 7
REMARK VINA RESULT:      -8.1      1.338      1.771
REMARK  Name = 
REMARK  7 active torsions:
REMARK  status: ('A' for Active; 'I' for Inactive)
REMARK    1  A    between atoms: C_1  and  C_2
REMARK    2  A    between atoms: C_7  and  N_8
REMARK    3  A    between atoms: N_11  and  C_12
REMARK    4  A    between atoms: C_12  and  C_13
REMARK    5  A    between atoms: C_13  and  C_14
REMARK    6  A    between atoms: C_14  and  C_15
REMARK    7  A    between atoms: C_15  and  N_16
REMARK                            x       y       z     vdW  Elec       q    Type
REMARK                         _______ _______ _______ _____ _____    ______ ____
ROOT
ATOM      1  C   UNL     1       7.635   8.546  17.811  0.00  0.00    +0.000 C 
ENDROOT
BRANCH   1   2
ATOM      2  C   UNL     1       7.706   7.060  18.204  0.00  0.00    +0.000 C 
BRANCH   2   6
ATOM      3  N   UNL     1       4.633   5.166  18.531  0.00  0.00    +0.000 N 
ATOM      4  C   UNL     1       5.930   4.585  18.892  0.00  0.00    +0.000 C 
ATOM      5  C   UNL     1       6.952   4.763  17.744  0.00  0.00    +0.000 C 
ATOM      6  N   UNL     1       7.090   6.144  17.224  0.00  0.00    +0.000 NA
ATOM      7  C   UNL     1       5.734   6.614  16.849  0.00  0.00    +0.000 C 
ATOM      8  C   UNL     1       4.679   6.531  17.977  0.00  0.00    +0.000 C 
BRANCH   3  15
ATOM      9  C   UNL     1       3.124   3.028  16.958  0.00  0.00    +0.000 C 
ATOM     10  C   UNL     1       2.659   3.686  18.230  0.00  0.00    +0.000 A 
ATOM     11  C   UNL     1       1.392   3.289  18.714  0.00  0.00    +0.000 A 
ATOM     12  C   UNL     1       0.893   3.769  19.920  0.00  0.00    +0.000 A 
ATOM     13  C   UNL     1       1.649   4.658  20.661  0.00  0.00    +0.000 A 
ATOM     14  C   UNL     1       2.889   5.082  20.178  0.00  0.00    +0.000 A 
ATOM     15  C   UNL     1       3.427   4.628  18.953  0.00  0.00    +0.000 A 
ENDBRANCH   3  15
ENDBRANCH   2   6
ENDBRANCH   1   2
BRANCH   1  16
ATOM     16  C   UNL     1       8.956   9.306  17.948  0.00  0.00    +0.000 C 
BRANCH  16  17
ATOM     17  C   UNL     1       8.977  10.201  19.187  0.00  0.00    +0.000 C 
BRANCH  17  18
ATOM     18  N   UNL     1       9.297  11.591  18.903  0.00  0.00    +0.000 N 
ATOM     19  C   UNL     1       8.509  12.252  17.875  0.00  0.00    +0.000 C 
ATOM     20  C   UNL     1       8.532  13.766  17.947  0.00  0.00    +0.000 C 
ATOM     21  O   UNL     1       7.563  14.445  17.612  0.00  0.00    +0.000 OA
ATOM     22  N   UNL     1       9.820  14.292  18.169  0.00  0.00    +0.000 N 
ATOM     23  C   UNL     1       9.881  15.732  18.068  0.00  0.00    +0.000 C 
ATOM     24  C   UNL     1      11.254  16.352  18.188  0.00  0.00    +0.000 C 
ATOM     25  C   UNL     1      12.333  15.568  18.913  0.00  0.00    +0.000 C 
ATOM     26  C   UNL     1      12.038  14.127  19.305  0.00  0.00    +0.000 C 
ATOM     27  C   UNL     1      10.581  13.665  19.248  0.00  0.00    +0.000 C 
ATOM     28  C   UNL     1      10.550  12.107  19.231  0.00  0.00    +0.000 C 
ATOM     29  O   UNL     1      11.444  11.415  19.714  0.00  0.00    +0.000 OA
ENDBRANCH  17  18
ENDBRANCH  16  17
ENDBRANCH   1  16
TORSDOF 6
ENDMDL
MODEL 8
REMARK VINA RESULT:      -7.9      2.069      2.470
REMARK  Name = 
REMARK  7 active torsions:
REMARK  status: ('A' for Active; 'I' for Inactive)
REMARK    1  A    between atoms: C_1  and  C_2
REMARK    2  A    between atoms: C_7  and  N_8
REMARK    3  A    between atoms: N_11  and  C_12
REMARK    4  A    between atoms: C_12  and  C_13
REMARK    5  A    between atoms: C_13  and  C_14
REMARK    6  A    between atoms: C_14  and  C_15
REMARK    7  A    between atoms: C_15  and  N_16
REMARK                            x       y       z     vdW  Elec       q    Type
REMARK                         _______ _______ _______ _____ _____    ______ ____
ROOT
ATOM      1  C   UNL     1       8.265   8.393  17.793  0.00  0.00    +0.000 C 
ENDROOT
BRANCH   1   2
ATOM      2  C   UNL     1       6.793   8.019  17.542  0.00  0.00    +0.000 C 
BRANCH   2   6
ATOM      3  N   UNL     1       4.359   5.489  18.441  0.00  0.00    +0.000 N 
ATOM      4  C   UNL     1       5.703   5.497  19.026  0.00  0.00    +0.000 C 
ATOM      5  C   UNL     1       6.785   5.589  17.924  0.00  0.00    +0.000 C 
ATOM      6  N   UNL     1       6.602   6.684  16.943  0.00  0.00    +0.000 NA
ATOM      7  C   UNL     1       5.235   6.553  16.382  0.00  0.00    +0.000 C 
ATOM      8  C   UNL     1       4.098   6.530  17.431  0.00  0.00    +0.000 C 
BRANCH   3  15
ATOM      9  C   UNL     1       3.579   2.686  17.514  0.00  0.00    +0.000 C 
ATOM     10  C   UNL     1       2.865   3.506  18.555  0.00  0.00    +0.000 A 
ATOM     11  C   UNL     1       1.711   2.925  19.127  0.00  0.00    +0.000 A 
ATOM     12  C   UNL     1       1.014   3.553  20.154  0.00  0.00    +0.000 A 
ATOM     13  C   UNL     1       1.456   4.777  20.623  0.00  0.00    +0.000 A 
ATOM     14  C   UNL     1       2.577   5.375  20.044  0.00  0.00    +0.000 A 
ATOM     15  C   UNL     1       3.305   4.776  18.992  0.00  0.00    +0.000 A 
ENDBRANCH   3  15
ENDBRANCH   2   6
ENDBRANCH   1   2
BRANCH   1  16
ATOM     16  C   UNL     1       8.485   9.825  18.284  0.00  0.00    +0.000 C 
BRANCH  16  17
ATOM     17  C   UNL     1       9.532   9.897  19.395  0.00  0.00    +0.000 C 
BRANCH  17  18
ATOM     18  N   UNL     1       9.872  11.253  19.798  0.00  0.00    +0.000 N 
ATOM     19  C   UNL     1       8.914  11.949  20.643  0.00  0.00    +0.000 C 
ATOM     20  C   UNL     1       9.495  13.117  21.414  0.00  0.00    +0.000 C 
ATOM     21  O   UNL     1       9.077  13.428  22.528  0.00  0.00    +0.000 OA
ATOM     22  N   UNL     1      10.336  13.934  20.634  0.00  0.00    +0.000 N 
ATOM     23  C   UNL     1      10.756  15.142  21.309  0.00  0.00    +0.000 C 
ATOM     24  C   UNL     1      11.572  16.114  20.490  0.00  0.00    +0.000 C 
ATOM     25  C   UNL     1      12.332  15.580  19.290  0.00  0.00    +0.000 C 
ATOM     26  C   UNL     1      12.079  14.142  18.857  0.00  0.00    +0.000 C 
ATOM     27  C   UNL     1      11.340  13.230  19.838  0.00  0.00    +0.000 C 
ATOM     28  C   UNL     1      10.788  11.999  19.059  0.00  0.00    +0.000 C 
ATOM     29  O   UNL     1      11.302  11.577  18.024  0.00  0.00    +0.000 OA
ENDBRANCH  17  18
ENDBRANCH  16  17
ENDBRANCH   1  16
TORSDOF 6
ENDMDL
MODEL 9
REMARK VINA RESULT:      -7.9      1.986      2.687
REMARK  Name = 
REMARK  7 active torsions:
REMARK  status: ('A' for Active; 'I' for Inactive)
REMARK    1  A    between atoms: C_1  and  C_2
REMARK    2  A    between atoms: C_7  and  N_8
REMARK    3  A    between atoms: N_11  and  C_12
REMARK    4  A    between atoms: C_12  and  C_13
REMARK    5  A    between atoms: C_13  and  C_14
REMARK    6  A    between atoms: C_14  and  C_15
REMARK    7  A    between atoms: C_15  and  N_16
REMARK                            x       y       z     vdW  Elec       q    Type
REMARK                         _______ _______ _______ _____ _____    ______ ____
ROOT
ATOM      1  C   UNL     1       8.055   8.608  17.425  0.00  0.00    +0.000 C 
ENDROOT
BRANCH   1   2
ATOM      2  C   UNL     1       6.761   7.878  17.824  0.00  0.00    +0.000 C 
BRANCH   2   6
ATOM      3  N   UNL     1       4.298   5.323  18.564  0.00  0.00    +0.000 N 
ATOM      4  C   UNL     1       5.631   5.298  19.173  0.00  0.00    +0.000 C 
ATOM      5  C   UNL     1       6.734   5.432  18.096  0.00  0.00    +0.000 C 
ATOM      6  N   UNL     1       6.574   6.572  17.162  0.00  0.00    +0.000 NA
ATOM      7  C   UNL     1       5.217   6.474  16.571  0.00  0.00    +0.000 C 
ATOM      8  C   UNL     1       4.061   6.410  17.597  0.00  0.00    +0.000 C 
BRANCH   3  15
ATOM      9  C   UNL     1       3.670   2.472  17.670  0.00  0.00    +0.000 C 
ATOM     10  C   UNL     1       2.860   3.297  18.635  0.00  0.00    +0.000 A 
ATOM     11  C   UNL     1       1.688   2.695  19.145  0.00  0.00    +0.000 A 
ATOM     12  C   UNL     1       0.904   3.328  20.103  0.00  0.00    +0.000 A 
ATOM     13  C   UNL     1       1.276   4.578  20.565  0.00  0.00    +0.000 A 
ATOM     14  C   UNL     1       2.415   5.196  20.045  0.00  0.00    +0.000 A 
ATOM     15  C   UNL     1       3.232   4.592  19.063  0.00  0.00    +0.000 A 
ENDBRANCH   3  15
ENDBRANCH   2   6
ENDBRANCH   1   2
BRANCH   1  16
ATOM     16  C   UNL     1       8.619   9.540  18.500  0.00  0.00    +0.000 C 
BRANCH  16  17
ATOM     17  C   UNL     1       9.444  10.677  17.898  0.00  0.00    +0.000 C 
BRANCH  17  18
ATOM     18  N   UNL     1       9.164  11.980  18.480  0.00  0.00    +0.000 N 
ATOM     19  C   UNL     1       9.464  12.149  19.893  0.00  0.00    +0.000 C 
ATOM     20  C   UNL     1       9.619  13.592  20.331  0.00  0.00    +0.000 C 
ATOM     21  O   UNL     1      10.393  13.915  21.231  0.00  0.00    +0.000 OA
ATOM     22  N   UNL     1       8.624  14.441  19.807  0.00  0.00    +0.000 N 
ATOM     23  C   UNL     1       8.661  15.779  20.353  0.00  0.00    +0.000 C 
ATOM     24  C   UNL     1       7.555  16.709  19.913  0.00  0.00    +0.000 C 
ATOM     25  C   UNL     1       6.848  16.414  18.602  0.00  0.00    +0.000 C 
ATOM     26  C   UNL     1       7.151  15.097  17.900  0.00  0.00    +0.000 C 
ATOM     27  C   UNL     1       8.375  14.311  18.372  0.00  0.00    +0.000 C 
ATOM     28  C   UNL     1       8.248  12.840  17.876  0.00  0.00    +0.000 C 
ATOM     29  O   UNL     1       7.606  12.524  16.875  0.00  0.00    +0.000 OA
ENDBRANCH  17  18
ENDBRANCH  16  17
ENDBRANCH   1  16
TORSDOF 6
ENDMDL
