MODEL 1
REMARK VINA RESULT:      -7.6      0.000      0.000
REMARK  Name = 
REMARK  6 active torsions:
REMARK  status: ('A' for Active; 'I' for Inactive)
REMARK    1  A    between atoms: N_1  and  C_2
REMARK    2  A    between atoms: C_8  and  C_9
REMARK    3  A    between atoms: C_9  and  O_11
REMARK    4  A    between atoms: O_11  and  C_12
REMARK    5  A    between atoms: C_12  and  C_13
REMARK    6  A    between atoms: N_15  and  C_16
REMARK                            x       y       z     vdW  Elec       q    Type
REMARK                         _______ _______ _______ _____ _____    ______ ____
ROOT
ATOM      1  C   UNL     1       7.004   5.062  18.096  0.00  0.00    +0.000 C 
ATOM      2  O   UNL     1       7.955   4.304  17.982  0.00  0.00    +0.000 OA
ENDROOT
BRANCH   1   9
ATOM      3  C   UNL     1       3.191   4.877  18.277  0.00  0.00    +0.000 A 
ATOM      4  C   UNL     1       3.076   3.851  19.229  0.00  0.00    +0.000 A 
ATOM      5 CL   UNL     1       1.502   3.323  19.742  0.00  0.00    +0.000 Cl
ATOM      6  C   UNL     1       4.243   3.266  19.715  0.00  0.00    +0.000 A 
ATOM      7 CL   UNL     1       4.247   1.983  20.860  0.00  0.00    +0.000 Cl
ATOM      8  N   UNL     1       5.488   3.641  19.347  0.00  0.00    +0.000 NA
ATOM      9  C   UNL     1       5.596   4.668  18.452  0.00  0.00    +0.000 A 
ATOM     10  C   UNL     1       4.486   5.321  17.910  0.00  0.00    +0.000 A 
ATOM     11 CL   UNL     1       4.614   6.607  16.754  0.00  0.00    +0.000 Cl
BRANCH   3  12
ATOM     12  N   UNL     1       2.043   5.598  17.858  0.00  0.00    +0.000 N 
ATOM     13  H   UNL     1       1.889   6.471  18.361  0.00  0.00    +0.000 HD
ATOM     14  H   UNL     1       1.202   5.032  17.764  0.00  0.00    +0.000 HD
ENDBRANCH   3  12
ENDBRANCH   1   9
BRANCH   1  15
ATOM     15  O   UNL     1       7.079   6.407  17.931  0.00  0.00    +0.000 OA
BRANCH  15  16
ATOM     16  C   UNL     1       8.131   7.056  18.648  0.00  0.00    +0.000 C 
BRANCH  16  17
ATOM     17  C   UNL     1       8.303   8.524  18.249  0.00  0.00    +0.000 C 
ATOM     18  O   UNL     1       7.684   9.005  17.300  0.00  0.00    +0.000 OA
ATOM     19  N   UNL     1       9.159   9.269  19.049  0.00  0.00    +0.000 N 
ATOM     20  H   UNL     1       9.416   8.854  19.944  0.00  0.00    +0.000 HD
BRANCH  19  21
ATOM     21  C   UNL     1       9.173  10.728  18.920  0.00  0.00    +0.000 C 
ATOM     22  C   UNL     1       9.266  11.428  20.286  0.00  0.00    +0.000 C 
ATOM     23  C   UNL     1      10.674  11.827  20.708  0.00  0.00    +0.000 C 
ATOM     24  C   UNL     1      11.346  12.640  19.613  0.00  0.00    +0.000 C 
ATOM     25  C   UNL     1      11.508  11.781  18.370  0.00  0.00    +0.000 C 
ATOM     26  C   UNL     1      10.180  11.227  17.858  0.00  0.00    +0.000 C 
ENDBRANCH  19  21
ENDBRANCH  16  17
ENDBRANCH  15  16
ENDBRANCH   1  15
TORSDOF 6
ENDMDL
MODEL 2
REMARK VINA RESULT:      -7.3      4.827      6.823
REMARK  Name = 
REMARK  6 active torsions:
REMARK  status: ('A' for Active; 'I' for Inactive)
REMARK    1  A    between atoms: N_1  and  C_2
REMARK    2  A    between atoms: C_8  and  C_9
REMARK    3  A    between atoms: C_9  and  O_11
REMARK    4  A    between atoms: O_11  and  C_12
REMARK    5  A    between atoms: C_12  and  C_13
REMARK    6  A    between atoms: N_15  and  C_16
REMARK                            x       y       z     vdW  Elec       q    Type
REMARK                         _______ _______ _______ _____ _____    ______ ____
ROOT
ATOM      1  C   UNL     1       3.169   2.772  17.766  0.00  0.00    +0.000 C 
ATOM      2  O   UNL     1       3.359   1.566  17.737  0.00  0.00    +0.000 OA
ENDROOT
BRANCH   1   9
ATOM      3  C   UNL     1       6.144   4.984  18.700  0.00  0.00    +0.000 A 
ATOM      4  C   UNL     1       6.109   5.857  17.601  0.00  0.00    +0.000 A 
ATOM      5 CL   UNL     1       7.271   7.143  17.485  0.00  0.00    +0.000 Cl
ATOM      6  C   UNL     1       5.148   5.642  16.616  0.00  0.00    +0.000 A 
ATOM      7 CL   UNL     1       5.012   6.617  15.205  0.00  0.00    +0.000 Cl
ATOM      8  N   UNL     1       4.224   4.657  16.662  0.00  0.00    +0.000 NA
ATOM      9  C   UNL     1       4.234   3.835  17.754  0.00  0.00    +0.000 A 
ATOM     10  C   UNL     1       5.155   3.972  18.795  0.00  0.00    +0.000 A 
ATOM     11 CL   UNL     1       5.193   2.917  20.171  0.00  0.00    +0.000 Cl
BRANCH   3  12
ATOM     12  N   UNL     1       7.008   5.244  19.795  0.00  0.00    +0.000 N 
ATOM     13  H   UNL     1       7.005   4.520  20.513  0.00  0.00    +0.000 HD
ATOM     14  H   UNL     1       6.937   6.188  20.172  0.00  0.00    +0.000 HD
ENDBRANCH   3  12
ENDBRANCH   1   9
BRANCH   1  15
ATOM     15  O   UNL     1       1.942   3.350  17.799  0.00  0.00    +0.000 OA
BRANCH  15  16
ATOM     16  C   UNL     1       1.400   3.567  19.103  0.00  0.00    +0.000 C 
BRANCH  16  17
ATOM     17  C   UNL     1       1.823   4.908  19.707  0.00  0.00    +0.000 C 
ATOM     18  O   UNL     1       2.194   4.993  20.877  0.00  0.00    +0.000 OA
ATOM     19  N   UNL     1       1.801   5.992  18.840  0.00  0.00    +0.000 N 
ATOM     20  H   UNL     1       1.729   5.774  17.846  0.00  0.00    +0.000 HD
BRANCH  19  21
ATOM     21  C   UNL     1       2.445   7.245  19.241  0.00  0.00    +0.000 C 
ATOM     22  C   UNL     1       2.774   8.138  18.033  0.00  0.00    +0.000 C 
ATOM     23  C   UNL     1       1.736   9.209  17.725  0.00  0.00    +0.000 C 
ATOM     24  C   UNL     1       1.437  10.032  18.968  0.00  0.00    +0.000 C 
ATOM     25  C   UNL     1       0.818   9.139  20.031  0.00  0.00    +0.000 C 
ATOM     26  C   UNL     1       1.709   7.955  20.400  0.00  0.00    +0.000 C 
ENDBRANCH  19  21
ENDBRANCH  16  17
ENDBRANCH  15  16
ENDBRANCH   1  15
TORSDOF 6
ENDMDL
MODEL 3
REMARK VINA RESULT:      -7.3      1.731      2.507
REMARK  Name = 
REMARK  6 active torsions:
REMARK  status: ('A' for Active; 'I' for Inactive)
REMARK    1  A    between atoms: N_1  and  C_2
REMARK    2  A    between atoms: C_8  and  C_9
REMARK    3  A    between atoms: C_9  and  O_11
REMARK    4  A    between atoms: O_11  and  C_12
REMARK    5  A    between atoms: C_12  and  C_13
REMARK    6  A    between atoms: N_15  and  C_16
REMARK                            x       y       z     vdW  Elec       q    Type
REMARK                         _______ _______ _______ _____ _____    ______ ____
ROOT
ATOM      1  C   UNL     1       5.425   6.462  16.727  0.00  0.00    +0.000 C 
ATOM      2  O   UNL     1       5.199   6.856  15.593  0.00  0.00    +0.000 OA
ENDROOT
BRANCH   1   9
ATOM      3  C   UNL     1       3.922   3.185  17.995  0.00  0.00    +0.000 A 
ATOM      4  C   UNL     1       3.040   3.715  18.951  0.00  0.00    +0.000 A 
ATOM      5 CL   UNL     1       2.031   2.647  19.878  0.00  0.00    +0.000 Cl
ATOM      6  C   UNL     1       3.024   5.094  19.143  0.00  0.00    +0.000 A 
ATOM      7 CL   UNL     1       2.014   5.873  20.297  0.00  0.00    +0.000 Cl
ATOM      8  N   UNL     1       3.789   5.964  18.446  0.00  0.00    +0.000 NA
ATOM      9  C   UNL     1       4.615   5.448  17.489  0.00  0.00    +0.000 A 
ATOM     10  C   UNL     1       4.700   4.080  17.219  0.00  0.00    +0.000 A 
ATOM     11 CL   UNL     1       5.766   3.414  16.024  0.00  0.00    +0.000 Cl
BRANCH   3  12
ATOM     12  N   UNL     1       3.875   1.806  17.664  0.00  0.00    +0.000 N 
ATOM     13  H   UNL     1       4.218   1.186  18.396  0.00  0.00    +0.000 HD
ATOM     14  H   UNL     1       4.242   1.583  16.740  0.00  0.00    +0.000 HD
ENDBRANCH   3  12
ENDBRANCH   1   9
BRANCH   1  15
ATOM     15  O   UNL     1       6.473   6.877  17.483  0.00  0.00    +0.000 OA
BRANCH  15  16
ATOM     16  C   UNL     1       6.980   8.177  17.169  0.00  0.00    +0.000 C 
BRANCH  16  17
ATOM     17  C   UNL     1       8.097   8.622  18.116  0.00  0.00    +0.000 C 
ATOM     18  O   UNL     1       8.703   7.811  18.815  0.00  0.00    +0.000 OA
ATOM     19  N   UNL     1       8.399   9.977  18.096  0.00  0.00    +0.000 N 
ATOM     20  H   UNL     1       8.024  10.511  17.311  0.00  0.00    +0.000 HD
BRANCH  19  21
ATOM     21  C   UNL     1       9.621  10.450  18.749  0.00  0.00    +0.000 C 
ATOM     22  C   UNL     1      10.395  11.449  17.874  0.00  0.00    +0.000 C 
ATOM     23  C   UNL     1      10.116  12.916  18.173  0.00  0.00    +0.000 C 
ATOM     24  C   UNL     1      10.307  13.200  19.655  0.00  0.00    +0.000 C 
ATOM     25  C   UNL     1       9.292  12.406  20.459  0.00  0.00    +0.000 C 
ATOM     26  C   UNL     1       9.385  10.903  20.208  0.00  0.00    +0.000 C 
ENDBRANCH  19  21
ENDBRANCH  16  17
ENDBRANCH  15  16
ENDBRANCH   1  15
TORSDOF 6
ENDMDL
MODEL 4
REMARK VINA RESULT:      -7.2      7.098      9.969
REMARK  Name = 
REMARK  6 active torsions:
REMARK  status: ('A' for Active; 'I' for Inactive)
REMARK    1  A    between atoms: N_1  and  C_2
REMARK    2  A    between atoms: C_8  and  C_9
REMARK    3  A    between atoms: C_9  and  O_11
REMARK    4  A    between atoms: O_11  and  C_12
REMARK    5  A    between atoms: C_12  and  C_13
REMARK    6  A    between atoms: N_15  and  C_16
REMARK                            x       y       z     vdW  Elec       q    Type
REMARK                         _______ _______ _______ _____ _____    ______ ____
ROOT
ATOM      1  C   UNL     1       0.184  10.494  19.905  0.00  0.00    +0.000 C 
ATOM      2  O   UNL     1       1.180  11.193  20.007  0.00  0.00    +0.000 OA
ENDROOT
BRANCH   1   9
ATOM      3  C   UNL     1      -3.178  12.105  19.061  0.00  0.00    +0.000 A 
ATOM      4  C   UNL     1      -3.424  11.450  17.843  0.00  0.00    +0.000 A 
ATOM      5 CL   UNL     1      -4.884  11.787  16.963  0.00  0.00    +0.000 Cl
ATOM      6  C   UNL     1      -2.464  10.563  17.363  0.00  0.00    +0.000 A 
ATOM      7 CL   UNL     1      -2.623   9.717  15.874  0.00  0.00    +0.000 Cl
ATOM      8  N   UNL     1      -1.314  10.269  18.011  0.00  0.00    +0.000 NA
ATOM      9  C   UNL     1      -1.098  10.876  19.216  0.00  0.00    +0.000 A 
ATOM     10  C   UNL     1      -2.002  11.777  19.782  0.00  0.00    +0.000 A 
ATOM     11 CL   UNL     1      -1.724  12.573  21.298  0.00  0.00    +0.000 Cl
BRANCH   3  12
ATOM     12  N   UNL     1      -4.184  12.907  19.659  0.00  0.00    +0.000 N 
ATOM     13  H   UNL     1      -4.492  13.691  19.086  0.00  0.00    +0.000 HD
ATOM     14  H   UNL     1      -3.997  13.162  20.627  0.00  0.00    +0.000 HD
ENDBRANCH   3  12
ENDBRANCH   1   9
BRANCH   1  15
ATOM     15  O   UNL     1       0.086   9.232  20.394  0.00  0.00    +0.000 OA
BRANCH  15  16
ATOM     16  C   UNL     1       1.275   8.712  20.994  0.00  0.00    +0.000 C 
BRANCH  16  17
ATOM     17  C   UNL     1       1.866   7.534  20.217  0.00  0.00    +0.000 C 
ATOM     18  O   UNL     1       2.519   7.710  19.189  0.00  0.00    +0.000 OA
ATOM     19  N   UNL     1       1.651   6.279  20.770  0.00  0.00    +0.000 N 
ATOM     20  H   UNL     1       1.328   6.261  21.737  0.00  0.00    +0.000 HD
BRANCH  19  21
ATOM     21  C   UNL     1       2.403   5.130  20.259  0.00  0.00    +0.000 C 
ATOM     22  C   UNL     1       2.411   3.956  21.251  0.00  0.00    +0.000 C 
ATOM     23  C   UNL     1       1.348   2.895  20.999  0.00  0.00    +0.000 C 
ATOM     24  C   UNL     1       1.410   2.414  19.558  0.00  0.00    +0.000 C 
ATOM     25  C   UNL     1       1.084   3.567  18.624  0.00  0.00    +0.000 C 
ATOM     26  C   UNL     1       2.019   4.759  18.808  0.00  0.00    +0.000 C 
ENDBRANCH  19  21
ENDBRANCH  16  17
ENDBRANCH  15  16
ENDBRANCH   1  15
TORSDOF 6
ENDMDL
MODEL 5
REMARK VINA RESULT:      -7.2      5.498      7.244
REMARK  Name = 
REMARK  6 active torsions:
REMARK  status: ('A' for Active; 'I' for Inactive)
REMARK    1  A    between atoms: N_1  and  C_2
REMARK    2  A    between atoms: C_8  and  C_9
REMARK    3  A    between atoms: C_9  and  O_11
REMARK    4  A    between atoms: O_11  and  C_12
REMARK    5  A    between atoms: C_12  and  C_13
REMARK    6  A    between atoms: N_15  and  C_16
REMARK                            x       y       z     vdW  Elec       q    Type
REMARK                         _______ _______ _______ _____ _____    ______ ____
ROOT
ATOM      1  C   UNL     1       2.454   7.249  18.887  0.00  0.00    +0.000 C 
ATOM      2  O   UNL     1       2.308   7.757  19.988  0.00  0.00    +0.000 OA
ENDROOT
BRANCH   1   9
ATOM      3  C   UNL     1       4.295   4.075  17.814  0.00  0.00    +0.000 A 
ATOM      4  C   UNL     1       3.308   3.136  18.154  0.00  0.00    +0.000 A 
ATOM      5 CL   UNL     1       3.591   1.446  17.866  0.00  0.00    +0.000 Cl
ATOM      6  C   UNL     1       2.132   3.595  18.743  0.00  0.00    +0.000 A 
ATOM      7 CL   UNL     1       0.855   2.553  19.233  0.00  0.00    +0.000 Cl
ATOM      8  N   UNL     1       1.866   4.898  18.986  0.00  0.00    +0.000 NA
ATOM      9  C   UNL     1       2.811   5.813  18.616  0.00  0.00    +0.000 A 
ATOM     10  C   UNL     1       4.020   5.452  18.016  0.00  0.00    +0.000 A 
ATOM     11 CL   UNL     1       5.237   6.603  17.568  0.00  0.00    +0.000 Cl
BRANCH   3  12
ATOM     12  N   UNL     1       5.445   3.675  17.087  0.00  0.00    +0.000 N 
ATOM     13  H   UNL     1       5.276   2.934  16.408  0.00  0.00    +0.000 HD
ATOM     14  H   UNL     1       6.272   3.518  17.660  0.00  0.00    +0.000 HD
ENDBRANCH   3  12
ENDBRANCH   1   9
BRANCH   1  15
ATOM     15  O   UNL     1       2.296   7.914  17.715  0.00  0.00    +0.000 OA
BRANCH  15  16
ATOM     16  C   UNL     1       2.141   9.330  17.829  0.00  0.00    +0.000 C 
BRANCH  16  17
ATOM     17  C   UNL     1       0.767   9.735  18.368  0.00  0.00    +0.000 C 
ATOM     18  O   UNL     1      -0.242   9.660  17.667  0.00  0.00    +0.000 OA
ATOM     19  N   UNL     1       0.737  10.145  19.694  0.00  0.00    +0.000 N 
ATOM     20  H   UNL     1       1.564   9.930  20.251  0.00  0.00    +0.000 HD
BRANCH  19  21
ATOM     21  C   UNL     1      -0.553  10.284  20.373  0.00  0.00    +0.000 C 
ATOM     22  C   UNL     1      -0.684   9.324  21.567  0.00  0.00    +0.000 C 
ATOM     23  C   UNL     1      -0.332   9.929  22.919  0.00  0.00    +0.000 C 
ATOM     24  C   UNL     1      -1.111  11.215  23.144  0.00  0.00    +0.000 C 
ATOM     25  C   UNL     1      -0.702  12.244  22.104  0.00  0.00    +0.000 C 
ATOM     26  C   UNL     1      -0.918  11.756  20.673  0.00  0.00    +0.000 C 
ENDBRANCH  19  21
ENDBRANCH  16  17
ENDBRANCH  15  16
ENDBRANCH   1  15
TORSDOF 6
ENDMDL
MODEL 6
REMARK VINA RESULT:      -7.2      1.231      1.310
REMARK  Name = 
REMARK  6 active torsions:
REMARK  status: ('A' for Active; 'I' for Inactive)
REMARK    1  A    between atoms: N_1  and  C_2
REMARK    2  A    between atoms: C_8  and  C_9
REMARK    3  A    between atoms: C_9  and  O_11
REMARK    4  A    between atoms: O_11  and  C_12
REMARK    5  A    between atoms: C_12  and  C_13
REMARK    6  A    between atoms: N_15  and  C_16
REMARK                            x       y       z     vdW  Elec       q    Type
REMARK                         _______ _______ _______ _____ _____    ______ ____
ROOT
ATOM      1  C   UNL     1       5.852   5.739  18.111  0.00  0.00    +0.000 C 
ATOM      2  O   UNL     1       5.882   5.847  16.895  0.00  0.00    +0.000 OA
ENDROOT
BRANCH   1   9
ATOM      3  C   UNL     1       2.659   4.740  19.959  0.00  0.00    +0.000 A 
ATOM      4  C   UNL     1       3.062   3.470  20.404  0.00  0.00    +0.000 A 
ATOM      5 CL   UNL     1       1.975   2.504  21.354  0.00  0.00    +0.000 Cl
ATOM      6  C   UNL     1       4.326   3.013  20.039  0.00  0.00    +0.000 A 
ATOM      7 CL   UNL     1       4.935   1.469  20.490  0.00  0.00    +0.000 Cl
ATOM      8  N   UNL     1       5.206   3.727  19.302  0.00  0.00    +0.000 NA
ATOM      9  C   UNL     1       4.826   4.979  18.907  0.00  0.00    +0.000 A 
ATOM     10  C   UNL     1       3.581   5.527  19.225  0.00  0.00    +0.000 A 
ATOM     11 CL   UNL     1       3.080   7.104  18.705  0.00  0.00    +0.000 Cl
BRANCH   3  12
ATOM     12  N   UNL     1       1.442   5.307  20.419  0.00  0.00    +0.000 N 
ATOM     13  H   UNL     1       0.612   4.764  20.188  0.00  0.00    +0.000 HD
ATOM     14  H   UNL     1       1.342   6.302  20.225  0.00  0.00    +0.000 HD
ENDBRANCH   3  12
ENDBRANCH   1   9
BRANCH   1  15
ATOM     15  O   UNL     1       6.770   6.287  18.947  0.00  0.00    +0.000 OA
BRANCH  15  16
ATOM     16  C   UNL     1       8.000   6.680  18.335  0.00  0.00    +0.000 C 
BRANCH  16  17
ATOM     17  C   UNL     1       8.082   8.187  18.080  0.00  0.00    +0.000 C 
ATOM     18  O   UNL     1       7.408   8.724  17.203  0.00  0.00    +0.000 OA
ATOM     19  N   UNL     1       8.925   8.896  18.926  0.00  0.00    +0.000 N 
ATOM     20  H   UNL     1       9.233   8.409  19.767  0.00  0.00    +0.000 HD
BRANCH  19  21
ATOM     21  C   UNL     1       8.859  10.359  18.944  0.00  0.00    +0.000 C 
ATOM     22  C   UNL     1       9.184  10.936  20.331  0.00  0.00    +0.000 C 
ATOM     23  C   UNL     1      10.630  11.373  20.523  0.00  0.00    +0.000 C 
ATOM     24  C   UNL     1      11.051  12.318  19.409  0.00  0.00    +0.000 C 
ATOM     25  C   UNL     1      11.005  11.587  18.078  0.00  0.00    +0.000 C 
ATOM     26  C   UNL     1       9.626  11.008  17.769  0.00  0.00    +0.000 C 
ENDBRANCH  19  21
ENDBRANCH  16  17
ENDBRANCH  15  16
ENDBRANCH   1  15
TORSDOF 6
ENDMDL
MODEL 7
REMARK VINA RESULT:      -7.1      4.034      6.164
REMARK  Name = 
REMARK  6 active torsions:
REMARK  status: ('A' for Active; 'I' for Inactive)
REMARK    1  A    between atoms: N_1  and  C_2
REMARK    2  A    between atoms: C_8  and  C_9
REMARK    3  A    between atoms: C_9  and  O_11
REMARK    4  A    between atoms: O_11  and  C_12
REMARK    5  A    between atoms: C_12  and  C_13
REMARK    6  A    between atoms: N_15  and  C_16
REMARK                            x       y       z     vdW  Elec       q    Type
REMARK                         _______ _______ _______ _____ _____    ______ ____
ROOT
ATOM      1  C   UNL     1       1.761   5.209  20.486  0.00  0.00    +0.000 C 
ATOM      2  O   UNL     1       0.862   4.389  20.599  0.00  0.00    +0.000 OA
ENDROOT
BRANCH   1   9
ATOM      3  C   UNL     1       1.711   8.752  19.051  0.00  0.00    +0.000 A 
ATOM      4  C   UNL     1       1.240   9.431  20.186  0.00  0.00    +0.000 A 
ATOM      5 CL   UNL     1       1.022  11.153  20.131  0.00  0.00    +0.000 Cl
ATOM      6  C   UNL     1       0.935   8.687  21.323  0.00  0.00    +0.000 A 
ATOM      7 CL   UNL     1       0.325   9.386  22.771  0.00  0.00    +0.000 Cl
ATOM      8  N   UNL     1       1.089   7.347  21.414  0.00  0.00    +0.000 NA
ATOM      9  C   UNL     1       1.587   6.695  20.321  0.00  0.00    +0.000 A 
ATOM     10  C   UNL     1       1.925   7.353  19.137  0.00  0.00    +0.000 A 
ATOM     11 CL   UNL     1       2.532   6.530  17.736  0.00  0.00    +0.000 Cl
BRANCH   3  12
ATOM     12  N   UNL     1       2.168   9.476  17.919  0.00  0.00    +0.000 N 
ATOM     13  H   UNL     1       3.059   9.153  17.545  0.00  0.00    +0.000 HD
ATOM     14  H   UNL     1       2.114  10.488  18.019  0.00  0.00    +0.000 HD
ENDBRANCH   3  12
ENDBRANCH   1   9
BRANCH   1  15
ATOM     15  O   UNL     1       3.081   4.899  20.507  0.00  0.00    +0.000 OA
BRANCH  15  16
ATOM     16  C   UNL     1       3.418   3.612  19.985  0.00  0.00    +0.000 C 
BRANCH  16  17
ATOM     17  C   UNL     1       4.503   3.673  18.907  0.00  0.00    +0.000 C 
ATOM     18  O   UNL     1       4.361   3.104  17.825  0.00  0.00    +0.000 OA
ATOM     19  N   UNL     1       5.618   4.440  19.217  0.00  0.00    +0.000 N 
ATOM     20  H   UNL     1       5.526   5.067  20.016  0.00  0.00    +0.000 HD
BRANCH  19  21
ATOM     21  C   UNL     1       6.569   4.784  18.159  0.00  0.00    +0.000 C 
ATOM     22  C   UNL     1       5.913   5.599  17.033  0.00  0.00    +0.000 C 
ATOM     23  C   UNL     1       6.077   7.109  17.153  0.00  0.00    +0.000 C 
ATOM     24  C   UNL     1       7.544   7.471  17.328  0.00  0.00    +0.000 C 
ATOM     25  C   UNL     1       8.059   6.886  18.632  0.00  0.00    +0.000 C 
ATOM     26  C   UNL     1       7.891   5.370  18.707  0.00  0.00    +0.000 C 
ENDBRANCH  19  21
ENDBRANCH  16  17
ENDBRANCH  15  16
ENDBRANCH   1  15
TORSDOF 6
ENDMDL
MODEL 8
REMARK VINA RESULT:      -7.1      3.999      6.891
REMARK  Name = 
REMARK  6 active torsions:
REMARK  status: ('A' for Active; 'I' for Inactive)
REMARK    1  A    between atoms: N_1  and  C_2
REMARK    2  A    between atoms: C_8  and  C_9
REMARK    3  A    between atoms: C_9  and  O_11
REMARK    4  A    between atoms: O_11  and  C_12
REMARK    5  A    between atoms: C_12  and  C_13
REMARK    6  A    between atoms: N_15  and  C_16
REMARK                            x       y       z     vdW  Elec       q    Type
REMARK                         _______ _______ _______ _____ _____    ______ ____
ROOT
ATOM      1  C   UNL     1       7.153   5.631  18.208  0.00  0.00    +0.000 C 
ATOM      2  O   UNL     1       7.964   5.971  19.056  0.00  0.00    +0.000 OA
ENDROOT
BRANCH   1   9
ATOM      3  C   UNL     1       3.367   5.110  18.278  0.00  0.00    +0.000 A 
ATOM      4  C   UNL     1       3.330   3.944  19.061  0.00  0.00    +0.000 A 
ATOM      5 CL   UNL     1       1.802   3.218  19.455  0.00  0.00    +0.000 Cl
ATOM      6  C   UNL     1       4.538   3.389  19.477  0.00  0.00    +0.000 A 
ATOM      7 CL   UNL     1       4.640   1.951  20.414  0.00  0.00    +0.000 Cl
ATOM      8  N   UNL     1       5.750   3.917  19.196  0.00  0.00    +0.000 NA
ATOM      9  C   UNL     1       5.780   5.074  18.470  0.00  0.00    +0.000 A 
ATOM     10  C   UNL     1       4.623   5.709  18.010  0.00  0.00    +0.000 A 
ATOM     11 CL   UNL     1       4.652   7.162  17.065  0.00  0.00    +0.000 Cl
BRANCH   3  12
ATOM     12  N   UNL     1       2.166   5.791  17.950  0.00  0.00    +0.000 N 
ATOM     13  H   UNL     1       2.188   6.793  18.133  0.00  0.00    +0.000 HD
ATOM     14  H   UNL     1       1.319   5.336  18.286  0.00  0.00    +0.000 HD
ENDBRANCH   3  12
ENDBRANCH   1   9
BRANCH   1  15
ATOM     15  O   UNL     1       7.366   5.720  16.871  0.00  0.00    +0.000 OA
BRANCH  15  16
ATOM     16  C   UNL     1       7.122   4.524  16.128  0.00  0.00    +0.000 C 
BRANCH  16  17
ATOM     17  C   UNL     1       6.990   4.776  14.624  0.00  0.00    +0.000 C 
ATOM     18  O   UNL     1       7.705   5.595  14.048  0.00  0.00    +0.000 OA
ATOM     19  N   UNL     1       6.052   3.995  13.963  0.00  0.00    +0.000 N 
ATOM     20  H   UNL     1       5.702   3.183  14.471  0.00  0.00    +0.000 HD
BRANCH  19  21
ATOM     21  C   UNL     1       6.047   3.963  12.499  0.00  0.00    +0.000 C 
ATOM     22  C   UNL     1       7.440   3.662  11.922  0.00  0.00    +0.000 C 
ATOM     23  C   UNL     1       7.690   2.200  11.578  0.00  0.00    +0.000 C 
ATOM     24  C   UNL     1       6.583   1.669  10.680  0.00  0.00    +0.000 C 
ATOM     25  C   UNL     1       5.262   1.705  11.429  0.00  0.00    +0.000 C 
ATOM     26  C   UNL     1       4.899   3.105  11.920  0.00  0.00    +0.000 C 
ENDBRANCH  19  21
ENDBRANCH  16  17
ENDBRANCH  15  16
ENDBRANCH   1  15
TORSDOF 6
ENDMDL
MODEL 9
REMARK VINA RESULT:      -7.1      6.007      9.283
REMARK  Name = 
REMARK  6 active torsions:
REMARK  status: ('A' for Active; 'I' for Inactive)
REMARK    1  A    between atoms: N_1  and  C_2
REMARK    2  A    between atoms: C_8  and  C_9
REMARK    3  A    between atoms: C_9  and  O_11
REMARK    4  A    between atoms: O_11  and  C_12
REMARK    5  A    between atoms: C_12  and  C_13
REMARK    6  A    between atoms: N_15  and  C_16
REMARK                            x       y       z     vdW  Elec       q    Type
REMARK                         _______ _______ _______ _____ _____    ______ ____
ROOT
ATOM      1  C   UNL     1       0.517   9.752  18.601  0.00  0.00    +0.000 C 
ATOM      2  O   UNL     1      -0.104   9.554  17.568  0.00  0.00    +0.000 OA
ENDROOT
BRANCH   1   9
ATOM      3  C   UNL     1      -0.529  10.427  22.215  0.00  0.00    +0.000 A 
ATOM      4  C   UNL     1      -1.083  11.705  22.038  0.00  0.00    +0.000 A 
ATOM      5 CL   UNL     1      -1.764  12.545  23.397  0.00  0.00    +0.000 Cl
ATOM      6  C   UNL     1      -1.043  12.272  20.767  0.00  0.00    +0.000 A 
ATOM      7 CL   UNL     1      -1.659  13.839  20.414  0.00  0.00    +0.000 Cl
ATOM      8  N   UNL     1      -0.525  11.658  19.679  0.00  0.00    +0.000 NA
ATOM      9  C   UNL     1      -0.024  10.398  19.848  0.00  0.00    +0.000 A 
ATOM     10  C   UNL     1      -0.022   9.743  21.081  0.00  0.00    +0.000 A 
ATOM     11 CL   UNL     1       0.636   8.155  21.310  0.00  0.00    +0.000 Cl
BRANCH   3  12
ATOM     12  N   UNL     1      -0.670   9.750  23.454  0.00  0.00    +0.000 N 
ATOM     13  H   UNL     1       0.212   9.492  23.895  0.00  0.00    +0.000 HD
ATOM     14  H   UNL     1      -1.354   8.995  23.445  0.00  0.00    +0.000 HD
ENDBRANCH   3  12
ENDBRANCH   1   9
BRANCH   1  15
ATOM     15  O   UNL     1       1.812   9.397  18.791  0.00  0.00    +0.000 OA
BRANCH  15  16
ATOM     16  C   UNL     1       2.489   8.899  17.634  0.00  0.00    +0.000 C 
BRANCH  16  17
ATOM     17  C   UNL     1       3.047   7.488  17.834  0.00  0.00    +0.000 C 
ATOM     18  O   UNL     1       4.202   7.207  17.518  0.00  0.00    +0.000 OA
ATOM     19  N   UNL     1       2.183   6.577  18.427  0.00  0.00    +0.000 N 
ATOM     20  H   UNL     1       1.356   6.968  18.877  0.00  0.00    +0.000 HD
BRANCH  19  21
ATOM     21  C   UNL     1       2.709   5.298  18.908  0.00  0.00    +0.000 C 
ATOM     22  C   UNL     1       2.358   5.047  20.384  0.00  0.00    +0.000 C 
ATOM     23  C   UNL     1       1.117   4.194  20.613  0.00  0.00    +0.000 C 
ATOM     24  C   UNL     1       1.214   2.895  19.829  0.00  0.00    +0.000 C 
ATOM     25  C   UNL     1       1.245   3.201  18.342  0.00  0.00    +0.000 C 
ATOM     26  C   UNL     1       2.398   4.123  17.952  0.00  0.00    +0.000 C 
ENDBRANCH  19  21
ENDBRANCH  16  17
ENDBRANCH  15  16
ENDBRANCH   1  15
TORSDOF 6
ENDMDL
