MODEL 1
REMARK VINA RESULT:      -7.1      0.000      0.000
REMARK  Name = 
REMARK  3 active torsions:
REMARK  status: ('A' for Active; 'I' for Inactive)
REMARK    1  A    between atoms: N_10  and  C_11
REMARK    2  A    between atoms: C_11  and  C_12
REMARK    3  A    between atoms: C_12  and  N_13
REMARK                            x       y       z     vdW  Elec       q    Type
REMARK                         _______ _______ _______ _____ _____    ______ ____
ROOT
ATOM      1 CL   UNL     1       8.056   5.400  12.599  0.00  0.00    +0.000 Cl
ATOM      2  C   UNL     1       7.125   4.907  13.966  0.00  0.00    +0.000 A 
ATOM      3  C   UNL     1       7.488   5.412  15.219  0.00  0.00    +0.000 A 
ATOM      4  C   UNL     1       6.767   5.055  16.368  0.00  0.00    +0.000 A 
ATOM      5  C   UNL     1       5.693   4.158  16.261  0.00  0.00    +0.000 A 
ATOM      6  C   UNL     1       5.326   3.665  14.998  0.00  0.00    +0.000 A 
ATOM      7  C   UNL     1       6.035   4.036  13.854  0.00  0.00    +0.000 A 
ATOM      8 CL   UNL     1       5.512   3.389  12.342  0.00  0.00    +0.000 Cl
ATOM      9  C   UNL     1       4.876   3.758  17.471  0.00  0.00    +0.000 C 
ATOM     10  N   UNL     1       5.545   4.012  18.762  0.00  0.00    +0.000 NA
ATOM     11  C   UNL     1       6.064   5.395  18.774  0.00  0.00    +0.000 C 
ATOM     12  C   UNL     1       7.171   5.576  17.723  0.00  0.00    +0.000 C 
ENDROOT
BRANCH  10  13
ATOM     13  C   UNL     1       4.609   3.802  19.895  0.00  0.00    +0.000 C 
BRANCH  13  14
ATOM     14  C   UNL     1       3.951   2.392  19.936  0.00  0.00    +0.000 C 
BRANCH  14  15
ATOM     15  N   UNL     1       2.553   2.382  20.415  0.00  0.00    +0.000 NA
ATOM     16  C   UNL     1       1.550   2.239  19.353  0.00  0.00    +0.000 C 
ATOM     17  C   UNL     1       1.211   3.649  18.912  0.00  0.00    +0.000 C 
ATOM     18  C   UNL     1       1.296   4.448  20.195  0.00  0.00    +0.000 C 
ATOM     19  C   UNL     1       2.222   3.647  21.105  0.00  0.00    +0.000 C 
ENDBRANCH  14  15
ENDBRANCH  13  14
ENDBRANCH  10  13
TORSDOF 3
ENDMDL
MODEL 2
REMARK VINA RESULT:      -7.0      4.971      6.196
REMARK  Name = 
REMARK  3 active torsions:
REMARK  status: ('A' for Active; 'I' for Inactive)
REMARK    1  A    between atoms: N_10  and  C_11
REMARK    2  A    between atoms: C_11  and  C_12
REMARK    3  A    between atoms: C_12  and  N_13
REMARK                            x       y       z     vdW  Elec       q    Type
REMARK                         _______ _______ _______ _____ _____    ______ ____
ROOT
ATOM      1 CL   UNL     1       0.320  11.606  18.624  0.00  0.00    +0.000 Cl
ATOM      2  C   UNL     1       1.018  10.074  19.001  0.00  0.00    +0.000 A 
ATOM      3  C   UNL     1       1.843   9.478  18.041  0.00  0.00    +0.000 A 
ATOM      4  C   UNL     1       2.446   8.237  18.290  0.00  0.00    +0.000 A 
ATOM      5  C   UNL     1       2.191   7.572  19.499  0.00  0.00    +0.000 A 
ATOM      6  C   UNL     1       1.372   8.181  20.464  0.00  0.00    +0.000 A 
ATOM      7  C   UNL     1       0.787   9.425  20.219  0.00  0.00    +0.000 A 
ATOM      8 CL   UNL     1      -0.201  10.104  21.462  0.00  0.00    +0.000 Cl
ATOM      9  C   UNL     1       2.833   6.239  19.817  0.00  0.00    +0.000 C 
ATOM     10  N   UNL     1       3.353   5.522  18.636  0.00  0.00    +0.000 NA
ATOM     11  C   UNL     1       4.175   6.448  17.830  0.00  0.00    +0.000 C 
ATOM     12  C   UNL     1       3.315   7.581  17.247  0.00  0.00    +0.000 C 
ENDROOT
BRANCH  10  13
ATOM     13  C   UNL     1       4.154   4.341  19.042  0.00  0.00    +0.000 C 
BRANCH  13  14
ATOM     14  C   UNL     1       3.673   2.993  18.430  0.00  0.00    +0.000 C 
BRANCH  14  15
ATOM     15  N   UNL     1       2.928   2.125  19.366  0.00  0.00    +0.000 NA
ATOM     16  C   UNL     1       1.504   1.974  19.048  0.00  0.00    +0.000 C 
ATOM     17  C   UNL     1       0.794   3.092  19.785  0.00  0.00    +0.000 C 
ATOM     18  C   UNL     1       1.590   3.228  21.066  0.00  0.00    +0.000 C 
ATOM     19  C   UNL     1       2.972   2.670  20.739  0.00  0.00    +0.000 C 
ENDBRANCH  14  15
ENDBRANCH  13  14
ENDBRANCH  10  13
TORSDOF 3
ENDMDL
MODEL 3
REMARK VINA RESULT:      -6.9      3.715      6.864
REMARK  Name = 
REMARK  3 active torsions:
REMARK  status: ('A' for Active; 'I' for Inactive)
REMARK    1  A    between atoms: N_10  and  C_11
REMARK    2  A    between atoms: C_11  and  C_12
REMARK    3  A    between atoms: C_12  and  N_13
REMARK                            x       y       z     vdW  Elec       q    Type
REMARK                         _______ _______ _______ _____ _____    ______ ____
ROOT
ATOM      1 CL   UNL     1       2.065   3.966  21.385  0.00  0.00    +0.000 Cl
ATOM      2  C   UNL     1       2.804   3.998  19.825  0.00  0.00    +0.000 A 
ATOM      3  C   UNL     1       4.050   4.623  19.706  0.00  0.00    +0.000 A 
ATOM      4  C   UNL     1       4.705   4.676  18.468  0.00  0.00    +0.000 A 
ATOM      5  C   UNL     1       4.089   4.127  17.333  0.00  0.00    +0.000 A 
ATOM      6  C   UNL     1       2.844   3.491  17.462  0.00  0.00    +0.000 A 
ATOM      7  C   UNL     1       2.201   3.425  18.700  0.00  0.00    +0.000 A 
ATOM      8 CL   UNL     1       0.677   2.618  18.769  0.00  0.00    +0.000 Cl
ATOM      9  C   UNL     1       4.766   4.147  15.980  0.00  0.00    +0.000 C 
ATOM     10  N   UNL     1       5.857   5.135  15.865  0.00  0.00    +0.000 NA
ATOM     11  C   UNL     1       6.759   4.999  17.026  0.00  0.00    +0.000 C 
ATOM     12  C   UNL     1       6.036   5.370  18.331  0.00  0.00    +0.000 C 
ENDROOT
BRANCH  10  13
ATOM     13  C   UNL     1       6.611   4.950  14.600  0.00  0.00    +0.000 C 
BRANCH  13  14
ATOM     14  C   UNL     1       6.302   3.620  13.853  0.00  0.00    +0.000 C 
BRANCH  14  15
ATOM     15  N   UNL     1       6.191   3.752  12.385  0.00  0.00    +0.000 NA
ATOM     16  C   UNL     1       5.120   2.948  11.785  0.00  0.00    +0.000 C 
ATOM     17  C   UNL     1       5.745   1.609  11.448  0.00  0.00    +0.000 C 
ATOM     18  C   UNL     1       7.157   1.975  11.042  0.00  0.00    +0.000 C 
ATOM     19  C   UNL     1       7.436   3.312  11.720  0.00  0.00    +0.000 C 
ENDBRANCH  14  15
ENDBRANCH  13  14
ENDBRANCH  10  13
TORSDOF 3
ENDMDL
MODEL 4
REMARK VINA RESULT:      -6.7      0.748      1.034
REMARK  Name = 
REMARK  3 active torsions:
REMARK  status: ('A' for Active; 'I' for Inactive)
REMARK    1  A    between atoms: N_10  and  C_11
REMARK    2  A    between atoms: C_11  and  C_12
REMARK    3  A    between atoms: C_12  and  N_13
REMARK                            x       y       z     vdW  Elec       q    Type
REMARK                         _______ _______ _______ _____ _____    ______ ____
ROOT
ATOM      1 CL   UNL     1       7.975   5.235  12.771  0.00  0.00    +0.000 Cl
ATOM      2  C   UNL     1       7.051   4.842  14.175  0.00  0.00    +0.000 A 
ATOM      3  C   UNL     1       7.540   5.261  15.417  0.00  0.00    +0.000 A 
ATOM      4  C   UNL     1       6.832   4.980  16.594  0.00  0.00    +0.000 A 
ATOM      5  C   UNL     1       5.640   4.243  16.527  0.00  0.00    +0.000 A 
ATOM      6  C   UNL     1       5.147   3.837  15.276  0.00  0.00    +0.000 A 
ATOM      7  C   UNL     1       5.846   4.133  14.104  0.00  0.00    +0.000 A 
ATOM      8 CL   UNL     1       5.166   3.602  12.610  0.00  0.00    +0.000 Cl
ATOM      9  C   UNL     1       4.835   3.930  17.770  0.00  0.00    +0.000 C 
ATOM     10  N   UNL     1       5.593   4.059  19.029  0.00  0.00    +0.000 NA
ATOM     11  C   UNL     1       6.300   5.355  19.039  0.00  0.00    +0.000 C 
ATOM     12  C   UNL     1       7.370   5.407  17.936  0.00  0.00    +0.000 C 
ENDROOT
BRANCH  10  13
ATOM     13  C   UNL     1       4.693   3.952  20.205  0.00  0.00    +0.000 C 
BRANCH  13  14
ATOM     14  C   UNL     1       3.240   4.449  19.953  0.00  0.00    +0.000 C 
BRANCH  14  15
ATOM     15  N   UNL     1       2.186   3.557  20.481  0.00  0.00    +0.000 NA
ATOM     16  C   UNL     1       2.374   2.139  20.154  0.00  0.00    +0.000 C 
ATOM     17  C   UNL     1       1.662   1.920  18.834  0.00  0.00    +0.000 C 
ATOM     18  C   UNL     1       0.464   2.842  18.925  0.00  0.00    +0.000 C 
ATOM     19  C   UNL     1       0.863   3.919  19.929  0.00  0.00    +0.000 C 
ENDBRANCH  14  15
ENDBRANCH  13  14
ENDBRANCH  10  13
TORSDOF 3
ENDMDL
MODEL 5
REMARK VINA RESULT:      -6.7      5.580      7.216
REMARK  Name = 
REMARK  3 active torsions:
REMARK  status: ('A' for Active; 'I' for Inactive)
REMARK    1  A    between atoms: N_10  and  C_11
REMARK    2  A    between atoms: C_11  and  C_12
REMARK    3  A    between atoms: C_12  and  N_13
REMARK                            x       y       z     vdW  Elec       q    Type
REMARK                         _______ _______ _______ _____ _____    ______ ____
ROOT
ATOM      1 CL   UNL     1      -1.084  11.907  19.759  0.00  0.00    +0.000 Cl
ATOM      2  C   UNL     1      -0.119  10.497  20.001  0.00  0.00    +0.000 A 
ATOM      3  C   UNL     1       0.545   9.962  18.891  0.00  0.00    +0.000 A 
ATOM      4  C   UNL     1       1.350   8.821  19.024  0.00  0.00    +0.000 A 
ATOM      5  C   UNL     1       1.464   8.193  20.273  0.00  0.00    +0.000 A 
ATOM      6  C   UNL     1       0.805   8.743  21.385  0.00  0.00    +0.000 A 
ATOM      7  C   UNL     1       0.017   9.889  21.254  0.00  0.00    +0.000 A 
ATOM      8 CL   UNL     1      -0.751  10.500  22.673  0.00  0.00    +0.000 Cl
ATOM      9  C   UNL     1       2.334   6.971  20.466  0.00  0.00    +0.000 C 
ATOM     10  N   UNL     1       2.670   6.265  19.214  0.00  0.00    +0.000 NA
ATOM     11  C   UNL     1       3.159   7.244  18.222  0.00  0.00    +0.000 C 
ATOM     12  C   UNL     1       2.045   8.227  17.825  0.00  0.00    +0.000 C 
ENDROOT
BRANCH  10  13
ATOM     13  C   UNL     1       3.693   5.217  19.453  0.00  0.00    +0.000 C 
BRANCH  13  14
ATOM     14  C   UNL     1       3.579   3.978  18.518  0.00  0.00    +0.000 C 
BRANCH  14  15
ATOM     15  N   UNL     1       3.138   2.739  19.193  0.00  0.00    +0.000 NA
ATOM     16  C   UNL     1       1.928   2.137  18.622  0.00  0.00    +0.000 C 
ATOM     17  C   UNL     1       0.764   2.758  19.368  0.00  0.00    +0.000 C 
ATOM     18  C   UNL     1       1.303   2.937  20.772  0.00  0.00    +0.000 C 
ATOM     19  C   UNL     1       2.819   2.997  20.614  0.00  0.00    +0.000 C 
ENDBRANCH  14  15
ENDBRANCH  13  14
ENDBRANCH  10  13
TORSDOF 3
ENDMDL
MODEL 6
REMARK VINA RESULT:      -6.7      6.204      7.933
REMARK  Name = 
REMARK  3 active torsions:
REMARK  status: ('A' for Active; 'I' for Inactive)
REMARK    1  A    between atoms: N_10  and  C_11
REMARK    2  A    between atoms: C_11  and  C_12
REMARK    3  A    between atoms: C_12  and  N_13
REMARK                            x       y       z     vdW  Elec       q    Type
REMARK                         _______ _______ _______ _____ _____    ______ ____
ROOT
ATOM      1 CL   UNL     1      -1.572  12.580  20.647  0.00  0.00    +0.000 Cl
ATOM      2  C   UNL     1      -0.561  11.187  20.524  0.00  0.00    +0.000 A 
ATOM      3  C   UNL     1       0.027  10.914  19.284  0.00  0.00    +0.000 A 
ATOM      4  C   UNL     1       0.864   9.801  19.121  0.00  0.00    +0.000 A 
ATOM      5  C   UNL     1       1.086   8.936  20.204  0.00  0.00    +0.000 A 
ATOM      6  C   UNL     1       0.503   9.222  21.449  0.00  0.00    +0.000 A 
ATOM      7  C   UNL     1      -0.317  10.341  21.612  0.00  0.00    +0.000 A 
ATOM      8 CL   UNL     1      -0.988  10.621  23.177  0.00  0.00    +0.000 Cl
ATOM      9  C   UNL     1       1.995   7.733  20.078  0.00  0.00    +0.000 C 
ATOM     10  N   UNL     1       2.250   7.310  18.687  0.00  0.00    +0.000 NA
ATOM     11  C   UNL     1       2.640   8.488  17.887  0.00  0.00    +0.000 C 
ATOM     12  C   UNL     1       1.479   9.491  17.780  0.00  0.00    +0.000 C 
ENDROOT
BRANCH  10  13
ATOM     13  C   UNL     1       3.310   6.274  18.632  0.00  0.00    +0.000 C 
BRANCH  13  14
ATOM     14  C   UNL     1       2.996   4.983  19.443  0.00  0.00    +0.000 C 
BRANCH  14  15
ATOM     15  N   UNL     1       1.696   4.358  19.122  0.00  0.00    +0.000 NA
ATOM     16  C   UNL     1       0.968   3.843  20.287  0.00  0.00    +0.000 C 
ATOM     17  C   UNL     1       1.425   2.408  20.460  0.00  0.00    +0.000 C 
ATOM     18  C   UNL     1       1.630   1.932  19.037  0.00  0.00    +0.000 C 
ATOM     19  C   UNL     1       1.876   3.198  18.223  0.00  0.00    +0.000 C 
ENDBRANCH  14  15
ENDBRANCH  13  14
ENDBRANCH  10  13
TORSDOF 3
ENDMDL
MODEL 7
REMARK VINA RESULT:      -6.7      5.748      8.017
REMARK  Name = 
REMARK  3 active torsions:
REMARK  status: ('A' for Active; 'I' for Inactive)
REMARK    1  A    between atoms: N_10  and  C_11
REMARK    2  A    between atoms: C_11  and  C_12
REMARK    3  A    between atoms: C_12  and  N_13
REMARK                            x       y       z     vdW  Elec       q    Type
REMARK                         _______ _______ _______ _____ _____    ______ ____
ROOT
ATOM      1 CL   UNL     1      -0.683  11.952  21.244  0.00  0.00    +0.000 Cl
ATOM      2  C   UNL     1       0.177  10.504  20.864  0.00  0.00    +0.000 A 
ATOM      3  C   UNL     1       0.687  10.369  19.568  0.00  0.00    +0.000 A 
ATOM      4  C   UNL     1       1.400   9.220  19.199  0.00  0.00    +0.000 A 
ATOM      5  C   UNL     1       1.574   8.183  20.128  0.00  0.00    +0.000 A 
ATOM      6  C   UNL     1       1.070   8.330  21.431  0.00  0.00    +0.000 A 
ATOM      7  C   UNL     1       0.374   9.484  21.801  0.00  0.00    +0.000 A 
ATOM      8 CL   UNL     1      -0.204   9.585  23.423  0.00  0.00    +0.000 Cl
ATOM      9  C   UNL     1       2.350   6.932  19.779  0.00  0.00    +0.000 C 
ATOM     10  N   UNL     1       2.508   6.704  18.329  0.00  0.00    +0.000 NA
ATOM     11  C   UNL     1       2.985   7.948  17.692  0.00  0.00    +0.000 C 
ATOM     12  C   UNL     1       1.928   9.060  17.796  0.00  0.00    +0.000 C 
ENDROOT
BRANCH  10  13
ATOM     13  C   UNL     1       3.455   5.592  18.066  0.00  0.00    +0.000 C 
BRANCH  13  14
ATOM     14  C   UNL     1       4.854   5.766  18.725  0.00  0.00    +0.000 C 
BRANCH  14  15
ATOM     15  N   UNL     1       5.928   6.164  17.790  0.00  0.00    +0.000 NA
ATOM     16  C   UNL     1       5.767   5.644  16.427  0.00  0.00    +0.000 C 
ATOM     17  C   UNL     1       6.477   4.305  16.409  0.00  0.00    +0.000 C 
ATOM     18  C   UNL     1       7.657   4.522  17.333  0.00  0.00    +0.000 C 
ATOM     19  C   UNL     1       7.241   5.666  18.252  0.00  0.00    +0.000 C 
ENDBRANCH  14  15
ENDBRANCH  13  14
ENDBRANCH  10  13
TORSDOF 3
ENDMDL
MODEL 8
REMARK VINA RESULT:      -6.6      0.930      1.209
REMARK  Name = 
REMARK  3 active torsions:
REMARK  status: ('A' for Active; 'I' for Inactive)
REMARK    1  A    between atoms: N_10  and  C_11
REMARK    2  A    between atoms: C_11  and  C_12
REMARK    3  A    between atoms: C_12  and  N_13
REMARK                            x       y       z     vdW  Elec       q    Type
REMARK                         _______ _______ _______ _____ _____    ______ ____
ROOT
ATOM      1 CL   UNL     1       7.848   5.041  11.701  0.00  0.00    +0.000 Cl
ATOM      2  C   UNL     1       7.054   4.699  13.195  0.00  0.00    +0.000 A 
ATOM      3  C   UNL     1       7.416   5.455  14.315  0.00  0.00    +0.000 A 
ATOM      4  C   UNL     1       6.802   5.230  15.556  0.00  0.00    +0.000 A 
ATOM      5  C   UNL     1       5.842   4.214  15.681  0.00  0.00    +0.000 A 
ATOM      6  C   UNL     1       5.475   3.467  14.550  0.00  0.00    +0.000 A 
ATOM      7  C   UNL     1       6.076   3.705  13.312  0.00  0.00    +0.000 A 
ATOM      8 CL   UNL     1       5.560   2.745  11.974  0.00  0.00    +0.000 Cl
ATOM      9  C   UNL     1       5.143   3.947  16.996  0.00  0.00    +0.000 C 
ATOM     10  N   UNL     1       5.839   4.501  18.174  0.00  0.00    +0.000 NA
ATOM     11  C   UNL     1       6.186   5.913  17.913  0.00  0.00    +0.000 C 
ATOM     12  C   UNL     1       7.208   6.026  16.770  0.00  0.00    +0.000 C 
ENDROOT
BRANCH  10  13
ATOM     13  C   UNL     1       4.995   4.393  19.390  0.00  0.00    +0.000 C 
BRANCH  13  14
ATOM     14  C   UNL     1       3.464   4.453  19.121  0.00  0.00    +0.000 C 
BRANCH  14  15
ATOM     15  N   UNL     1       2.754   3.173  19.323  0.00  0.00    +0.000 NA
ATOM     16  C   UNL     1       1.291   3.287  19.333  0.00  0.00    +0.000 C 
ATOM     17  C   UNL     1       0.905   3.536  20.777  0.00  0.00    +0.000 C 
ATOM     18  C   UNL     1       1.914   2.719  21.556  0.00  0.00    +0.000 C 
ATOM     19  C   UNL     1       3.113   2.571  20.625  0.00  0.00    +0.000 C 
ENDBRANCH  14  15
ENDBRANCH  13  14
ENDBRANCH  10  13
TORSDOF 3
ENDMDL
MODEL 9
REMARK VINA RESULT:      -6.6      5.754      7.437
REMARK  Name = 
REMARK  3 active torsions:
REMARK  status: ('A' for Active; 'I' for Inactive)
REMARK    1  A    between atoms: N_10  and  C_11
REMARK    2  A    between atoms: C_11  and  C_12
REMARK    3  A    between atoms: C_12  and  N_13
REMARK                            x       y       z     vdW  Elec       q    Type
REMARK                         _______ _______ _______ _____ _____    ______ ____
ROOT
ATOM      1 CL   UNL     1      -0.576  12.121  21.052  0.00  0.00    +0.000 Cl
ATOM      2  C   UNL     1       0.217  10.618  20.746  0.00  0.00    +0.000 A 
ATOM      3  C   UNL     1       0.778  10.423  19.479  0.00  0.00    +0.000 A 
ATOM      4  C   UNL     1       1.442   9.227  19.170  0.00  0.00    +0.000 A 
ATOM      5  C   UNL     1       1.513   8.205  20.129  0.00  0.00    +0.000 A 
ATOM      6  C   UNL     1       0.958   8.413  21.403  0.00  0.00    +0.000 A 
ATOM      7  C   UNL     1       0.313   9.612  21.713  0.00  0.00    +0.000 A 
ATOM      8 CL   UNL     1      -0.335   9.785  23.304  0.00  0.00    +0.000 Cl
ATOM      9  C   UNL     1       2.232   6.905  19.845  0.00  0.00    +0.000 C 
ATOM     10  N   UNL     1       2.444   6.633  18.410  0.00  0.00    +0.000 NA
ATOM     11  C   UNL     1       3.021   7.832  17.769  0.00  0.00    +0.000 C 
ATOM     12  C   UNL     1       2.025   9.004  17.798  0.00  0.00    +0.000 C 
ENDROOT
BRANCH  10  13
ATOM     13  C   UNL     1       3.338   5.464  18.217  0.00  0.00    +0.000 C 
BRANCH  13  14
ATOM     14  C   UNL     1       3.792   4.773  19.536  0.00  0.00    +0.000 C 
BRANCH  14  15
ATOM     15  N   UNL     1       3.120   3.487  19.817  0.00  0.00    +0.000 NA
ATOM     16  C   UNL     1       3.942   2.302  19.546  0.00  0.00    +0.000 C 
ATOM     17  C   UNL     1       3.673   1.934  18.101  0.00  0.00    +0.000 C 
ATOM     18  C   UNL     1       2.210   2.279  17.918  0.00  0.00    +0.000 C 
ATOM     19  C   UNL     1       1.911   3.330  18.981  0.00  0.00    +0.000 C 
ENDBRANCH  14  15
ENDBRANCH  13  14
ENDBRANCH  10  13
TORSDOF 3
ENDMDL
