MODEL 1
REMARK VINA RESULT:      -7.5      0.000      0.000
REMARK  Name = 
REMARK  13 active torsions:
REMARK  status: ('A' for Active; 'I' for Inactive)
REMARK    1  A    between atoms: C_1  and  O_2
REMARK    2  A    between atoms: O_2  and  C_3
REMARK    3  A    between atoms: C_6  and  N_7
REMARK    4  A    between atoms: C_8  and  C_10
REMARK    5  A    between atoms: C_10  and  N_11
REMARK    6  A    between atoms: N_11  and  C_12
REMARK    7  A    between atoms: N_11  and  S_20
REMARK    8  A    between atoms: C_15  and  O_16
REMARK    9  A    between atoms: O_16  and  C_17
REMARK   10  A    between atoms: S_20  and  C_23
REMARK   11  A    between atoms: C_24  and  C_25
REMARK   12  A    between atoms: N_27  and  C_28
REMARK   13  A    between atoms: C_29  and  C_30
REMARK                            x       y       z     vdW  Elec       q    Type
REMARK                         _______ _______ _______ _____ _____    ______ ____
ROOT
ATOM      1  N   UNL     1       6.292   6.011  17.164  0.00  0.00    +0.000 N 
ENDROOT
BRANCH   1   2
ATOM      2  C   UNL     1       6.308   5.347  15.898  0.00  0.00    +0.000 A 
ATOM      3  C   UNL     1       7.463   5.388  15.115  0.00  0.00    +0.000 A 
ATOM      4  C   UNL     1       7.493   4.743  13.879  0.00  0.00    +0.000 A 
ATOM      5  C   UNL     1       6.378   4.048  13.413  0.00  0.00    +0.000 A 
ATOM      6  C   UNL     1       5.222   4.000  14.197  0.00  0.00    +0.000 A 
ATOM      7  C   UNL     1       5.192   4.640  15.447  0.00  0.00    +0.000 A 
BRANCH   5   8
ATOM      8  O   UNL     1       6.528   3.502  12.170  0.00  0.00    +0.000 OA
ATOM      9  C   UNL     1       5.554   2.544  11.776  0.00  0.00    +0.000 C 
ENDBRANCH   5   8
ENDBRANCH   1   2
BRANCH   1  10
ATOM     10  S   UNL     1       5.875   5.115  18.534  0.00  0.00    +0.000 S 
ATOM     11  O   UNL     1       6.502   3.814  18.425  0.00  0.00    +0.000 OA
ATOM     12  O   UNL     1       6.069   5.918  19.724  0.00  0.00    +0.000 OA
BRANCH  10  13
ATOM     13  C   UNL     1       4.171   4.782  18.539  0.00  0.00    +0.000 A 
ATOM     14  C   UNL     1       3.114   5.694  18.276  0.00  0.00    +0.000 A 
ATOM     15  C   UNL     1       3.114   7.156  18.016  0.00  0.00    +0.000 C 
ATOM     16  N   UNL     1       1.926   5.073  18.264  0.00  0.00    +0.000 NA
ATOM     17  N   UNL     1       2.211   3.784  18.490  0.00  0.00    +0.000 N 
ATOM     18  C   UNL     1       1.133   2.819  18.449  0.00  0.00    +0.000 C 
ATOM     19  C   UNL     1       3.541   3.554  18.737  0.00  0.00    +0.000 A 
ATOM     20  C   UNL     1       4.083   2.218  19.093  0.00  0.00    +0.000 C 
ENDBRANCH  10  13
ENDBRANCH   1  10
BRANCH   1  21
ATOM     21  C   UNL     1       6.327   7.485  17.239  0.00  0.00    +0.000 C 
BRANCH  21  23
ATOM     22  N   UNL     1       7.641   9.471  17.878  0.00  0.00    +0.000 N 
ATOM     23  C   UNL     1       7.585   8.077  17.873  0.00  0.00    +0.000 C 
ATOM     24  O   UNL     1       8.439   7.326  18.340  0.00  0.00    +0.000 OA
ATOM     25  H   UNL     1       6.805   9.979  17.614  0.00  0.00    +0.000 HD
BRANCH  22  29
ATOM     26  C   UNL     1      10.940  11.702  19.353  0.00  0.00    +0.000 A 
ATOM     27  C   UNL     1      10.454  11.933  18.069  0.00  0.00    +0.000 A 
ATOM     28  C   UNL     1       9.354  11.222  17.574  0.00  0.00    +0.000 A 
ATOM     29  C   UNL     1       8.730  10.247  18.350  0.00  0.00    +0.000 A 
ATOM     30  C   UNL     1       9.205  10.031  19.653  0.00  0.00    +0.000 A 
ATOM     31  C   UNL     1      10.312  10.744  20.147  0.00  0.00    +0.000 A 
BRANCH  26  33
ATOM     32  C   UNL     1      12.333  13.555  18.857  0.00  0.00    +0.000 C 
ATOM     33  O   UNL     1      12.038  12.442  19.689  0.00  0.00    +0.000 OA
ENDBRANCH  26  33
ENDBRANCH  22  29
ENDBRANCH  21  23
ENDBRANCH   1  21
TORSDOF 8
ENDMDL
MODEL 2
REMARK VINA RESULT:      -7.2      8.235     12.173
REMARK  Name = 
REMARK  13 active torsions:
REMARK  status: ('A' for Active; 'I' for Inactive)
REMARK    1  A    between atoms: C_1  and  O_2
REMARK    2  A    between atoms: O_2  and  C_3
REMARK    3  A    between atoms: C_6  and  N_7
REMARK    4  A    between atoms: C_8  and  C_10
REMARK    5  A    between atoms: C_10  and  N_11
REMARK    6  A    between atoms: N_11  and  C_12
REMARK    7  A    between atoms: N_11  and  S_20
REMARK    8  A    between atoms: C_15  and  O_16
REMARK    9  A    between atoms: O_16  and  C_17
REMARK   10  A    between atoms: S_20  and  C_23
REMARK   11  A    between atoms: C_24  and  C_25
REMARK   12  A    between atoms: N_27  and  C_28
REMARK   13  A    between atoms: C_29  and  C_30
REMARK                            x       y       z     vdW  Elec       q    Type
REMARK                         _______ _______ _______ _____ _____    ______ ____
ROOT
ATOM      1  N   UNL     1      -0.744  12.912  20.871  0.00  0.00    +0.000 N 
ENDROOT
BRANCH   1   2
ATOM      2  C   UNL     1      -1.869  12.839  21.751  0.00  0.00    +0.000 A 
ATOM      3  C   UNL     1      -1.838  11.959  22.833  0.00  0.00    +0.000 A 
ATOM      4  C   UNL     1      -2.927  11.878  23.700  0.00  0.00    +0.000 A 
ATOM      5  C   UNL     1      -4.054  12.675  23.500  0.00  0.00    +0.000 A 
ATOM      6  C   UNL     1      -4.086  13.562  22.421  0.00  0.00    +0.000 A 
ATOM      7  C   UNL     1      -2.986  13.652  21.552  0.00  0.00    +0.000 A 
BRANCH   5   8
ATOM      8  O   UNL     1      -5.065  12.463  24.395  0.00  0.00    +0.000 OA
ATOM      9  C   UNL     1      -6.389  12.649  23.912  0.00  0.00    +0.000 C 
ENDBRANCH   5   8
ENDBRANCH   1   2
BRANCH   1  10
ATOM     10  S   UNL     1       0.609  13.791  21.372  0.00  0.00    +0.000 S 
ATOM     11  O   UNL     1       0.248  14.524  22.568  0.00  0.00    +0.000 OA
ATOM     12  O   UNL     1       1.779  12.937  21.368  0.00  0.00    +0.000 OA
BRANCH  10  13
ATOM     13  C   UNL     1       0.995  15.018  20.205  0.00  0.00    +0.000 A 
ATOM     14  C   UNL     1       2.206  15.165  19.476  0.00  0.00    +0.000 A 
ATOM     15  C   UNL     1       3.488  14.419  19.535  0.00  0.00    +0.000 C 
ATOM     16  N   UNL     1       2.121  16.163  18.586  0.00  0.00    +0.000 NA
ATOM     17  N   UNL     1       0.874  16.635  18.718  0.00  0.00    +0.000 N 
ATOM     18  C   UNL     1       0.430  17.678  17.819  0.00  0.00    +0.000 C 
ATOM     19  C   UNL     1       0.168  16.035  19.730  0.00  0.00    +0.000 A 
ATOM     20  C   UNL     1      -1.206  16.446  20.118  0.00  0.00    +0.000 C 
ENDBRANCH  10  13
ENDBRANCH   1  10
BRANCH   1  21
ATOM     21  C   UNL     1      -0.869  12.509  19.457  0.00  0.00    +0.000 C 
BRANCH  21  23
ATOM     22  N   UNL     1       0.787  10.682  19.476  0.00  0.00    +0.000 N 
ATOM     23  C   UNL     1      -0.521  11.052  19.160  0.00  0.00    +0.000 C 
ATOM     24  O   UNL     1      -1.380  10.307  18.692  0.00  0.00    +0.000 OA
ATOM     25  H   UNL     1       1.348  11.338  20.007  0.00  0.00    +0.000 HD
BRANCH  22  29
ATOM     26  C   UNL     1       2.587   6.920  18.678  0.00  0.00    +0.000 A 
ATOM     27  C   UNL     1       2.054   7.190  19.935  0.00  0.00    +0.000 A 
ATOM     28  C   UNL     1       1.437   8.417  20.210  0.00  0.00    +0.000 A 
ATOM     29  C   UNL     1       1.362   9.409  19.234  0.00  0.00    +0.000 A 
ATOM     30  C   UNL     1       1.879   9.127  17.960  0.00  0.00    +0.000 A 
ATOM     31  C   UNL     1       2.499   7.895  17.687  0.00  0.00    +0.000 A 
BRANCH  26  33
ATOM     32  C   UNL     1       4.231   5.415  19.486  0.00  0.00    +0.000 C 
ATOM     33  O   UNL     1       3.188   5.698  18.565  0.00  0.00    +0.000 OA
ENDBRANCH  26  33
ENDBRANCH  22  29
ENDBRANCH  21  23
ENDBRANCH   1  21
TORSDOF 8
ENDMDL
MODEL 3
REMARK VINA RESULT:      -7.2      6.288      9.988
REMARK  Name = 
REMARK  13 active torsions:
REMARK  status: ('A' for Active; 'I' for Inactive)
REMARK    1  A    between atoms: C_1  and  O_2
REMARK    2  A    between atoms: O_2  and  C_3
REMARK    3  A    between atoms: C_6  and  N_7
REMARK    4  A    between atoms: C_8  and  C_10
REMARK    5  A    between atoms: C_10  and  N_11
REMARK    6  A    between atoms: N_11  and  C_12
REMARK    7  A    between atoms: N_11  and  S_20
REMARK    8  A    between atoms: C_15  and  O_16
REMARK    9  A    between atoms: O_16  and  C_17
REMARK   10  A    between atoms: S_20  and  C_23
REMARK   11  A    between atoms: C_24  and  C_25
REMARK   12  A    between atoms: N_27  and  C_28
REMARK   13  A    between atoms: C_29  and  C_30
REMARK                            x       y       z     vdW  Elec       q    Type
REMARK                         _______ _______ _______ _____ _____    ______ ____
ROOT
ATOM      1  N   UNL     1       0.480  10.165  19.395  0.00  0.00    +0.000 N 
ENDROOT
BRANCH   1   2
ATOM      2  C   UNL     1      -0.677  10.452  18.604  0.00  0.00    +0.000 A 
ATOM      3  C   UNL     1      -1.005   9.613  17.539  0.00  0.00    +0.000 A 
ATOM      4  C   UNL     1      -2.130   9.880  16.759  0.00  0.00    +0.000 A 
ATOM      5  C   UNL     1      -2.941  10.979  17.037  0.00  0.00    +0.000 A 
ATOM      6  C   UNL     1      -2.620  11.818  18.107  0.00  0.00    +0.000 A 
ATOM      7  C   UNL     1      -1.491  11.546  18.899  0.00  0.00    +0.000 A 
BRANCH   5   8
ATOM      8  O   UNL     1      -3.984  11.149  16.169  0.00  0.00    +0.000 OA
ATOM      9  C   UNL     1      -3.878  10.488  14.915  0.00  0.00    +0.000 C 
ENDBRANCH   5   8
ENDBRANCH   1   2
BRANCH   1  10
ATOM     10  S   UNL     1       0.342  10.255  21.077  0.00  0.00    +0.000 S 
ATOM     11  O   UNL     1      -0.868   9.560  21.465  0.00  0.00    +0.000 OA
ATOM     12  O   UNL     1       1.608   9.911  21.692  0.00  0.00    +0.000 OA
BRANCH  10  13
ATOM     13  C   UNL     1       0.081  11.900  21.571  0.00  0.00    +0.000 A 
ATOM     14  C   UNL     1      -0.918  12.386  22.457  0.00  0.00    +0.000 A 
ATOM     15  C   UNL     1      -2.049  11.705  23.136  0.00  0.00    +0.000 C 
ATOM     16  N   UNL     1      -0.763  13.696  22.694  0.00  0.00    +0.000 NA
ATOM     17  N   UNL     1       0.327  14.044  21.998  0.00  0.00    +0.000 N 
ATOM     18  C   UNL     1       0.821  15.399  22.117  0.00  0.00    +0.000 C 
ATOM     19  C   UNL     1       0.840  13.021  21.240  0.00  0.00    +0.000 A 
ATOM     20  C   UNL     1       1.997  13.190  20.323  0.00  0.00    +0.000 C 
ENDBRANCH  10  13
ENDBRANCH   1  10
BRANCH   1  21
ATOM     21  C   UNL     1       1.817  10.103  18.775  0.00  0.00    +0.000 C 
BRANCH  21  23
ATOM     22  N   UNL     1       2.130   7.696  19.211  0.00  0.00    +0.000 N 
ATOM     23  C   UNL     1       2.241   8.724  18.273  0.00  0.00    +0.000 C 
ATOM     24  O   UNL     1       2.626   8.593  17.113  0.00  0.00    +0.000 OA
ATOM     25  H   UNL     1       1.646   7.898  20.078  0.00  0.00    +0.000 HD
BRANCH  22  29
ATOM     26  C   UNL     1       3.272   3.673  18.475  0.00  0.00    +0.000 A 
ATOM     27  C   UNL     1       3.950   4.432  19.424  0.00  0.00    +0.000 A 
ATOM     28  C   UNL     1       3.574   5.754  19.696  0.00  0.00    +0.000 A 
ATOM     29  C   UNL     1       2.521   6.349  19.003  0.00  0.00    +0.000 A 
ATOM     30  C   UNL     1       1.823   5.576  18.064  0.00  0.00    +0.000 A 
ATOM     31  C   UNL     1       2.204   4.250  17.791  0.00  0.00    +0.000 A 
BRANCH  26  33
ATOM     32  C   UNL     1       4.293   1.763  19.438  0.00  0.00    +0.000 C 
ATOM     33  O   UNL     1       3.770   2.414  18.290  0.00  0.00    +0.000 OA
ENDBRANCH  26  33
ENDBRANCH  22  29
ENDBRANCH  21  23
ENDBRANCH   1  21
TORSDOF 8
ENDMDL
MODEL 4
REMARK VINA RESULT:      -7.2      8.166     12.088
REMARK  Name = 
REMARK  13 active torsions:
REMARK  status: ('A' for Active; 'I' for Inactive)
REMARK    1  A    between atoms: C_1  and  O_2
REMARK    2  A    between atoms: O_2  and  C_3
REMARK    3  A    between atoms: C_6  and  N_7
REMARK    4  A    between atoms: C_8  and  C_10
REMARK    5  A    between atoms: C_10  and  N_11
REMARK    6  A    between atoms: N_11  and  C_12
REMARK    7  A    between atoms: N_11  and  S_20
REMARK    8  A    between atoms: C_15  and  O_16
REMARK    9  A    between atoms: O_16  and  C_17
REMARK   10  A    between atoms: S_20  and  C_23
REMARK   11  A    between atoms: C_24  and  C_25
REMARK   12  A    between atoms: N_27  and  C_28
REMARK   13  A    between atoms: C_29  and  C_30
REMARK                            x       y       z     vdW  Elec       q    Type
REMARK                         _______ _______ _______ _____ _____    ______ ____
ROOT
ATOM      1  N   UNL     1      -0.939  13.027  20.601  0.00  0.00    +0.000 N 
ENDROOT
BRANCH   1   2
ATOM      2  C   UNL     1      -2.040  12.887  21.503  0.00  0.00    +0.000 A 
ATOM      3  C   UNL     1      -1.863  12.195  22.701  0.00  0.00    +0.000 A 
ATOM      4  C   UNL     1      -2.927  12.051  23.591  0.00  0.00    +0.000 A 
ATOM      5  C   UNL     1      -4.175  12.600  23.299  0.00  0.00    +0.000 A 
ATOM      6  C   UNL     1      -4.355  13.299  22.103  0.00  0.00    +0.000 A 
ATOM      7  C   UNL     1      -3.282  13.453  21.209  0.00  0.00    +0.000 A 
BRANCH   5   8
ATOM      8  O   UNL     1      -5.139  12.347  24.234  0.00  0.00    +0.000 OA
ATOM      9  C   UNL     1      -6.426  12.896  23.982  0.00  0.00    +0.000 C 
ENDBRANCH   5   8
ENDBRANCH   1   2
BRANCH   1  10
ATOM     10  S   UNL     1       0.414  13.896  21.118  0.00  0.00    +0.000 S 
ATOM     11  O   UNL     1      -0.005  14.783  22.183  0.00  0.00    +0.000 OA
ATOM     12  O   UNL     1       1.530  12.994  21.319  0.00  0.00    +0.000 OA
BRANCH  10  13
ATOM     13  C   UNL     1       0.966  14.955  19.856  0.00  0.00    +0.000 A 
ATOM     14  C   UNL     1       0.475  16.251  19.542  0.00  0.00    +0.000 A 
ATOM     15  C   UNL     1      -0.657  17.037  20.094  0.00  0.00    +0.000 C 
ATOM     16  N   UNL     1       1.201  16.825  18.573  0.00  0.00    +0.000 NA
ATOM     17  N   UNL     1       2.157  15.931  18.285  0.00  0.00    +0.000 N 
ATOM     18  C   UNL     1       3.176  16.293  17.324  0.00  0.00    +0.000 C 
ATOM     19  C   UNL     1       2.025  14.751  18.973  0.00  0.00    +0.000 A 
ATOM     20  C   UNL     1       2.918  13.583  18.762  0.00  0.00    +0.000 C 
ENDBRANCH  10  13
ENDBRANCH   1  10
BRANCH   1  21
ATOM     21  C   UNL     1      -1.095  12.702  19.170  0.00  0.00    +0.000 C 
BRANCH  21  23
ATOM     22  N   UNL     1       0.577  10.904  19.392  0.00  0.00    +0.000 N 
ATOM     23  C   UNL     1      -0.592  11.321  18.755  0.00  0.00    +0.000 C 
ATOM     24  O   UNL     1      -1.226  10.669  17.927  0.00  0.00    +0.000 OA
ATOM     25  H   UNL     1       0.913  11.457  20.172  0.00  0.00    +0.000 HD
BRANCH  22  29
ATOM     26  C   UNL     1       2.571   7.225  18.671  0.00  0.00    +0.000 A 
ATOM     27  C   UNL     1       2.522   8.202  17.681  0.00  0.00    +0.000 A 
ATOM     28  C   UNL     1       1.888   9.430  17.908  0.00  0.00    +0.000 A 
ATOM     29  C   UNL     1       1.269   9.694  19.129  0.00  0.00    +0.000 A 
ATOM     30  C   UNL     1       1.338   8.718  20.134  0.00  0.00    +0.000 A 
ATOM     31  C   UNL     1       1.973   7.485  19.903  0.00  0.00    +0.000 A 
BRANCH  26  33
ATOM     32  C   UNL     1       2.384   4.897  18.264  0.00  0.00    +0.000 C 
ATOM     33  O   UNL     1       3.190   6.065  18.298  0.00  0.00    +0.000 OA
ENDBRANCH  26  33
ENDBRANCH  22  29
ENDBRANCH  21  23
ENDBRANCH   1  21
TORSDOF 8
ENDMDL
MODEL 5
REMARK VINA RESULT:      -7.1      8.554     12.378
REMARK  Name = 
REMARK  13 active torsions:
REMARK  status: ('A' for Active; 'I' for Inactive)
REMARK    1  A    between atoms: C_1  and  O_2
REMARK    2  A    between atoms: O_2  and  C_3
REMARK    3  A    between atoms: C_6  and  N_7
REMARK    4  A    between atoms: C_8  and  C_10
REMARK    5  A    between atoms: C_10  and  N_11
REMARK    6  A    between atoms: N_11  and  C_12
REMARK    7  A    between atoms: N_11  and  S_20
REMARK    8  A    between atoms: C_15  and  O_16
REMARK    9  A    between atoms: O_16  and  C_17
REMARK   10  A    between atoms: S_20  and  C_23
REMARK   11  A    between atoms: C_24  and  C_25
REMARK   12  A    between atoms: N_27  and  C_28
REMARK   13  A    between atoms: C_29  and  C_30
REMARK                            x       y       z     vdW  Elec       q    Type
REMARK                         _______ _______ _______ _____ _____    ______ ____
ROOT
ATOM      1  N   UNL     1      -1.289  12.969  20.807  0.00  0.00    +0.000 N 
ENDROOT
BRANCH   1   2
ATOM      2  C   UNL     1      -2.423  12.858  21.672  0.00  0.00    +0.000 A 
ATOM      3  C   UNL     1      -2.284  12.226  22.908  0.00  0.00    +0.000 A 
ATOM      4  C   UNL     1      -3.380  12.112  23.763  0.00  0.00    +0.000 A 
ATOM      5  C   UNL     1      -4.622  12.630  23.396  0.00  0.00    +0.000 A 
ATOM      6  C   UNL     1      -4.763  13.268  22.162  0.00  0.00    +0.000 A 
ATOM      7  C   UNL     1      -3.658  13.393  21.303  0.00  0.00    +0.000 A 
BRANCH   5   8
ATOM      8  O   UNL     1      -5.619  12.410  24.305  0.00  0.00    +0.000 OA
ATOM      9  C   UNL     1      -6.845  13.092  24.078  0.00  0.00    +0.000 C 
ENDBRANCH   5   8
ENDBRANCH   1   2
BRANCH   1  10
ATOM     10  S   UNL     1      -0.002  13.949  21.295  0.00  0.00    +0.000 S 
ATOM     11  O   UNL     1      -0.436  14.717  22.443  0.00  0.00    +0.000 OA
ATOM     12  O   UNL     1       1.215  13.166  21.361  0.00  0.00    +0.000 OA
BRANCH  10  13
ATOM     13  C   UNL     1       0.343  15.138  20.076  0.00  0.00    +0.000 A 
ATOM     14  C   UNL     1       1.528  15.261  19.302  0.00  0.00    +0.000 A 
ATOM     15  C   UNL     1       2.813  14.517  19.342  0.00  0.00    +0.000 C 
ATOM     16  N   UNL     1       1.412  16.229  18.383  0.00  0.00    +0.000 NA
ATOM     17  N   UNL     1       0.170  16.705  18.543  0.00  0.00    +0.000 N 
ATOM     18  C   UNL     1      -0.305  17.719  17.625  0.00  0.00    +0.000 C 
ATOM     19  C   UNL     1      -0.500  16.139  19.596  0.00  0.00    +0.000 A 
ATOM     20  C   UNL     1      -1.861  16.562  20.017  0.00  0.00    +0.000 C 
ENDBRANCH  10  13
ENDBRANCH   1  10
BRANCH   1  21
ATOM     21  C   UNL     1      -1.364  12.505  19.408  0.00  0.00    +0.000 C 
BRANCH  21  23
ATOM     22  N   UNL     1       0.468  10.858  19.493  0.00  0.00    +0.000 N 
ATOM     23  C   UNL     1      -0.869  11.081  19.164  0.00  0.00    +0.000 C 
ATOM     24  O   UNL     1      -1.646  10.237  18.723  0.00  0.00    +0.000 OA
ATOM     25  H   UNL     1       0.958  11.586  20.000  0.00  0.00    +0.000 HD
BRANCH  22  29
ATOM     26  C   UNL     1       2.494   7.161  18.979  0.00  0.00    +0.000 A 
ATOM     27  C   UNL     1       2.408   8.066  17.925  0.00  0.00    +0.000 A 
ATOM     28  C   UNL     1       1.763   9.299  18.083  0.00  0.00    +0.000 A 
ATOM     29  C   UNL     1       1.170   9.641  19.297  0.00  0.00    +0.000 A 
ATOM     30  C   UNL     1       1.278   8.738  20.366  0.00  0.00    +0.000 A 
ATOM     31  C   UNL     1       1.923   7.500  20.205  0.00  0.00    +0.000 A 
BRANCH  26  33
ATOM     32  C   UNL     1       3.977   6.000  17.540  0.00  0.00    +0.000 C 
ATOM     33  O   UNL     1       3.120   5.986  18.672  0.00  0.00    +0.000 OA
ENDBRANCH  26  33
ENDBRANCH  22  29
ENDBRANCH  21  23
ENDBRANCH   1  21
TORSDOF 8
ENDMDL
MODEL 6
REMARK VINA RESULT:      -7.1      7.318     10.731
REMARK  Name = 
REMARK  13 active torsions:
REMARK  status: ('A' for Active; 'I' for Inactive)
REMARK    1  A    between atoms: C_1  and  O_2
REMARK    2  A    between atoms: O_2  and  C_3
REMARK    3  A    between atoms: C_6  and  N_7
REMARK    4  A    between atoms: C_8  and  C_10
REMARK    5  A    between atoms: C_10  and  N_11
REMARK    6  A    between atoms: N_11  and  C_12
REMARK    7  A    between atoms: N_11  and  S_20
REMARK    8  A    between atoms: C_15  and  O_16
REMARK    9  A    between atoms: O_16  and  C_17
REMARK   10  A    between atoms: S_20  and  C_23
REMARK   11  A    between atoms: C_24  and  C_25
REMARK   12  A    between atoms: N_27  and  C_28
REMARK   13  A    between atoms: C_29  and  C_30
REMARK                            x       y       z     vdW  Elec       q    Type
REMARK                         _______ _______ _______ _____ _____    ______ ____
ROOT
ATOM      1  N   UNL     1      -0.327  11.511  19.765  0.00  0.00    +0.000 N 
ENDROOT
BRANCH   1   2
ATOM      2  C   UNL     1      -1.329  11.230  18.783  0.00  0.00    +0.000 A 
ATOM      3  C   UNL     1      -1.049  10.329  17.755  0.00  0.00    +0.000 A 
ATOM      4  C   UNL     1      -2.017  10.044  16.792  0.00  0.00    +0.000 A 
ATOM      5  C   UNL     1      -3.272  10.649  16.848  0.00  0.00    +0.000 A 
ATOM      6  C   UNL     1      -3.558  11.547  17.879  0.00  0.00    +0.000 A 
ATOM      7  C   UNL     1      -2.588  11.828  18.856  0.00  0.00    +0.000 A 
BRANCH   5   8
ATOM      8  O   UNL     1      -4.108  10.316  15.819  0.00  0.00    +0.000 OA
ATOM      9  C   UNL     1      -3.510  10.166  14.539  0.00  0.00    +0.000 C 
ENDBRANCH   5   8
ENDBRANCH   1   2
BRANCH   1  10
ATOM     10  S   UNL     1      -0.528  12.870  20.748  0.00  0.00    +0.000 S 
ATOM     11  O   UNL     1       0.643  12.988  21.593  0.00  0.00    +0.000 OA
ATOM     12  O   UNL     1      -0.964  13.996  19.947  0.00  0.00    +0.000 OA
BRANCH  10  13
ATOM     13  C   UNL     1      -1.844  12.622  21.855  0.00  0.00    +0.000 A 
ATOM     14  C   UNL     1      -1.941  11.634  22.871  0.00  0.00    +0.000 A 
ATOM     15  C   UNL     1      -1.047  10.507  23.239  0.00  0.00    +0.000 C 
ATOM     16  N   UNL     1      -3.051  11.797  23.605  0.00  0.00    +0.000 NA
ATOM     17  N   UNL     1      -3.646  12.881  23.089  0.00  0.00    +0.000 N 
ATOM     18  C   UNL     1      -4.843  13.382  23.728  0.00  0.00    +0.000 C 
ATOM     19  C   UNL     1      -3.006  13.382  21.984  0.00  0.00    +0.000 A 
ATOM     20  C   UNL     1      -3.522  14.530  21.195  0.00  0.00    +0.000 C 
ENDBRANCH  10  13
ENDBRANCH   1  10
BRANCH   1  21
ATOM     21  C   UNL     1       0.983  10.834  19.715  0.00  0.00    +0.000 C 
BRANCH  21  23
ATOM     22  N   UNL     1       1.924   8.579  19.385  0.00  0.00    +0.000 N 
ATOM     23  C   UNL     1       0.960   9.343  20.045  0.00  0.00    +0.000 C 
ATOM     24  O   UNL     1       0.139   8.913  20.852  0.00  0.00    +0.000 OA
ATOM     25  H   UNL     1       2.647   9.070  18.873  0.00  0.00    +0.000 HD
BRANCH  22  29
ATOM     26  C   UNL     1       2.421   4.366  19.587  0.00  0.00    +0.000 A 
ATOM     27  C   UNL     1       1.996   5.077  20.706  0.00  0.00    +0.000 A 
ATOM     28  C   UNL     1       1.806   6.463  20.652  0.00  0.00    +0.000 A 
ATOM     29  C   UNL     1       2.060   7.170  19.478  0.00  0.00    +0.000 A 
ATOM     30  C   UNL     1       2.465   6.450  18.344  0.00  0.00    +0.000 A 
ATOM     31  C   UNL     1       2.658   5.059  18.401  0.00  0.00    +0.000 A 
BRANCH  26  33
ATOM     32  C   UNL     1       2.496   2.574  21.137  0.00  0.00    +0.000 C 
ATOM     33  O   UNL     1       2.597   3.027  19.795  0.00  0.00    +0.000 OA
ENDBRANCH  26  33
ENDBRANCH  22  29
ENDBRANCH  21  23
ENDBRANCH   1  21
TORSDOF 8
ENDMDL
MODEL 7
REMARK VINA RESULT:      -7.1      7.159     10.751
REMARK  Name = 
REMARK  13 active torsions:
REMARK  status: ('A' for Active; 'I' for Inactive)
REMARK    1  A    between atoms: C_1  and  O_2
REMARK    2  A    between atoms: O_2  and  C_3
REMARK    3  A    between atoms: C_6  and  N_7
REMARK    4  A    between atoms: C_8  and  C_10
REMARK    5  A    between atoms: C_10  and  N_11
REMARK    6  A    between atoms: N_11  and  C_12
REMARK    7  A    between atoms: N_11  and  S_20
REMARK    8  A    between atoms: C_15  and  O_16
REMARK    9  A    between atoms: O_16  and  C_17
REMARK   10  A    between atoms: S_20  and  C_23
REMARK   11  A    between atoms: C_24  and  C_25
REMARK   12  A    between atoms: N_27  and  C_28
REMARK   13  A    between atoms: C_29  and  C_30
REMARK                            x       y       z     vdW  Elec       q    Type
REMARK                         _______ _______ _______ _____ _____    ______ ____
ROOT
ATOM      1  N   UNL     1      -0.115  11.511  20.532  0.00  0.00    +0.000 N 
ENDROOT
BRANCH   1   2
ATOM      2  C   UNL     1      -1.075  11.282  19.496  0.00  0.00    +0.000 A 
ATOM      3  C   UNL     1      -0.788  10.365  18.485  0.00  0.00    +0.000 A 
ATOM      4  C   UNL     1      -1.715  10.130  17.469  0.00  0.00    +0.000 A 
ATOM      5  C   UNL     1      -2.936  10.804  17.455  0.00  0.00    +0.000 A 
ATOM      6  C   UNL     1      -3.229  11.718  18.469  0.00  0.00    +0.000 A 
ATOM      7  C   UNL     1      -2.301  11.949  19.498  0.00  0.00    +0.000 A 
BRANCH   5   8
ATOM      8  O   UNL     1      -3.730  10.514  16.381  0.00  0.00    +0.000 OA
ATOM      9  C   UNL     1      -3.131  10.636  15.098  0.00  0.00    +0.000 C 
ENDBRANCH   5   8
ENDBRANCH   1   2
BRANCH   1  10
ATOM     10  S   UNL     1       1.059  12.701  20.288  0.00  0.00    +0.000 S 
ATOM     11  O   UNL     1       2.077  12.540  21.305  0.00  0.00    +0.000 OA
ATOM     12  O   UNL     1       1.429  12.747  18.888  0.00  0.00    +0.000 OA
BRANCH  10  13
ATOM     13  C   UNL     1       0.388  14.276  20.585  0.00  0.00    +0.000 A 
ATOM     14  C   UNL     1       0.622  15.466  19.846  0.00  0.00    +0.000 A 
ATOM     15  C   UNL     1       1.528  15.757  18.706  0.00  0.00    +0.000 C 
ATOM     16  N   UNL     1      -0.140  16.475  20.292  0.00  0.00    +0.000 NA
ATOM     17  N   UNL     1      -0.869  15.942  21.281  0.00  0.00    +0.000 N 
ATOM     18  C   UNL     1      -1.873  16.764  21.920  0.00  0.00    +0.000 C 
ATOM     19  C   UNL     1      -0.545  14.637  21.556  0.00  0.00    +0.000 A 
ATOM     20  C   UNL     1      -1.161  13.862  22.663  0.00  0.00    +0.000 C 
ENDBRANCH  10  13
ENDBRANCH   1  10
BRANCH   1  21
ATOM     21  C   UNL     1       0.047  10.541  21.632  0.00  0.00    +0.000 C 
BRANCH  21  23
ATOM     22  N   UNL     1       1.469   8.851  20.535  0.00  0.00    +0.000 N 
ATOM     23  C   UNL     1       0.266   9.092  21.200  0.00  0.00    +0.000 C 
ATOM     24  O   UNL     1      -0.587   8.246  21.462  0.00  0.00    +0.000 OA
ATOM     25  H   UNL     1       2.160   9.592  20.525  0.00  0.00    +0.000 HD
BRANCH  22  29
ATOM     26  C   UNL     1       2.573   5.074  18.940  0.00  0.00    +0.000 A 
ATOM     27  C   UNL     1       2.734   6.230  18.182  0.00  0.00    +0.000 A 
ATOM     28  C   UNL     1       2.395   7.486  18.699  0.00  0.00    +0.000 A 
ATOM     29  C   UNL     1       1.867   7.607  19.983  0.00  0.00    +0.000 A 
ATOM     30  C   UNL     1       1.727   6.444  20.756  0.00  0.00    +0.000 A 
ATOM     31  C   UNL     1       2.065   5.184  20.233  0.00  0.00    +0.000 A 
BRANCH  26  33
ATOM     32  C   UNL     1       2.130   2.770  18.598  0.00  0.00    +0.000 C 
ATOM     33  O   UNL     1       2.911   3.917  18.295  0.00  0.00    +0.000 OA
ENDBRANCH  26  33
ENDBRANCH  22  29
ENDBRANCH  21  23
ENDBRANCH   1  21
TORSDOF 8
ENDMDL
MODEL 8
REMARK VINA RESULT:      -7.0      7.110     11.372
REMARK  Name = 
REMARK  13 active torsions:
REMARK  status: ('A' for Active; 'I' for Inactive)
REMARK    1  A    between atoms: C_1  and  O_2
REMARK    2  A    between atoms: O_2  and  C_3
REMARK    3  A    between atoms: C_6  and  N_7
REMARK    4  A    between atoms: C_8  and  C_10
REMARK    5  A    between atoms: C_10  and  N_11
REMARK    6  A    between atoms: N_11  and  C_12
REMARK    7  A    between atoms: N_11  and  S_20
REMARK    8  A    between atoms: C_15  and  O_16
REMARK    9  A    between atoms: O_16  and  C_17
REMARK   10  A    between atoms: S_20  and  C_23
REMARK   11  A    between atoms: C_24  and  C_25
REMARK   12  A    between atoms: N_27  and  C_28
REMARK   13  A    between atoms: C_29  and  C_30
REMARK                            x       y       z     vdW  Elec       q    Type
REMARK                         _______ _______ _______ _____ _____    ______ ____
ROOT
ATOM      1  N   UNL     1       0.354  11.473  21.590  0.00  0.00    +0.000 N 
ENDROOT
BRANCH   1   2
ATOM      2  C   UNL     1      -0.679  12.114  22.343  0.00  0.00    +0.000 A 
ATOM      3  C   UNL     1      -1.780  11.371  22.770  0.00  0.00    +0.000 A 
ATOM      4  C   UNL     1      -2.794  11.982  23.506  0.00  0.00    +0.000 A 
ATOM      5  C   UNL     1      -2.720  13.336  23.828  0.00  0.00    +0.000 A 
ATOM      6  C   UNL     1      -1.616  14.083  23.408  0.00  0.00    +0.000 A 
ATOM      7  C   UNL     1      -0.588  13.467  22.674  0.00  0.00    +0.000 A 
BRANCH   5   8
ATOM      8  O   UNL     1      -3.800  13.817  24.513  0.00  0.00    +0.000 OA
ATOM      9  C   UNL     1      -4.400  15.000  24.002  0.00  0.00    +0.000 C 
ENDBRANCH   5   8
ENDBRANCH   1   2
BRANCH   1  10
ATOM     10  S   UNL     1       0.517  11.869  19.955  0.00  0.00    +0.000 S 
ATOM     11  O   UNL     1       0.554  13.312  19.846  0.00  0.00    +0.000 OA
ATOM     12  O   UNL     1       1.565  11.067  19.358  0.00  0.00    +0.000 OA
BRANCH  10  13
ATOM     13  C   UNL     1      -0.907  11.399  19.079  0.00  0.00    +0.000 A 
ATOM     14  C   UNL     1      -2.184  12.021  19.111  0.00  0.00    +0.000 A 
ATOM     15  C   UNL     1      -2.710  13.150  19.919  0.00  0.00    +0.000 C 
ATOM     16  N   UNL     1      -3.024  11.457  18.231  0.00  0.00    +0.000 NA
ATOM     17  N   UNL     1      -2.298  10.507  17.627  0.00  0.00    +0.000 N 
ATOM     18  C   UNL     1      -2.900   9.763  16.542  0.00  0.00    +0.000 C 
ATOM     19  C   UNL     1      -1.035  10.372  18.144  0.00  0.00    +0.000 A 
ATOM     20  C   UNL     1      -0.076   9.332  17.690  0.00  0.00    +0.000 C 
ENDBRANCH  10  13
ENDBRANCH   1  10
BRANCH   1  21
ATOM     21  C   UNL     1       1.048  10.286  22.126  0.00  0.00    +0.000 C 
BRANCH  21  23
ATOM     22  N   UNL     1       1.928   8.275  21.004  0.00  0.00    +0.000 N 
ATOM     23  C   UNL     1       0.784   8.982  21.377  0.00  0.00    +0.000 C 
ATOM     24  O   UNL     1      -0.374   8.629  21.163  0.00  0.00    +0.000 OA
ATOM     25  H   UNL     1       2.817   8.583  21.380  0.00  0.00    +0.000 HD
BRANCH  22  29
ATOM     26  C   UNL     1       2.067   4.722  18.682  0.00  0.00    +0.000 A 
ATOM     27  C   UNL     1       1.621   4.682  20.001  0.00  0.00    +0.000 A 
ATOM     28  C   UNL     1       1.548   5.847  20.775  0.00  0.00    +0.000 A 
ATOM     29  C   UNL     1       1.942   7.075  20.248  0.00  0.00    +0.000 A 
ATOM     30  C   UNL     1       2.369   7.119  18.912  0.00  0.00    +0.000 A 
ATOM     31  C   UNL     1       2.444   5.948  18.138  0.00  0.00    +0.000 A 
BRANCH  26  33
ATOM     32  C   UNL     1       1.265   2.494  18.573  0.00  0.00    +0.000 C 
ATOM     33  O   UNL     1       2.119   3.506  18.061  0.00  0.00    +0.000 OA
ENDBRANCH  26  33
ENDBRANCH  22  29
ENDBRANCH  21  23
ENDBRANCH   1  21
TORSDOF 8
ENDMDL
MODEL 9
REMARK VINA RESULT:      -7.0      6.873     10.542
REMARK  Name = 
REMARK  13 active torsions:
REMARK  status: ('A' for Active; 'I' for Inactive)
REMARK    1  A    between atoms: C_1  and  O_2
REMARK    2  A    between atoms: O_2  and  C_3
REMARK    3  A    between atoms: C_6  and  N_7
REMARK    4  A    between atoms: C_8  and  C_10
REMARK    5  A    between atoms: C_10  and  N_11
REMARK    6  A    between atoms: N_11  and  C_12
REMARK    7  A    between atoms: N_11  and  S_20
REMARK    8  A    between atoms: C_15  and  O_16
REMARK    9  A    between atoms: O_16  and  C_17
REMARK   10  A    between atoms: S_20  and  C_23
REMARK   11  A    between atoms: C_24  and  C_25
REMARK   12  A    between atoms: N_27  and  C_28
REMARK   13  A    between atoms: C_29  and  C_30
REMARK                            x       y       z     vdW  Elec       q    Type
REMARK                         _______ _______ _______ _____ _____    ______ ____
ROOT
ATOM      1  N   UNL     1       0.071  10.763  19.509  0.00  0.00    +0.000 N 
ENDROOT
BRANCH   1   2
ATOM      2  C   UNL     1      -1.210  10.916  18.889  0.00  0.00    +0.000 A 
ATOM      3  C   UNL     1      -1.615  10.001  17.917  0.00  0.00    +0.000 A 
ATOM      4  C   UNL     1      -2.862  10.137  17.305  0.00  0.00    +0.000 A 
ATOM      5  C   UNL     1      -3.716  11.180  17.660  0.00  0.00    +0.000 A 
ATOM      6  C   UNL     1      -3.316  12.094  18.638  0.00  0.00    +0.000 A 
ATOM      7  C   UNL     1      -2.065  11.954  19.262  0.00  0.00    +0.000 A 
BRANCH   5   8
ATOM      8  O   UNL     1      -4.884  11.222  16.952  0.00  0.00    +0.000 OA
ATOM      9  C   UNL     1      -5.770  12.292  17.253  0.00  0.00    +0.000 C 
ENDBRANCH   5   8
ENDBRANCH   1   2
BRANCH   1  10
ATOM     10  S   UNL     1       0.211  11.115  21.156  0.00  0.00    +0.000 S 
ATOM     11  O   UNL     1      -1.008  10.688  21.810  0.00  0.00    +0.000 OA
ATOM     12  O   UNL     1       1.497  10.664  21.646  0.00  0.00    +0.000 OA
BRANCH  10  13
ATOM     13  C   UNL     1       0.260  12.834  21.400  0.00  0.00    +0.000 A 
ATOM     14  C   UNL     1       1.101  13.774  20.746  0.00  0.00    +0.000 A 
ATOM     15  C   UNL     1       2.204  13.597  19.768  0.00  0.00    +0.000 C 
ATOM     16  N   UNL     1       0.800  15.030  21.105  0.00  0.00    +0.000 NA
ATOM     17  N   UNL     1      -0.230  14.906  21.953  0.00  0.00    +0.000 N 
ATOM     18  C   UNL     1      -0.857  16.108  22.460  0.00  0.00    +0.000 C 
ATOM     19  C   UNL     1      -0.555  13.603  22.230  0.00  0.00    +0.000 A 
ATOM     20  C   UNL     1      -1.609  13.216  23.203  0.00  0.00    +0.000 C 
ENDBRANCH  10  13
ENDBRANCH   1  10
BRANCH   1  21
ATOM     21  C   UNL     1       1.288  10.611  18.689  0.00  0.00    +0.000 C 
BRANCH  21  23
ATOM     22  N   UNL     1       1.674   8.333  19.549  0.00  0.00    +0.000 N 
ATOM     23  C   UNL     1       1.728   9.171  18.434  0.00  0.00    +0.000 C 
ATOM     24  O   UNL     1       2.078   8.835  17.305  0.00  0.00    +0.000 OA
ATOM     25  H   UNL     1       1.214   8.683  20.381  0.00  0.00    +0.000 HD
BRANCH  22  29
ATOM     26  C   UNL     1       2.816   4.245  19.681  0.00  0.00    +0.000 A 
ATOM     27  C   UNL     1       3.285   5.072  18.665  0.00  0.00    +0.000 A 
ATOM     28  C   UNL     1       2.937   6.427  18.617  0.00  0.00    +0.000 A 
ATOM     29  C   UNL     1       2.090   6.977  19.578  0.00  0.00    +0.000 A 
ATOM     30  C   UNL     1       1.637   6.149  20.616  0.00  0.00    +0.000 A 
ATOM     31  C   UNL     1       1.985   4.788  20.660  0.00  0.00    +0.000 A 
BRANCH  26  33
ATOM     32  C   UNL     1       4.594   2.679  19.742  0.00  0.00    +0.000 C 
ATOM     33  O   UNL     1       3.208   2.939  19.581  0.00  0.00    +0.000 OA
ENDBRANCH  26  33
ENDBRANCH  22  29
ENDBRANCH  21  23
ENDBRANCH   1  21
TORSDOF 8
ENDMDL
