MODEL 1
REMARK VINA RESULT:      -7.8      0.000      0.000
REMARK  Name = 
REMARK  4 active torsions:
REMARK  status: ('A' for Active; 'I' for Inactive)
REMARK    1  A    between atoms: C_1  and  C_2
REMARK    2  A    between atoms: C_4  and  C_5
REMARK    3  A    between atoms: C_13  and  C_14
REMARK    4  A    between atoms: C_17  and  C_18
REMARK                            x       y       z     vdW  Elec       q    Type
REMARK                         _______ _______ _______ _____ _____    ______ ____
ROOT
ATOM      1  C   UNL     1       8.261   5.848  19.367  0.00  0.00    +0.000 C 
ATOM      2  C   UNL     1       6.992   5.580  18.619  0.00  0.00    +0.000 A 
ATOM      3  C   UNL     1       6.842   5.938  17.282  0.00  0.00    +0.000 A 
ATOM      4  C   UNL     1       5.617   5.721  16.659  0.00  0.00    +0.000 A 
ATOM      5  C   UNL     1       5.447   6.008  15.196  0.00  0.00    +0.000 C 
ATOM      6  N   UNL     1       4.542   5.212  17.310  0.00  0.00    +0.000 NA
ATOM      7  C   UNL     1       4.709   4.817  18.594  0.00  0.00    +0.000 A 
ATOM      8  N   UNL     1       3.599   4.272  19.273  0.00  0.00    +0.000 N 
ATOM      9  C   UNL     1       3.705   3.081  19.980  0.00  0.00    +0.000 C 
ATOM     10  O   UNL     1       4.742   2.468  20.221  0.00  0.00    +0.000 OA
ATOM     11  C   UNL     1       2.357   2.537  20.394  0.00  0.00    +0.000 C 
ATOM     12  S   UNL     1       1.128   3.790  20.003  0.00  0.00    +0.000 S 
ATOM     13  C   UNL     1       2.268   4.715  18.927  0.00  0.00    +0.000 C 
ATOM     14  C   UNL     1       5.915   4.976  19.269  0.00  0.00    +0.000 A 
ENDROOT
BRANCH  13  15
ATOM     15  C   UNL     1       2.071   6.220  19.075  0.00  0.00    +0.000 A 
ATOM     16  C   UNL     1       2.066   7.093  17.968  0.00  0.00    +0.000 A 
ATOM     17  C   UNL     1       1.797   8.455  18.132  0.00  0.00    +0.000 A 
ATOM     18  C   UNL     1       1.513   8.967  19.403  0.00  0.00    +0.000 A 
ATOM     19  C   UNL     1       1.535   8.121  20.510  0.00  0.00    +0.000 A 
ATOM     20  C   UNL     1       1.810   6.755  20.345  0.00  0.00    +0.000 A 
BRANCH  18  21
ATOM     21  C   UNL     1       1.191  10.357  19.566  0.00  0.00    +0.000 C 
ATOM     22  N   UNL     1       0.949  11.483  19.702  0.00  0.00    +0.000 NA
ENDBRANCH  18  21
ENDBRANCH  13  15
TORSDOF 2
ENDMDL
MODEL 2
REMARK VINA RESULT:      -7.4      0.328      1.077
REMARK  Name = 
REMARK  4 active torsions:
REMARK  status: ('A' for Active; 'I' for Inactive)
REMARK    1  A    between atoms: C_1  and  C_2
REMARK    2  A    between atoms: C_4  and  C_5
REMARK    3  A    between atoms: C_13  and  C_14
REMARK    4  A    between atoms: C_17  and  C_18
REMARK                            x       y       z     vdW  Elec       q    Type
REMARK                         _______ _______ _______ _____ _____    ______ ____
ROOT
ATOM      1  C   UNL     1       8.215   5.928  19.337  0.00  0.00    +0.000 C 
ATOM      2  C   UNL     1       6.973   5.573  18.580  0.00  0.00    +0.000 A 
ATOM      3  C   UNL     1       6.833   5.866  17.226  0.00  0.00    +0.000 A 
ATOM      4  C   UNL     1       5.629   5.570  16.593  0.00  0.00    +0.000 A 
ATOM      5  C   UNL     1       5.475   5.786  15.116  0.00  0.00    +0.000 C 
ATOM      6  N   UNL     1       4.565   5.044  17.248  0.00  0.00    +0.000 NA
ATOM      7  C   UNL     1       4.725   4.714  18.551  0.00  0.00    +0.000 A 
ATOM      8  N   UNL     1       3.626   4.151  19.235  0.00  0.00    +0.000 N 
ATOM      9  C   UNL     1       3.768   2.998  19.995  0.00  0.00    +0.000 C 
ATOM     10  O   UNL     1       4.826   2.441  20.281  0.00  0.00    +0.000 OA
ATOM     11  C   UNL     1       2.437   2.416  20.411  0.00  0.00    +0.000 C 
ATOM     12  S   UNL     1       1.164   3.597  19.944  0.00  0.00    +0.000 S 
ATOM     13  C   UNL     1       2.285   4.522  18.848  0.00  0.00    +0.000 C 
ATOM     14  C   UNL     1       5.910   4.953  19.238  0.00  0.00    +0.000 A 
ENDROOT
BRANCH  13  15
ATOM     15  C   UNL     1       2.022   6.022  18.925  0.00  0.00    +0.000 A 
ATOM     16  C   UNL     1       1.877   6.702  20.151  0.00  0.00    +0.000 A 
ATOM     17  C   UNL     1       1.723   8.091  20.186  0.00  0.00    +0.000 A 
ATOM     18  C   UNL     1       1.726   8.828  18.996  0.00  0.00    +0.000 A 
ATOM     19  C   UNL     1       1.847   8.169  17.774  0.00  0.00    +0.000 A 
ATOM     20  C   UNL     1       1.997   6.774  17.741  0.00  0.00    +0.000 A 
BRANCH  18  21
ATOM     21  C   UNL     1       1.614  10.259  19.034  0.00  0.00    +0.000 C 
ATOM     22  N   UNL     1       1.513  11.414  19.049  0.00  0.00    +0.000 NA
ENDBRANCH  18  21
ENDBRANCH  13  15
TORSDOF 2
ENDMDL
MODEL 3
REMARK VINA RESULT:      -6.3      8.324     10.148
REMARK  Name = 
REMARK  4 active torsions:
REMARK  status: ('A' for Active; 'I' for Inactive)
REMARK    1  A    between atoms: C_1  and  C_2
REMARK    2  A    between atoms: C_4  and  C_5
REMARK    3  A    between atoms: C_13  and  C_14
REMARK    4  A    between atoms: C_17  and  C_18
REMARK                            x       y       z     vdW  Elec       q    Type
REMARK                         _______ _______ _______ _____ _____    ______ ____
ROOT
ATOM      1  C   UNL     1       8.963   9.364  18.590  0.00  0.00    +0.000 C 
ATOM      2  C   UNL     1       9.207  10.700  19.221  0.00  0.00    +0.000 A 
ATOM      3  C   UNL     1       9.066  10.897  20.592  0.00  0.00    +0.000 A 
ATOM      4  C   UNL     1       9.243  12.176  21.112  0.00  0.00    +0.000 A 
ATOM      5  C   UNL     1       9.191  12.409  22.593  0.00  0.00    +0.000 C 
ATOM      6  N   UNL     1       9.508  13.254  20.333  0.00  0.00    +0.000 NA
ATOM      7  C   UNL     1       9.696  13.047  19.008  0.00  0.00    +0.000 A 
ATOM      8  N   UNL     1       9.987  14.162  18.195  0.00  0.00    +0.000 N 
ATOM      9  C   UNL     1      11.046  14.137  17.295  0.00  0.00    +0.000 C 
ATOM     10  O   UNL     1      11.723  13.157  16.997  0.00  0.00    +0.000 OA
ATOM     11  C   UNL     1      11.353  15.505  16.731  0.00  0.00    +0.000 C 
ATOM     12  S   UNL     1      10.052  16.619  17.280  0.00  0.00    +0.000 S 
ATOM     13  C   UNL     1       9.459  15.459  18.552  0.00  0.00    +0.000 C 
ATOM     14  C   UNL     1       9.564  11.791  18.427  0.00  0.00    +0.000 A 
ENDROOT
BRANCH  13  15
ATOM     15  C   UNL     1       7.939  15.487  18.663  0.00  0.00    +0.000 A 
ATOM     16  C   UNL     1       7.100  14.902  17.693  0.00  0.00    +0.000 A 
ATOM     17  C   UNL     1       5.713  14.871  17.870  0.00  0.00    +0.000 A 
ATOM     18  C   UNL     1       5.142  15.411  19.028  0.00  0.00    +0.000 A 
ATOM     19  C   UNL     1       5.955  16.013  19.986  0.00  0.00    +0.000 A 
ATOM     20  C   UNL     1       7.346  16.046  19.804  0.00  0.00    +0.000 A 
BRANCH  18  21
ATOM     21  C   UNL     1       3.722  15.340  19.231  0.00  0.00    +0.000 C 
ATOM     22  N   UNL     1       2.578  15.280  19.414  0.00  0.00    +0.000 NA
ENDBRANCH  18  21
ENDBRANCH  13  15
TORSDOF 2
ENDMDL
MODEL 4
REMARK VINA RESULT:      -6.2      8.535     10.389
REMARK  Name = 
REMARK  4 active torsions:
REMARK  status: ('A' for Active; 'I' for Inactive)
REMARK    1  A    between atoms: C_1  and  C_2
REMARK    2  A    between atoms: C_4  and  C_5
REMARK    3  A    between atoms: C_13  and  C_14
REMARK    4  A    between atoms: C_17  and  C_18
REMARK                            x       y       z     vdW  Elec       q    Type
REMARK                         _______ _______ _______ _____ _____    ______ ____
ROOT
ATOM      1  C   UNL     1       8.958   9.489  18.504  0.00  0.00    +0.000 C 
ATOM      2  C   UNL     1       9.240  10.813  19.146  0.00  0.00    +0.000 A 
ATOM      3  C   UNL     1       9.099  11.004  20.518  0.00  0.00    +0.000 A 
ATOM      4  C   UNL     1       9.313  12.273  21.048  0.00  0.00    +0.000 A 
ATOM      5  C   UNL     1       9.262  12.497  22.530  0.00  0.00    +0.000 C 
ATOM      6  N   UNL     1       9.613  13.348  20.277  0.00  0.00    +0.000 NA
ATOM      7  C   UNL     1       9.799  13.145  18.952  0.00  0.00    +0.000 A 
ATOM      8  N   UNL     1      10.127  14.257  18.148  0.00  0.00    +0.000 N 
ATOM      9  C   UNL     1      11.187  14.207  17.252  0.00  0.00    +0.000 C 
ATOM     10  O   UNL     1      11.836  13.209  16.949  0.00  0.00    +0.000 OA
ATOM     11  C   UNL     1      11.538  15.569  16.699  0.00  0.00    +0.000 C 
ATOM     12  S   UNL     1      10.268  16.717  17.252  0.00  0.00    +0.000 S 
ATOM     13  C   UNL     1       9.637  15.566  18.513  0.00  0.00    +0.000 C 
ATOM     14  C   UNL     1       9.632  11.898  18.362  0.00  0.00    +0.000 A 
ENDROOT
BRANCH  13  15
ATOM     15  C   UNL     1       8.118  15.639  18.619  0.00  0.00    +0.000 A 
ATOM     16  C   UNL     1       7.461  16.584  19.432  0.00  0.00    +0.000 A 
ATOM     17  C   UNL     1       6.066  16.678  19.439  0.00  0.00    +0.000 A 
ATOM     18  C   UNL     1       5.303  15.839  18.619  0.00  0.00    +0.000 A 
ATOM     19  C   UNL     1       5.935  14.885  17.825  0.00  0.00    +0.000 A 
ATOM     20  C   UNL     1       7.335  14.789  17.823  0.00  0.00    +0.000 A 
BRANCH  18  21
ATOM     21  C   UNL     1       3.872  15.966  18.591  0.00  0.00    +0.000 C 
ATOM     22  N   UNL     1       2.718  16.076  18.551  0.00  0.00    +0.000 NA
ENDBRANCH  18  21
ENDBRANCH  13  15
TORSDOF 2
ENDMDL
MODEL 5
REMARK VINA RESULT:      -6.2      6.103      8.922
REMARK  Name = 
REMARK  4 active torsions:
REMARK  status: ('A' for Active; 'I' for Inactive)
REMARK    1  A    between atoms: C_1  and  C_2
REMARK    2  A    between atoms: C_4  and  C_5
REMARK    3  A    between atoms: C_13  and  C_14
REMARK    4  A    between atoms: C_17  and  C_18
REMARK                            x       y       z     vdW  Elec       q    Type
REMARK                         _______ _______ _______ _____ _____    ______ ____
ROOT
ATOM      1  C   UNL     1      -3.971  12.438  24.259  0.00  0.00    +0.000 C 
ATOM      2  C   UNL     1      -2.740  12.652  23.434  0.00  0.00    +0.000 A 
ATOM      3  C   UNL     1      -2.371  13.919  22.988  0.00  0.00    +0.000 A 
ATOM      4  C   UNL     1      -1.251  14.046  22.170  0.00  0.00    +0.000 A 
ATOM      5  C   UNL     1      -0.769  15.402  21.748  0.00  0.00    +0.000 C 
ATOM      6  N   UNL     1      -0.524  12.981  21.751  0.00  0.00    +0.000 NA
ATOM      7  C   UNL     1      -0.857  11.760  22.230  0.00  0.00    +0.000 A 
ATOM      8  N   UNL     1      -0.095  10.649  21.809  0.00  0.00    +0.000 N 
ATOM      9  C   UNL     1       0.401   9.731  22.726  0.00  0.00    +0.000 C 
ATOM     10  O   UNL     1       0.130   9.681  23.923  0.00  0.00    +0.000 OA
ATOM     11  C   UNL     1       1.407   8.788  22.108  0.00  0.00    +0.000 C 
ATOM     12  S   UNL     1       1.397   9.079  20.333  0.00  0.00    +0.000 S 
ATOM     13  C   UNL     1       0.508  10.659  20.497  0.00  0.00    +0.000 C 
ATOM     14  C   UNL     1      -1.944  11.564  23.074  0.00  0.00    +0.000 A 
ENDROOT
BRANCH  13  15
ATOM     15  C   UNL     1      -0.497  10.849  19.366  0.00  0.00    +0.000 A 
ATOM     16  C   UNL     1      -0.573  12.038  18.614  0.00  0.00    +0.000 A 
ATOM     17  C   UNL     1      -1.448  12.145  17.529  0.00  0.00    +0.000 A 
ATOM     18  C   UNL     1      -2.253  11.059  17.167  0.00  0.00    +0.000 A 
ATOM     19  C   UNL     1      -2.206   9.883  17.914  0.00  0.00    +0.000 A 
ATOM     20  C   UNL     1      -1.330   9.779  19.005  0.00  0.00    +0.000 A 
BRANCH  18  21
ATOM     21  C   UNL     1      -3.119  11.152  16.026  0.00  0.00    +0.000 C 
ATOM     22  N   UNL     1      -3.809  11.242  15.098  0.00  0.00    +0.000 NA
ENDBRANCH  18  21
ENDBRANCH  13  15
TORSDOF 2
ENDMDL
MODEL 6
REMARK VINA RESULT:      -6.1      5.455      8.355
REMARK  Name = 
REMARK  4 active torsions:
REMARK  status: ('A' for Active; 'I' for Inactive)
REMARK    1  A    between atoms: C_1  and  C_2
REMARK    2  A    between atoms: C_4  and  C_5
REMARK    3  A    between atoms: C_13  and  C_14
REMARK    4  A    between atoms: C_17  and  C_18
REMARK                            x       y       z     vdW  Elec       q    Type
REMARK                         _______ _______ _______ _____ _____    ______ ____
ROOT
ATOM      1  C   UNL     1       2.066   8.126  17.849  0.00  0.00    +0.000 C 
ATOM      2  C   UNL     1       1.612   9.098  18.894  0.00  0.00    +0.000 A 
ATOM      3  C   UNL     1       1.267   8.682  20.177  0.00  0.00    +0.000 A 
ATOM      4  C   UNL     1       0.791   9.623  21.086  0.00  0.00    +0.000 A 
ATOM      5  C   UNL     1       0.498   9.229  22.504  0.00  0.00    +0.000 C 
ATOM      6  N   UNL     1       0.607  10.927  20.763  0.00  0.00    +0.000 NA
ATOM      7  C   UNL     1       0.993  11.335  19.532  0.00  0.00    +0.000 A 
ATOM      8  N   UNL     1       0.819  12.694  19.195  0.00  0.00    +0.000 N 
ATOM      9  C   UNL     1       1.851  13.431  18.631  0.00  0.00    +0.000 C 
ATOM     10  O   UNL     1       2.927  12.989  18.233  0.00  0.00    +0.000 OA
ATOM     11  C   UNL     1       1.552  14.912  18.604  0.00  0.00    +0.000 C 
ATOM     12  S   UNL     1      -0.159  15.125  19.113  0.00  0.00    +0.000 S 
ATOM     13  C   UNL     1      -0.274  13.435  19.781  0.00  0.00    +0.000 C 
ATOM     14  C   UNL     1       1.505  10.455  18.585  0.00  0.00    +0.000 A 
ENDROOT
BRANCH  13  15
ATOM     15  C   UNL     1      -1.642  12.822  19.504  0.00  0.00    +0.000 A 
ATOM     16  C   UNL     1      -2.744  13.012  20.363  0.00  0.00    +0.000 A 
ATOM     17  C   UNL     1      -4.005  12.507  20.034  0.00  0.00    +0.000 A 
ATOM     18  C   UNL     1      -4.191  11.814  18.832  0.00  0.00    +0.000 A 
ATOM     19  C   UNL     1      -3.108  11.598  17.983  0.00  0.00    +0.000 A 
ATOM     20  C   UNL     1      -1.843  12.103  18.317  0.00  0.00    +0.000 A 
BRANCH  18  21
ATOM     21  C   UNL     1      -5.496  11.334  18.472  0.00  0.00    +0.000 C 
ATOM     22  N   UNL     1      -6.545  10.930  18.187  0.00  0.00    +0.000 NA
ENDBRANCH  18  21
ENDBRANCH  13  15
TORSDOF 2
ENDMDL
MODEL 7
REMARK VINA RESULT:      -6.0      8.914     11.941
REMARK  Name = 
REMARK  4 active torsions:
REMARK  status: ('A' for Active; 'I' for Inactive)
REMARK    1  A    between atoms: C_1  and  C_2
REMARK    2  A    between atoms: C_4  and  C_5
REMARK    3  A    between atoms: C_13  and  C_14
REMARK    4  A    between atoms: C_17  and  C_18
REMARK                            x       y       z     vdW  Elec       q    Type
REMARK                         _______ _______ _______ _____ _____    ______ ____
ROOT
ATOM      1  C   UNL     1      -7.749   9.407  20.055  0.00  0.00    +0.000 C 
ATOM      2  C   UNL     1      -6.791  10.497  19.685  0.00  0.00    +0.000 A 
ATOM      3  C   UNL     1      -5.944  10.383  18.586  0.00  0.00    +0.000 A 
ATOM      4  C   UNL     1      -5.030  11.401  18.330  0.00  0.00    +0.000 A 
ATOM      5  C   UNL     1      -4.167  11.358  17.104  0.00  0.00    +0.000 C 
ATOM      6  N   UNL     1      -4.898  12.486  19.133  0.00  0.00    +0.000 NA
ATOM      7  C   UNL     1      -5.758  12.616  20.169  0.00  0.00    +0.000 A 
ATOM      8  N   UNL     1      -5.636  13.751  20.999  0.00  0.00    +0.000 N 
ATOM      9  C   UNL     1      -6.743  14.522  21.328  0.00  0.00    +0.000 C 
ATOM     10  O   UNL     1      -7.917  14.249  21.087  0.00  0.00    +0.000 OA
ATOM     11  C   UNL     1      -6.359  15.827  21.987  0.00  0.00    +0.000 C 
ATOM     12  S   UNL     1      -4.590  15.770  22.304  0.00  0.00    +0.000 S 
ATOM     13  C   UNL     1      -4.336  14.351  21.192  0.00  0.00    +0.000 C 
ATOM     14  C   UNL     1      -6.716  11.652  20.464  0.00  0.00    +0.000 A 
ENDROOT
BRANCH  13  15
ATOM     15  C   UNL     1      -3.297  13.386  21.753  0.00  0.00    +0.000 A 
ATOM     16  C   UNL     1      -3.428  12.791  23.024  0.00  0.00    +0.000 A 
ATOM     17  C   UNL     1      -2.500  11.845  23.471  0.00  0.00    +0.000 A 
ATOM     18  C   UNL     1      -1.434  11.466  22.648  0.00  0.00    +0.000 A 
ATOM     19  C   UNL     1      -1.278  12.060  21.397  0.00  0.00    +0.000 A 
ATOM     20  C   UNL     1      -2.208  13.012  20.953  0.00  0.00    +0.000 A 
BRANCH  18  21
ATOM     21  C   UNL     1      -0.506  10.461  23.087  0.00  0.00    +0.000 C 
ATOM     22  N   UNL     1       0.228   9.640  23.450  0.00  0.00    +0.000 NA
ENDBRANCH  18  21
ENDBRANCH  13  15
TORSDOF 2
ENDMDL
MODEL 8
REMARK VINA RESULT:      -6.0      5.486      8.326
REMARK  Name = 
REMARK  4 active torsions:
REMARK  status: ('A' for Active; 'I' for Inactive)
REMARK    1  A    between atoms: C_1  and  C_2
REMARK    2  A    between atoms: C_4  and  C_5
REMARK    3  A    between atoms: C_13  and  C_14
REMARK    4  A    between atoms: C_17  and  C_18
REMARK                            x       y       z     vdW  Elec       q    Type
REMARK                         _______ _______ _______ _____ _____    ______ ____
ROOT
ATOM      1  C   UNL     1       2.064   8.173  17.855  0.00  0.00    +0.000 C 
ATOM      2  C   UNL     1       1.576   9.145  18.885  0.00  0.00    +0.000 A 
ATOM      3  C   UNL     1       1.148   8.724  20.141  0.00  0.00    +0.000 A 
ATOM      4  C   UNL     1       0.644   9.667  21.033  0.00  0.00    +0.000 A 
ATOM      5  C   UNL     1       0.261   9.266  22.427  0.00  0.00    +0.000 C 
ATOM      6  N   UNL     1       0.511  10.978  20.716  0.00  0.00    +0.000 NA
ATOM      7  C   UNL     1       0.976  11.389  19.513  0.00  0.00    +0.000 A 
ATOM      8  N   UNL     1       0.854  12.755  19.183  0.00  0.00    +0.000 N 
ATOM      9  C   UNL     1       1.935  13.473  18.686  0.00  0.00    +0.000 C 
ATOM     10  O   UNL     1       3.020  13.008  18.345  0.00  0.00    +0.000 OA
ATOM     11  C   UNL     1       1.674  14.961  18.660  0.00  0.00    +0.000 C 
ATOM     12  S   UNL     1      -0.058  15.211  19.075  0.00  0.00    +0.000 S 
ATOM     13  C   UNL     1      -0.252  13.518  19.715  0.00  0.00    +0.000 C 
ATOM     14  C   UNL     1       1.519  10.506  18.586  0.00  0.00    +0.000 A 
ENDROOT
BRANCH  13  15
ATOM     15  C   UNL     1      -1.617  12.942  19.354  0.00  0.00    +0.000 A 
ATOM     16  C   UNL     1      -1.825  12.157  18.202  0.00  0.00    +0.000 A 
ATOM     17  C   UNL     1      -3.070  11.574  17.947  0.00  0.00    +0.000 A 
ATOM     18  C   UNL     1      -4.126  11.752  18.850  0.00  0.00    +0.000 A 
ATOM     19  C   UNL     1      -3.942  12.542  19.982  0.00  0.00    +0.000 A 
ATOM     20  C   UNL     1      -2.693  13.130  20.233  0.00  0.00    +0.000 A 
BRANCH  18  21
ATOM     21  C   UNL     1      -5.391  11.116  18.612  0.00  0.00    +0.000 C 
ATOM     22  N   UNL     1      -6.410  10.591  18.435  0.00  0.00    +0.000 NA
ENDBRANCH  18  21
ENDBRANCH  13  15
TORSDOF 2
ENDMDL
MODEL 9
REMARK VINA RESULT:      -5.9      5.160      9.149
REMARK  Name = 
REMARK  4 active torsions:
REMARK  status: ('A' for Active; 'I' for Inactive)
REMARK    1  A    between atoms: C_1  and  C_2
REMARK    2  A    between atoms: C_4  and  C_5
REMARK    3  A    between atoms: C_13  and  C_14
REMARK    4  A    between atoms: C_17  and  C_18
REMARK                            x       y       z     vdW  Elec       q    Type
REMARK                         _______ _______ _______ _____ _____    ______ ____
ROOT
ATOM      1  C   UNL     1      -4.966  11.898  20.032  0.00  0.00    +0.000 C 
ATOM      2  C   UNL     1      -3.786  11.930  19.111  0.00  0.00    +0.000 A 
ATOM      3  C   UNL     1      -3.828  11.344  17.849  0.00  0.00    +0.000 A 
ATOM      4  C   UNL     1      -2.679  11.350  17.063  0.00  0.00    +0.000 A 
ATOM      5  C   UNL     1      -2.712  10.812  15.663  0.00  0.00    +0.000 C 
ATOM      6  N   UNL     1      -1.500  11.866  17.492  0.00  0.00    +0.000 NA
ATOM      7  C   UNL     1      -1.479  12.480  18.698  0.00  0.00    +0.000 A 
ATOM      8  N   UNL     1      -0.260  13.032  19.143  0.00  0.00    +0.000 N 
ATOM      9  C   UNL     1      -0.198  14.328  19.639  0.00  0.00    +0.000 C 
ATOM     10  O   UNL     1      -1.155  15.059  19.885  0.00  0.00    +0.000 OA
ATOM     11  C   UNL     1       1.224  14.815  19.798  0.00  0.00    +0.000 C 
ATOM     12  S   UNL     1       2.310  13.414  19.496  0.00  0.00    +0.000 S 
ATOM     13  C   UNL     1       0.985  12.426  18.733  0.00  0.00    +0.000 C 
ATOM     14  C   UNL     1      -2.599  12.538  19.521  0.00  0.00    +0.000 A 
ENDROOT
BRANCH  13  15
ATOM     15  C   UNL     1       1.101  10.955  19.116  0.00  0.00    +0.000 A 
ATOM     16  C   UNL     1       1.564   9.973  18.217  0.00  0.00    +0.000 A 
ATOM     17  C   UNL     1       1.738   8.648  18.629  0.00  0.00    +0.000 A 
ATOM     18  C   UNL     1       1.467   8.285  19.954  0.00  0.00    +0.000 A 
ATOM     19  C   UNL     1       0.988   9.238  20.849  0.00  0.00    +0.000 A 
ATOM     20  C   UNL     1       0.810  10.566  20.433  0.00  0.00    +0.000 A 
BRANCH  18  21
ATOM     21  C   UNL     1       1.689   6.934  20.390  0.00  0.00    +0.000 C 
ATOM     22  N   UNL     1       1.867   5.838  20.724  0.00  0.00    +0.000 NA
ENDBRANCH  18  21
ENDBRANCH  13  15
TORSDOF 2
ENDMDL
