MODEL 1
REMARK VINA RESULT:      -8.6      0.000      0.000
REMARK  Name = 
REMARK  1 active torsions:
REMARK  status: ('A' for Active; 'I' for Inactive)
REMARK    1  A    between atoms: C_9  and  O_10
REMARK                            x       y       z     vdW  Elec       q    Type
REMARK                         _______ _______ _______ _____ _____    ______ ____
ROOT
ATOM      1  O   UNL     1       2.412   2.972  16.936  0.00  0.00    +0.000 OA
ATOM      2  C   UNL     1       3.095   3.824  17.474  0.00  0.00    +0.000 C 
ATOM      3  C   UNL     1       4.331   4.443  16.868  0.00  0.00    +0.000 A 
ATOM      4  C   UNL     1       5.040   4.199  15.714  0.00  0.00    +0.000 A 
ATOM      5  C   UNL     1       6.187   4.983  15.460  0.00  0.00    +0.000 A 
ATOM      6  C   UNL     1       6.597   5.993  16.347  0.00  0.00    +0.000 A 
ATOM      7  C   UNL     1       5.867   6.250  17.489  0.00  0.00    +0.000 A 
ATOM      8  C   UNL     1       4.740   5.469  17.722  0.00  0.00    +0.000 A 
ATOM      9  C   UNL     1       3.778   5.580  18.834  0.00  0.00    +0.000 C 
ATOM     10  C   UNL     1       2.917   6.823  18.838  0.00  0.00    +0.000 A 
ATOM     11  C   UNL     1       2.762   7.708  17.767  0.00  0.00    +0.000 A 
ATOM     12  C   UNL     1       2.021   8.871  17.940  0.00  0.00    +0.000 A 
ATOM     13  C   UNL     1       1.481   9.153  19.195  0.00  0.00    +0.000 A 
ATOM     14 BR   UNL     1       0.716  10.853  19.500  0.00  0.00    +0.000 Br
ATOM     15  C   UNL     1       1.465   8.181  20.199  0.00  0.00    +0.000 A 
ATOM     16  C   UNL     1       2.061   6.951  19.941  0.00  0.00    +0.000 A 
ATOM     17  C   UNL     1       1.755   5.644  20.664  0.00  0.00    +0.000 C 
ATOM     18  C   UNL     1       1.728   4.459  19.604  0.00  0.00    +0.000 C 
ATOM     19  N   UNL     1       2.897   4.459  18.705  0.00  0.00    +0.000 N 
ENDROOT
BRANCH   9  20
ATOM     20  O   UNL     1       4.499   5.391  20.040  0.00  0.00    +0.000 OA
ATOM     21  H   UNL     1       3.971   5.795  20.743  0.00  0.00    +0.000 HD
ENDBRANCH   9  20
TORSDOF 1
ENDMDL
MODEL 2
REMARK VINA RESULT:      -8.3      3.441      5.783
REMARK  Name = 
REMARK  1 active torsions:
REMARK  status: ('A' for Active; 'I' for Inactive)
REMARK    1  A    between atoms: C_9  and  O_10
REMARK                            x       y       z     vdW  Elec       q    Type
REMARK                         _______ _______ _______ _____ _____    ______ ____
ROOT
ATOM      1  O   UNL     1       2.839   7.039  18.511  0.00  0.00    +0.000 OA
ATOM      2  C   UNL     1       3.447   5.997  18.349  0.00  0.00    +0.000 C 
ATOM      3  C   UNL     1       2.815   4.626  18.350  0.00  0.00    +0.000 A 
ATOM      4  C   UNL     1       1.540   4.175  18.604  0.00  0.00    +0.000 A 
ATOM      5  C   UNL     1       1.299   2.785  18.523  0.00  0.00    +0.000 A 
ATOM      6  C   UNL     1       2.320   1.881  18.186  0.00  0.00    +0.000 A 
ATOM      7  C   UNL     1       3.590   2.343  17.909  0.00  0.00    +0.000 A 
ATOM      8  C   UNL     1       3.808   3.713  17.990  0.00  0.00    +0.000 A 
ATOM      9  C   UNL     1       5.052   4.449  17.696  0.00  0.00    +0.000 C 
ATOM     10  C   UNL     1       5.477   4.468  16.245  0.00  0.00    +0.000 A 
ATOM     11  C   UNL     1       4.678   4.103  15.159  0.00  0.00    +0.000 A 
ATOM     12  C   UNL     1       5.228   4.066  13.883  0.00  0.00    +0.000 A 
ATOM     13  C   UNL     1       6.583   4.357  13.718  0.00  0.00    +0.000 A 
ATOM     14 BR   UNL     1       7.388   4.042  12.039  0.00  0.00    +0.000 Br
ATOM     15  C   UNL     1       7.325   4.913  14.764  0.00  0.00    +0.000 A 
ATOM     16  C   UNL     1       6.700   5.107  15.992  0.00  0.00    +0.000 A 
ATOM     17  C   UNL     1       7.140   6.092  17.070  0.00  0.00    +0.000 C 
ATOM     18  C   UNL     1       5.852   6.776  17.703  0.00  0.00    +0.000 C 
ATOM     19  N   UNL     1       4.806   5.806  18.079  0.00  0.00    +0.000 N 
ENDROOT
BRANCH   9  20
ATOM     20  O   UNL     1       6.054   3.957  18.569  0.00  0.00    +0.000 OA
ATOM     21  H   UNL     1       5.598   3.627  19.356  0.00  0.00    +0.000 HD
ENDBRANCH   9  20
TORSDOF 1
ENDMDL
MODEL 3
REMARK VINA RESULT:      -7.7      1.692      3.999
REMARK  Name = 
REMARK  1 active torsions:
REMARK  status: ('A' for Active; 'I' for Inactive)
REMARK    1  A    between atoms: C_9  and  O_10
REMARK                            x       y       z     vdW  Elec       q    Type
REMARK                         _______ _______ _______ _____ _____    ______ ____
ROOT
ATOM      1  O   UNL     1       5.679   4.383  19.552  0.00  0.00    +0.000 OA
ATOM      2  C   UNL     1       4.487   4.511  19.340  0.00  0.00    +0.000 C 
ATOM      3  C   UNL     1       3.399   3.770  20.080  0.00  0.00    +0.000 A 
ATOM      4  C   UNL     1       3.413   2.774  21.029  0.00  0.00    +0.000 A 
ATOM      5  C   UNL     1       2.174   2.294  21.507  0.00  0.00    +0.000 A 
ATOM      6  C   UNL     1       0.955   2.817  21.042  0.00  0.00    +0.000 A 
ATOM      7  C   UNL     1       0.949   3.834  20.110  0.00  0.00    +0.000 A 
ATOM      8  C   UNL     1       2.178   4.295  19.652  0.00  0.00    +0.000 A 
ATOM      9  C   UNL     1       2.434   5.394  18.703  0.00  0.00    +0.000 C 
ATOM     10  C   UNL     1       2.098   6.783  19.198  0.00  0.00    +0.000 A 
ATOM     11  C   UNL     1       1.840   7.131  20.527  0.00  0.00    +0.000 A 
ATOM     12  C   UNL     1       1.440   8.428  20.831  0.00  0.00    +0.000 A 
ATOM     13  C   UNL     1       1.263   9.345  19.794  0.00  0.00    +0.000 A 
ATOM     14 BR   UNL     1       0.460  11.012  20.176  0.00  0.00    +0.000 Br
ATOM     15  C   UNL     1       1.712   9.057  18.502  0.00  0.00    +0.000 A 
ATOM     16  C   UNL     1       2.276   7.809  18.259  0.00  0.00    +0.000 A 
ATOM     17  C   UNL     1       3.226   7.468  17.116  0.00  0.00    +0.000 C 
ATOM     18  C   UNL     1       4.366   6.504  17.659  0.00  0.00    +0.000 C 
ATOM     19  N   UNL     1       3.842   5.370  18.444  0.00  0.00    +0.000 N 
ENDROOT
BRANCH   9  20
ATOM     20  O   UNL     1       1.792   5.061  17.483  0.00  0.00    +0.000 OA
ATOM     21  H   UNL     1       2.433   5.231  16.779  0.00  0.00    +0.000 HD
ENDBRANCH   9  20
TORSDOF 1
ENDMDL
MODEL 4
REMARK VINA RESULT:      -7.0      2.566      5.204
REMARK  Name = 
REMARK  1 active torsions:
REMARK  status: ('A' for Active; 'I' for Inactive)
REMARK    1  A    between atoms: C_9  and  O_10
REMARK                            x       y       z     vdW  Elec       q    Type
REMARK                         _______ _______ _______ _____ _____    ______ ____
ROOT
ATOM      1  O   UNL     1       2.471   4.624  21.600  0.00  0.00    +0.000 OA
ATOM      2  C   UNL     1       2.270   5.021  20.467  0.00  0.00    +0.000 C 
ATOM      3  C   UNL     1       1.952   6.451  20.103  0.00  0.00    +0.000 A 
ATOM      4  C   UNL     1       1.720   7.586  20.847  0.00  0.00    +0.000 A 
ATOM      5  C   UNL     1       1.434   8.785  20.158  0.00  0.00    +0.000 A 
ATOM      6  C   UNL     1       1.394   8.834  18.755  0.00  0.00    +0.000 A 
ATOM      7  C   UNL     1       1.653   7.699  18.015  0.00  0.00    +0.000 A 
ATOM      8  C   UNL     1       1.935   6.528  18.709  0.00  0.00    +0.000 A 
ATOM      9  C   UNL     1       2.288   5.210  18.151  0.00  0.00    +0.000 C 
ATOM     10  C   UNL     1       3.633   5.126  17.464  0.00  0.00    +0.000 A 
ATOM     11  C   UNL     1       4.652   6.077  17.554  0.00  0.00    +0.000 A 
ATOM     12  C   UNL     1       5.801   5.926  16.786  0.00  0.00    +0.000 A 
ATOM     13  C   UNL     1       5.895   4.847  15.907  0.00  0.00    +0.000 A 
ATOM     14 BR   UNL     1       7.323   4.794  14.673  0.00  0.00    +0.000 Br
ATOM     15  C   UNL     1       4.974   3.797  15.966  0.00  0.00    +0.000 A 
ATOM     16  C   UNL     1       3.923   3.887  16.874  0.00  0.00    +0.000 A 
ATOM     17  C   UNL     1       3.123   2.714  17.429  0.00  0.00    +0.000 C 
ATOM     18  C   UNL     1       2.847   2.960  18.975  0.00  0.00    +0.000 C 
ATOM     19  N   UNL     1       2.328   4.310  19.264  0.00  0.00    +0.000 N 
ENDROOT
BRANCH   9  20
ATOM     20  O   UNL     1       1.211   4.792  17.331  0.00  0.00    +0.000 OA
ATOM     21  H   UNL     1       0.768   4.072  17.801  0.00  0.00    +0.000 HD
ENDBRANCH   9  20
TORSDOF 1
ENDMDL
MODEL 5
REMARK VINA RESULT:      -6.8      4.091      6.218
REMARK  Name = 
REMARK  1 active torsions:
REMARK  status: ('A' for Active; 'I' for Inactive)
REMARK    1  A    between atoms: C_9  and  O_10
REMARK                            x       y       z     vdW  Elec       q    Type
REMARK                         _______ _______ _______ _____ _____    ______ ____
ROOT
ATOM      1  O   UNL     1       0.672   8.540  22.416  0.00  0.00    +0.000 OA
ATOM      2  C   UNL     1       0.786   9.163  21.376  0.00  0.00    +0.000 C 
ATOM      3  C   UNL     1       1.454   8.635  20.129  0.00  0.00    +0.000 A 
ATOM      4  C   UNL     1       2.143   7.477  19.845  0.00  0.00    +0.000 A 
ATOM      5  C   UNL     1       2.656   7.314  18.539  0.00  0.00    +0.000 A 
ATOM      6  C   UNL     1       2.468   8.291  17.548  0.00  0.00    +0.000 A 
ATOM      7  C   UNL     1       1.755   9.438  17.833  0.00  0.00    +0.000 A 
ATOM      8  C   UNL     1       1.256   9.581  19.122  0.00  0.00    +0.000 A 
ATOM      9  C   UNL     1       0.430  10.681  19.654  0.00  0.00    +0.000 C 
ATOM     10  C   UNL     1      -0.974  10.776  19.099  0.00  0.00    +0.000 A 
ATOM     11  C   UNL     1      -1.627   9.782  18.364  0.00  0.00    +0.000 A 
ATOM     12  C   UNL     1      -2.881  10.041  17.823  0.00  0.00    +0.000 A 
ATOM     13  C   UNL     1      -3.447  11.306  17.991  0.00  0.00    +0.000 A 
ATOM     14 BR   UNL     1      -5.013  11.741  17.031  0.00  0.00    +0.000 Br
ATOM     15  C   UNL     1      -2.890  12.222  18.889  0.00  0.00    +0.000 A 
ATOM     16  C   UNL     1      -1.722  11.870  19.557  0.00  0.00    +0.000 A 
ATOM     17  C   UNL     1      -1.232  12.472  20.870  0.00  0.00    +0.000 C 
ATOM     18  C   UNL     1      -0.635  11.314  21.780  0.00  0.00    +0.000 C 
ATOM     19  N   UNL     1       0.310  10.439  21.060  0.00  0.00    +0.000 N 
ENDROOT
BRANCH   9  20
ATOM     20  O   UNL     1       1.173  11.879  19.510  0.00  0.00    +0.000 OA
ATOM     21  H   UNL     1       0.588  12.601  19.781  0.00  0.00    +0.000 HD
ENDBRANCH   9  20
TORSDOF 1
ENDMDL
MODEL 6
REMARK VINA RESULT:      -6.6      3.268      4.523
REMARK  Name = 
REMARK  1 active torsions:
REMARK  status: ('A' for Active; 'I' for Inactive)
REMARK    1  A    between atoms: C_9  and  O_10
REMARK                            x       y       z     vdW  Elec       q    Type
REMARK                         _______ _______ _______ _____ _____    ______ ____
ROOT
ATOM      1  O   UNL     1       5.222   7.088  15.112  0.00  0.00    +0.000 OA
ATOM      2  C   UNL     1       5.691   6.394  15.996  0.00  0.00    +0.000 C 
ATOM      3  C   UNL     1       6.675   6.878  17.035  0.00  0.00    +0.000 A 
ATOM      4  C   UNL     1       7.341   8.067  17.222  0.00  0.00    +0.000 A 
ATOM      5  C   UNL     1       8.220   8.170  18.323  0.00  0.00    +0.000 A 
ATOM      6  C   UNL     1       8.410   7.100  19.214  0.00  0.00    +0.000 A 
ATOM      7  C   UNL     1       7.720   5.919  19.034  0.00  0.00    +0.000 A 
ATOM      8  C   UNL     1       6.858   5.836  17.946  0.00  0.00    +0.000 A 
ATOM      9  C   UNL     1       5.981   4.711  17.571  0.00  0.00    +0.000 C 
ATOM     10  C   UNL     1       4.826   4.438  18.508  0.00  0.00    +0.000 A 
ATOM     11  C   UNL     1       4.368   5.300  19.508  0.00  0.00    +0.000 A 
ATOM     12  C   UNL     1       3.361   4.880  20.369  0.00  0.00    +0.000 A 
ATOM     13  C   UNL     1       2.855   3.586  20.242  0.00  0.00    +0.000 A 
ATOM     14 BR   UNL     1       1.692   2.925  21.576  0.00  0.00    +0.000 Br
ATOM     15  C   UNL     1       3.166   2.804  19.126  0.00  0.00    +0.000 A 
ATOM     16  C   UNL     1       4.046   3.320  18.180  0.00  0.00    +0.000 A 
ATOM     17  C   UNL     1       4.146   2.878  16.723  0.00  0.00    +0.000 C 
ATOM     18  C   UNL     1       4.358   4.160  15.807  0.00  0.00    +0.000 C 
ATOM     19  N   UNL     1       5.419   5.057  16.301  0.00  0.00    +0.000 N 
ENDROOT
BRANCH   9  20
ATOM     20  O   UNL     1       6.809   3.581  17.355  0.00  0.00    +0.000 OA
ATOM     21  H   UNL     1       7.669   3.919  17.070  0.00  0.00    +0.000 HD
ENDBRANCH   9  20
TORSDOF 1
ENDMDL
MODEL 7
REMARK VINA RESULT:      -6.6      3.900      4.652
REMARK  Name = 
REMARK  1 active torsions:
REMARK  status: ('A' for Active; 'I' for Inactive)
REMARK    1  A    between atoms: C_9  and  O_10
REMARK                            x       y       z     vdW  Elec       q    Type
REMARK                         _______ _______ _______ _____ _____    ______ ____
ROOT
ATOM      1  O   UNL     1       3.764   4.097  17.589  0.00  0.00    +0.000 OA
ATOM      2  C   UNL     1       4.921   4.257  17.242  0.00  0.00    +0.000 C 
ATOM      3  C   UNL     1       5.389   4.296  15.807  0.00  0.00    +0.000 A 
ATOM      4  C   UNL     1       4.757   4.088  14.602  0.00  0.00    +0.000 A 
ATOM      5  C   UNL     1       5.525   4.197  13.422  0.00  0.00    +0.000 A 
ATOM      6  C   UNL     1       6.893   4.516  13.463  0.00  0.00    +0.000 A 
ATOM      7  C   UNL     1       7.513   4.748  14.672  0.00  0.00    +0.000 A 
ATOM      8  C   UNL     1       6.742   4.639  15.823  0.00  0.00    +0.000 A 
ATOM      9  C   UNL     1       7.158   4.884  17.217  0.00  0.00    +0.000 C 
ATOM     10  C   UNL     1       7.474   6.321  17.566  0.00  0.00    +0.000 A 
ATOM     11  C   UNL     1       7.149   7.436  16.789  0.00  0.00    +0.000 A 
ATOM     12  C   UNL     1       7.592   8.695  17.177  0.00  0.00    +0.000 A 
ATOM     13  C   UNL     1       8.391   8.814  18.315  0.00  0.00    +0.000 A 
ATOM     14 BR   UNL     1       9.216  10.473  18.684  0.00  0.00    +0.000 Br
ATOM     15  C   UNL     1       8.545   7.738  19.194  0.00  0.00    +0.000 A 
ATOM     16  C   UNL     1       7.940   6.527  18.872  0.00  0.00    +0.000 A 
ATOM     17  C   UNL     1       7.581   5.421  19.859  0.00  0.00    +0.000 C 
ATOM     18  C   UNL     1       6.164   4.817  19.467  0.00  0.00    +0.000 C 
ATOM     19  N   UNL     1       6.051   4.488  18.033  0.00  0.00    +0.000 N 
ENDROOT
BRANCH   9  20
ATOM     20  O   UNL     1       8.217   3.988  17.508  0.00  0.00    +0.000 OA
ATOM     21  H   UNL     1       8.560   4.240  18.377  0.00  0.00    +0.000 HD
ENDBRANCH   9  20
TORSDOF 1
ENDMDL
MODEL 8
REMARK VINA RESULT:      -6.5      1.511      1.945
REMARK  Name = 
REMARK  1 active torsions:
REMARK  status: ('A' for Active; 'I' for Inactive)
REMARK    1  A    between atoms: C_9  and  O_10
REMARK                            x       y       z     vdW  Elec       q    Type
REMARK                         _______ _______ _______ _____ _____    ______ ____
ROOT
ATOM      1  O   UNL     1       3.666   3.399  15.779  0.00  0.00    +0.000 OA
ATOM      2  C   UNL     1       4.010   3.703  16.906  0.00  0.00    +0.000 C 
ATOM      3  C   UNL     1       5.308   4.393  17.251  0.00  0.00    +0.000 A 
ATOM      4  C   UNL     1       6.410   4.755  16.510  0.00  0.00    +0.000 A 
ATOM      5  C   UNL     1       7.479   5.392  17.177  0.00  0.00    +0.000 A 
ATOM      6  C   UNL     1       7.428   5.662  18.556  0.00  0.00    +0.000 A 
ATOM      7  C   UNL     1       6.310   5.319  19.287  0.00  0.00    +0.000 A 
ATOM      8  C   UNL     1       5.266   4.695  18.613  0.00  0.00    +0.000 A 
ATOM      9  C   UNL     1       3.960   4.279  19.157  0.00  0.00    +0.000 C 
ATOM     10  C   UNL     1       3.029   5.400  19.560  0.00  0.00    +0.000 A 
ATOM     11  C   UNL     1       3.179   6.746  19.215  0.00  0.00    +0.000 A 
ATOM     12  C   UNL     1       2.306   7.691  19.741  0.00  0.00    +0.000 A 
ATOM     13  C   UNL     1       1.320   7.280  20.638  0.00  0.00    +0.000 A 
ATOM     14 BR   UNL     1       0.318   8.591  21.558  0.00  0.00    +0.000 Br
ATOM     15  C   UNL     1       1.044   5.922  20.823  0.00  0.00    +0.000 A 
ATOM     16  C   UNL     1       1.822   4.990  20.145  0.00  0.00    +0.000 A 
ATOM     17  C   UNL     1       1.416   3.554  19.826  0.00  0.00    +0.000 C 
ATOM     18  C   UNL     1       1.903   3.191  18.358  0.00  0.00    +0.000 C 
ATOM     19  N   UNL     1       3.312   3.551  18.109  0.00  0.00    +0.000 N 
ENDROOT
BRANCH   9  20
ATOM     20  O   UNL     1       4.209   3.352  20.200  0.00  0.00    +0.000 OA
ATOM     21  H   UNL     1       4.973   3.686  20.689  0.00  0.00    +0.000 HD
ENDBRANCH   9  20
TORSDOF 1
ENDMDL
MODEL 9
REMARK VINA RESULT:      -6.3      2.990      4.979
REMARK  Name = 
REMARK  1 active torsions:
REMARK  status: ('A' for Active; 'I' for Inactive)
REMARK    1  A    between atoms: C_9  and  O_10
REMARK                            x       y       z     vdW  Elec       q    Type
REMARK                         _______ _______ _______ _____ _____    ______ ____
ROOT
ATOM      1  O   UNL     1       3.964   1.027  17.997  0.00  0.00    +0.000 OA
ATOM      2  C   UNL     1       3.674   2.189  18.217  0.00  0.00    +0.000 C 
ATOM      3  C   UNL     1       3.101   2.699  19.518  0.00  0.00    +0.000 A 
ATOM      4  C   UNL     1       2.684   2.078  20.673  0.00  0.00    +0.000 A 
ATOM      5  C   UNL     1       2.177   2.885  21.715  0.00  0.00    +0.000 A 
ATOM      6  C   UNL     1       2.104   4.283  21.592  0.00  0.00    +0.000 A 
ATOM      7  C   UNL     1       2.547   4.901  20.441  0.00  0.00    +0.000 A 
ATOM      8  C   UNL     1       3.045   4.091  19.427  0.00  0.00    +0.000 A 
ATOM      9  C   UNL     1       3.618   4.510  18.134  0.00  0.00    +0.000 C 
ATOM     10  C   UNL     1       4.943   5.235  18.206  0.00  0.00    +0.000 A 
ATOM     11  C   UNL     1       5.779   5.291  19.325  0.00  0.00    +0.000 A 
ATOM     12  C   UNL     1       6.922   6.081  19.288  0.00  0.00    +0.000 A 
ATOM     13  C   UNL     1       7.191   6.836  18.146  0.00  0.00    +0.000 A 
ATOM     14 BR   UNL     1       8.583   8.111  18.200  0.00  0.00    +0.000 Br
ATOM     15  C   UNL     1       6.472   6.624  16.966  0.00  0.00    +0.000 A 
ATOM     16  C   UNL     1       5.438   5.693  16.977  0.00  0.00    +0.000 A 
ATOM     17  C   UNL     1       4.870   4.980  15.755  0.00  0.00    +0.000 C 
ATOM     18  C   UNL     1       4.583   3.462  16.128  0.00  0.00    +0.000 C 
ATOM     19  N   UNL     1       3.837   3.306  17.391  0.00  0.00    +0.000 N 
ENDROOT
BRANCH   9  20
ATOM     20  O   UNL     1       2.617   5.237  17.441  0.00  0.00    +0.000 OA
ATOM     21  H   UNL     1       1.767   4.863  17.711  0.00  0.00    +0.000 HD
ENDBRANCH   9  20
TORSDOF 1
ENDMDL
