MODEL 1
REMARK VINA RESULT:      -6.7      0.000      0.000
REMARK  Name = 
REMARK  1 active torsions:
REMARK  status: ('A' for Active; 'I' for Inactive)
REMARK    1  A    between atoms: C_2  and  C_3
REMARK                            x       y       z     vdW  Elec       q    Type
REMARK                         _______ _______ _______ _____ _____    ______ ____
ROOT
ATOM      1  C   UNL     1       5.632   5.434  15.921  0.00  0.00    +0.000 A 
ATOM      2  C   UNL     1       5.230   6.745  16.366  0.00  0.00    +0.000 A 
ATOM      3  C   UNL     1       4.309   6.883  17.330  0.00  0.00    +0.000 A 
ATOM      4  C   UNL     1       3.679   5.677  17.962  0.00  0.00    +0.000 A 
ATOM      5  N   UNL     1       2.787   5.860  18.896  0.00  0.00    +0.000 NA
ATOM      6  C   UNL     1       2.253   4.684  19.430  0.00  0.00    +0.000 A 
ATOM      7  C   UNL     1       1.275   4.635  20.452  0.00  0.00    +0.000 A 
ATOM      8  C   UNL     1       0.950   3.329  20.769  0.00  0.00    +0.000 A 
ATOM      9  S   UNL     1       1.831   2.194  19.825  0.00  0.00    +0.000 S 
ATOM     10  C   UNL     1       2.633   3.442  19.009  0.00  0.00    +0.000 A 
ATOM     11  C   UNL     1       3.607   3.235  17.988  0.00  0.00    +0.000 A 
ATOM     12  O   UNL     1       3.965   2.122  17.594  0.00  0.00    +0.000 OA
ATOM     13  N   UNL     1       4.123   4.430  17.474  0.00  0.00    +0.000 N 
ATOM     14  C   UNL     1       5.083   4.347  16.472  0.00  0.00    +0.000 A 
ENDROOT
BRANCH   1  16
ATOM     15  N   UNL     1       7.544   5.156  13.922  0.00  0.00    +0.000 NA
ATOM     16  C   UNL     1       6.677   5.282  14.828  0.00  0.00    +0.000 C 
ENDBRANCH   1  16
TORSDOF 1
ENDMDL
MODEL 2
REMARK VINA RESULT:      -6.6      1.443      1.506
REMARK  Name = 
REMARK  1 active torsions:
REMARK  status: ('A' for Active; 'I' for Inactive)
REMARK    1  A    between atoms: C_2  and  C_3
REMARK                            x       y       z     vdW  Elec       q    Type
REMARK                         _______ _______ _______ _____ _____    ______ ____
ROOT
ATOM      1  C   UNL     1       6.227   4.901  16.457  0.00  0.00    +0.000 A 
ATOM      2  C   UNL     1       6.851   5.356  17.675  0.00  0.00    +0.000 A 
ATOM      3  C   UNL     1       6.229   5.210  18.852  0.00  0.00    +0.000 A 
ATOM      4  C   UNL     1       4.873   4.572  18.926  0.00  0.00    +0.000 A 
ATOM      5  N   UNL     1       4.306   4.452  20.095  0.00  0.00    +0.000 NA
ATOM      6  C   UNL     1       3.047   3.846  20.072  0.00  0.00    +0.000 A 
ATOM      7  C   UNL     1       2.246   3.609  21.214  0.00  0.00    +0.000 A 
ATOM      8  C   UNL     1       1.057   2.993  20.870  0.00  0.00    +0.000 A 
ATOM      9  S   UNL     1       0.934   2.719  19.178  0.00  0.00    +0.000 S 
ATOM     10  C   UNL     1       2.455   3.415  18.919  0.00  0.00    +0.000 A 
ATOM     11  C   UNL     1       3.069   3.545  17.638  0.00  0.00    +0.000 A 
ATOM     12  O   UNL     1       2.553   3.161  16.585  0.00  0.00    +0.000 OA
ATOM     13  N   UNL     1       4.328   4.153  17.694  0.00  0.00    +0.000 N 
ATOM     14  C   UNL     1       5.020   4.330  16.501  0.00  0.00    +0.000 A 
ENDROOT
BRANCH   1  16
ATOM     15  N   UNL     1       7.525   5.206  14.017  0.00  0.00    +0.000 NA
ATOM     16  C   UNL     1       6.936   5.068  15.123  0.00  0.00    +0.000 C 
ENDBRANCH   1  16
TORSDOF 1
ENDMDL
MODEL 3
REMARK VINA RESULT:      -6.5      2.785      5.867
REMARK  Name = 
REMARK  1 active torsions:
REMARK  status: ('A' for Active; 'I' for Inactive)
REMARK    1  A    between atoms: C_2  and  C_3
REMARK                            x       y       z     vdW  Elec       q    Type
REMARK                         _______ _______ _______ _____ _____    ______ ____
ROOT
ATOM      1  C   UNL     1       2.235   2.878  20.032  0.00  0.00    +0.000 A 
ATOM      2  C   UNL     1       1.556   2.467  18.828  0.00  0.00    +0.000 A 
ATOM      3  C   UNL     1       2.116   2.675  17.628  0.00  0.00    +0.000 A 
ATOM      4  C   UNL     1       3.457   3.337  17.516  0.00  0.00    +0.000 A 
ATOM      5  N   UNL     1       3.962   3.518  16.326  0.00  0.00    +0.000 NA
ATOM      6  C   UNL     1       5.213   4.141  16.313  0.00  0.00    +0.000 A 
ATOM      7  C   UNL     1       5.953   4.438  15.145  0.00  0.00    +0.000 A 
ATOM      8  C   UNL     1       7.152   5.052  15.456  0.00  0.00    +0.000 A 
ATOM      9  S   UNL     1       7.355   5.257  17.150  0.00  0.00    +0.000 S 
ATOM     10  C   UNL     1       5.856   4.530  17.453  0.00  0.00    +0.000 A 
ATOM     11  C   UNL     1       5.310   4.336  18.756  0.00  0.00    +0.000 A 
ATOM     12  O   UNL     1       5.874   4.679  19.798  0.00  0.00    +0.000 OA
ATOM     13  N   UNL     1       4.058   3.710  18.736  0.00  0.00    +0.000 N 
ATOM     14  C   UNL     1       3.430   3.470  19.953  0.00  0.00    +0.000 A 
ENDROOT
BRANCH   1  16
ATOM     15  N   UNL     1       1.067   2.444  22.518  0.00  0.00    +0.000 NA
ATOM     16  C   UNL     1       1.597   2.641  21.391  0.00  0.00    +0.000 C 
ENDBRANCH   1  16
TORSDOF 1
ENDMDL
MODEL 4
REMARK VINA RESULT:      -6.2      2.269      2.995
REMARK  Name = 
REMARK  1 active torsions:
REMARK  status: ('A' for Active; 'I' for Inactive)
REMARK    1  A    between atoms: C_2  and  C_3
REMARK                            x       y       z     vdW  Elec       q    Type
REMARK                         _______ _______ _______ _____ _____    ______ ____
ROOT
ATOM      1  C   UNL     1       6.608   6.545  17.468  0.00  0.00    +0.000 A 
ATOM      2  C   UNL     1       6.994   5.473  16.585  0.00  0.00    +0.000 A 
ATOM      3  C   UNL     1       6.234   4.375  16.477  0.00  0.00    +0.000 A 
ATOM      4  C   UNL     1       4.969   4.241  17.272  0.00  0.00    +0.000 A 
ATOM      5  N   UNL     1       4.261   3.154  17.134  0.00  0.00    +0.000 NA
ATOM      6  C   UNL     1       3.099   3.113  17.910  0.00  0.00    +0.000 A 
ATOM      7  C   UNL     1       2.178   2.039  17.924  0.00  0.00    +0.000 A 
ATOM      8  C   UNL     1       1.129   2.293  18.789  0.00  0.00    +0.000 A 
ATOM      9  S   UNL     1       1.283   3.819  19.564  0.00  0.00    +0.000 S 
ATOM     10  C   UNL     1       2.733   4.128  18.746  0.00  0.00    +0.000 A 
ATOM     11  C   UNL     1       3.503   5.319  18.903  0.00  0.00    +0.000 A 
ATOM     12  O   UNL     1       3.190   6.247  19.652  0.00  0.00    +0.000 OA
ATOM     13  N   UNL     1       4.658   5.330  18.113  0.00  0.00    +0.000 N 
ATOM     14  C   UNL     1       5.485   6.445  18.185  0.00  0.00    +0.000 A 
ENDROOT
BRANCH   1  16
ATOM     15  N   UNL     1       8.192   8.821  17.686  0.00  0.00    +0.000 NA
ATOM     16  C   UNL     1       7.474   7.789  17.587  0.00  0.00    +0.000 C 
ENDBRANCH   1  16
TORSDOF 1
ENDMDL
MODEL 5
REMARK VINA RESULT:      -6.1      2.269      5.428
REMARK  Name = 
REMARK  1 active torsions:
REMARK  status: ('A' for Active; 'I' for Inactive)
REMARK    1  A    between atoms: C_2  and  C_3
REMARK                            x       y       z     vdW  Elec       q    Type
REMARK                         _______ _______ _______ _____ _____    ______ ____
ROOT
ATOM      1  C   UNL     1       2.165   3.882  20.624  0.00  0.00    +0.000 A 
ATOM      2  C   UNL     1       2.006   5.313  20.692  0.00  0.00    +0.000 A 
ATOM      3  C   UNL     1       2.567   6.104  19.767  0.00  0.00    +0.000 A 
ATOM      4  C   UNL     1       3.371   5.514  18.645  0.00  0.00    +0.000 A 
ATOM      5  N   UNL     1       3.898   6.324  17.768  0.00  0.00    +0.000 NA
ATOM      6  C   UNL     1       4.629   5.691  16.758  0.00  0.00    +0.000 A 
ATOM      7  C   UNL     1       5.287   6.361  15.700  0.00  0.00    +0.000 A 
ATOM      8  C   UNL     1       5.922   5.465  14.860  0.00  0.00    +0.000 A 
ATOM      9  S   UNL     1       5.710   3.838  15.369  0.00  0.00    +0.000 S 
ATOM     10  C   UNL     1       4.780   4.336  16.694  0.00  0.00    +0.000 A 
ATOM     11  C   UNL     1       4.207   3.446  17.650  0.00  0.00    +0.000 A 
ATOM     12  O   UNL     1       4.330   2.219  17.609  0.00  0.00    +0.000 OA
ATOM     13  N   UNL     1       3.481   4.108  18.646  0.00  0.00    +0.000 N 
ATOM     14  C   UNL     1       2.877   3.338  19.633  0.00  0.00    +0.000 A 
ENDROOT
BRANCH   1  16
ATOM     15  N   UNL     1       0.996   2.248  22.548  0.00  0.00    +0.000 NA
ATOM     16  C   UNL     1       1.526   2.989  21.675  0.00  0.00    +0.000 C 
ENDBRANCH   1  16
TORSDOF 1
ENDMDL
MODEL 6
REMARK VINA RESULT:      -5.8      2.916      5.290
REMARK  Name = 
REMARK  1 active torsions:
REMARK  status: ('A' for Active; 'I' for Inactive)
REMARK    1  A    between atoms: C_2  and  C_3
REMARK                            x       y       z     vdW  Elec       q    Type
REMARK                         _______ _______ _______ _____ _____    ______ ____
ROOT
ATOM      1  C   UNL     1       1.487   8.383  20.497  0.00  0.00    +0.000 A 
ATOM      2  C   UNL     1       1.784   8.857  19.169  0.00  0.00    +0.000 A 
ATOM      3  C   UNL     1       2.274   8.021  18.243  0.00  0.00    +0.000 A 
ATOM      4  C   UNL     1       2.521   6.579  18.572  0.00  0.00    +0.000 A 
ATOM      5  N   UNL     1       2.999   5.803  17.638  0.00  0.00    +0.000 NA
ATOM      6  C   UNL     1       3.197   4.475  18.029  0.00  0.00    +0.000 A 
ATOM      7  C   UNL     1       3.703   3.455  17.189  0.00  0.00    +0.000 A 
ATOM      8  C   UNL     1       3.783   2.249  17.862  0.00  0.00    +0.000 A 
ATOM      9  S   UNL     1       3.248   2.378  19.489  0.00  0.00    +0.000 S 
ATOM     10  C   UNL     1       2.915   4.026  19.287  0.00  0.00    +0.000 A 
ATOM     11  C   UNL     1       2.394   4.869  20.313  0.00  0.00    +0.000 A 
ATOM     12  O   UNL     1       2.132   4.483  21.455  0.00  0.00    +0.000 OA
ATOM     13  N   UNL     1       2.206   6.190  19.890  0.00  0.00    +0.000 N 
ATOM     14  C   UNL     1       1.700   7.101  20.810  0.00  0.00    +0.000 A 
ENDROOT
BRANCH   1  16
ATOM     15  N   UNL     1       0.470  10.124  22.413  0.00  0.00    +0.000 NA
ATOM     16  C   UNL     1       0.931   9.335  21.544  0.00  0.00    +0.000 C 
ENDBRANCH   1  16
TORSDOF 1
ENDMDL
MODEL 7
REMARK VINA RESULT:      -5.7      4.002      4.722
REMARK  Name = 
REMARK  1 active torsions:
REMARK  status: ('A' for Active; 'I' for Inactive)
REMARK    1  A    between atoms: C_2  and  C_3
REMARK                            x       y       z     vdW  Elec       q    Type
REMARK                         _______ _______ _______ _____ _____    ______ ____
ROOT
ATOM      1  C   UNL     1       4.201   6.323  17.352  0.00  0.00    +0.000 A 
ATOM      2  C   UNL     1       4.129   5.396  18.454  0.00  0.00    +0.000 A 
ATOM      3  C   UNL     1       3.352   5.660  19.514  0.00  0.00    +0.000 A 
ATOM      4  C   UNL     1       2.545   6.923  19.573  0.00  0.00    +0.000 A 
ATOM      5  N   UNL     1       1.804   7.137  20.626  0.00  0.00    +0.000 NA
ATOM      6  C   UNL     1       1.085   8.336  20.597  0.00  0.00    +0.000 A 
ATOM      7  C   UNL     1       0.216   8.778  21.623  0.00  0.00    +0.000 A 
ATOM      8  C   UNL     1      -0.350   9.999  21.305  0.00  0.00    +0.000 A 
ATOM      9  S   UNL     1       0.181  10.582  19.778  0.00  0.00    +0.000 S 
ATOM     10  C   UNL     1       1.153   9.214  19.554  0.00  0.00    +0.000 A 
ATOM     11  C   UNL     1       1.962   8.986  18.401  0.00  0.00    +0.000 A 
ATOM     12  O   UNL     1       2.037   9.766  17.448  0.00  0.00    +0.000 OA
ATOM     13  N   UNL     1       2.668   7.779  18.459  0.00  0.00    +0.000 N 
ATOM     14  C   UNL     1       3.489   7.454  17.386  0.00  0.00    +0.000 A 
ENDROOT
BRANCH   1  16
ATOM     15  N   UNL     1       5.815   5.768  15.156  0.00  0.00    +0.000 NA
ATOM     16  C   UNL     1       5.083   6.020  16.152  0.00  0.00    +0.000 C 
ENDBRANCH   1  16
TORSDOF 1
ENDMDL
MODEL 8
REMARK VINA RESULT:      -5.7      3.351      4.578
REMARK  Name = 
REMARK  1 active torsions:
REMARK  status: ('A' for Active; 'I' for Inactive)
REMARK    1  A    between atoms: C_2  and  C_3
REMARK                            x       y       z     vdW  Elec       q    Type
REMARK                         _______ _______ _______ _____ _____    ______ ____
ROOT
ATOM      1  C   UNL     1       5.353   3.809  12.853  0.00  0.00    +0.000 A 
ATOM      2  C   UNL     1       6.687   4.300  12.614  0.00  0.00    +0.000 A 
ATOM      3  C   UNL     1       7.432   4.764  13.627  0.00  0.00    +0.000 A 
ATOM      4  C   UNL     1       6.892   4.780  15.026  0.00  0.00    +0.000 A 
ATOM      5  N   UNL     1       7.654   5.242  15.980  0.00  0.00    +0.000 NA
ATOM      6  C   UNL     1       7.073   5.220  17.251  0.00  0.00    +0.000 A 
ATOM      7  C   UNL     1       7.708   5.666  18.434  0.00  0.00    +0.000 A 
ATOM      8  C   UNL     1       6.880   5.515  19.532  0.00  0.00    +0.000 A 
ATOM      9  S   UNL     1       5.357   4.841  19.107  0.00  0.00    +0.000 S 
ATOM     10  C   UNL     1       5.810   4.755  17.478  0.00  0.00    +0.000 A 
ATOM     11  C   UNL     1       4.971   4.250  16.440  0.00  0.00    +0.000 A 
ATOM     12  O   UNL     1       3.828   3.825  16.623  0.00  0.00    +0.000 OA
ATOM     13  N   UNL     1       5.581   4.284  15.181  0.00  0.00    +0.000 N 
ATOM     14  C   UNL     1       4.854   3.815  14.093  0.00  0.00    +0.000 A 
ENDROOT
BRANCH   1  16
ATOM     15  N   UNL     1       3.814   2.848  10.746  0.00  0.00    +0.000 NA
ATOM     16  C   UNL     1       4.512   3.283  11.702  0.00  0.00    +0.000 C 
ENDBRANCH   1  16
TORSDOF 1
ENDMDL
MODEL 9
REMARK VINA RESULT:      -5.6      3.502      4.958
REMARK  Name = 
REMARK  1 active torsions:
REMARK  status: ('A' for Active; 'I' for Inactive)
REMARK    1  A    between atoms: C_2  and  C_3
REMARK                            x       y       z     vdW  Elec       q    Type
REMARK                         _______ _______ _______ _____ _____    ______ ____
ROOT
ATOM      1  C   UNL     1       4.115   4.204  19.118  0.00  0.00    +0.000 A 
ATOM      2  C   UNL     1       4.642   4.598  17.836  0.00  0.00    +0.000 A 
ATOM      3  C   UNL     1       4.315   5.783  17.303  0.00  0.00    +0.000 A 
ATOM      4  C   UNL     1       3.397   6.720  18.030  0.00  0.00    +0.000 A 
ATOM      5  N   UNL     1       3.108   7.863  17.471  0.00  0.00    +0.000 NA
ATOM      6  C   UNL     1       2.247   8.674  18.217  0.00  0.00    +0.000 A 
ATOM      7  C   UNL     1       1.797   9.954  17.816  0.00  0.00    +0.000 A 
ATOM      8  C   UNL     1       0.959  10.509  18.766  0.00  0.00    +0.000 A 
ATOM      9  S   UNL     1       0.734   9.471  20.117  0.00  0.00    +0.000 S 
ATOM     10  C   UNL     1       1.748   8.301  19.432  0.00  0.00    +0.000 A 
ATOM     11  C   UNL     1       2.060   7.053  20.048  0.00  0.00    +0.000 A 
ATOM     12  O   UNL     1       1.621   6.697  21.144  0.00  0.00    +0.000 OA
ATOM     13  N   UNL     1       2.923   6.265  19.278  0.00  0.00    +0.000 N 
ATOM     14  C   UNL     1       3.296   5.024  19.782  0.00  0.00    +0.000 A 
ENDROOT
BRANCH   1  16
ATOM     15  N   UNL     1       4.798   1.742  20.218  0.00  0.00    +0.000 NA
ATOM     16  C   UNL     1       4.488   2.858  19.719  0.00  0.00    +0.000 C 
ENDBRANCH   1  16
TORSDOF 1
ENDMDL
