MODEL 1
REMARK VINA RESULT:      -7.2      0.000      0.000
REMARK  Name = 
REMARK  8 active torsions:
REMARK  status: ('A' for Active; 'I' for Inactive)
REMARK    1  A    between atoms: C_1  and  C_2
REMARK    2  A    between atoms: C_2  and  O_3
REMARK    3  A    between atoms: O_3  and  C_4
REMARK    4  A    between atoms: C_4  and  C_6
REMARK    5  A    between atoms: C_9  and  C_10
REMARK    6  A    between atoms: C_10  and  N_11
REMARK    7  A    between atoms: C_15  and  O_16
REMARK    8  A    between atoms: O_16  and  C_17
REMARK                            x       y       z     vdW  Elec       q    Type
REMARK                         _______ _______ _______ _____ _____    ______ ____
ROOT
ATOM      1  C   UNL     1       4.022   4.202  18.005  0.00  0.00    +0.000 A 
ATOM      2  C   UNL     1       4.296   4.676  19.295  0.00  0.00    +0.000 A 
ATOM      3  N   UNL     1       5.502   5.202  19.600  0.00  0.00    +0.000 NA
ATOM      4  C   UNL     1       6.504   5.321  18.695  0.00  0.00    +0.000 A 
ATOM      5  C   UNL     1       6.283   4.921  17.353  0.00  0.00    +0.000 A 
ATOM      6  C   UNL     1       7.275   5.067  16.362  0.00  0.00    +0.000 A 
ATOM      7  C   UNL     1       7.029   4.694  15.041  0.00  0.00    +0.000 A 
ATOM      8  C   UNL     1       5.782   4.164  14.674  0.00  0.00    +0.000 A 
ATOM      9  C   UNL     1       4.801   3.998  15.650  0.00  0.00    +0.000 A 
ATOM     10  C   UNL     1       5.021   4.359  17.000  0.00  0.00    +0.000 A 
ENDROOT
BRANCH   1  11
ATOM     11  C   UNL     1       2.719   3.505  17.802  0.00  0.00    +0.000 C 
ATOM     12  O   UNL     1       1.837   4.038  17.139  0.00  0.00    +0.000 OA
BRANCH  11  13
ATOM     13  O   UNL     1       2.444   2.377  18.505  0.00  0.00    +0.000 OA
BRANCH  13  15
ATOM     14  C   UNL     1       1.156   2.957  20.447  0.00  0.00    +0.000 C 
ATOM     15  C   UNL     1       1.266   2.112  19.176  0.00  0.00    +0.000 C 
ENDBRANCH  13  15
ENDBRANCH  11  13
ENDBRANCH   1  11
BRANCH   8  16
ATOM     16  O   UNL     1       5.479   3.809  13.398  0.00  0.00    +0.000 OA
ATOM     17  C   UNL     1       6.379   3.533  12.390  0.00  0.00    +0.000 C 
ENDBRANCH   8  16
BRANCH   4  18
ATOM     18  C   UNL     1       7.813   5.880  19.197  0.00  0.00    +0.000 C 
BRANCH  18  19
ATOM     19  N   UNL     1       8.101   5.386  20.542  0.00  0.00    +0.000 NA
ATOM     20  H   UNL     1       8.881   5.946  20.952  0.00  0.00    +0.000 HD
ATOM     21  H   UNL     1       8.430   4.398  20.465  0.00  0.00    +0.000 HD
ENDBRANCH  18  19
ENDBRANCH   4  18
TORSDOF 6
ENDMDL
MODEL 2
REMARK VINA RESULT:      -7.1      0.813      1.005
REMARK  Name = 
REMARK  8 active torsions:
REMARK  status: ('A' for Active; 'I' for Inactive)
REMARK    1  A    between atoms: C_1  and  C_2
REMARK    2  A    between atoms: C_2  and  O_3
REMARK    3  A    between atoms: O_3  and  C_4
REMARK    4  A    between atoms: C_4  and  C_6
REMARK    5  A    between atoms: C_9  and  C_10
REMARK    6  A    between atoms: C_10  and  N_11
REMARK    7  A    between atoms: C_15  and  O_16
REMARK    8  A    between atoms: O_16  and  C_17
REMARK                            x       y       z     vdW  Elec       q    Type
REMARK                         _______ _______ _______ _____ _____    ______ ____
ROOT
ATOM      1  C   UNL     1       3.909   4.748  17.874  0.00  0.00    +0.000 A 
ATOM      2  C   UNL     1       4.218   5.205  19.163  0.00  0.00    +0.000 A 
ATOM      3  N   UNL     1       5.487   5.518  19.502  0.00  0.00    +0.000 NA
ATOM      4  C   UNL     1       6.526   5.429  18.634  0.00  0.00    +0.000 A 
ATOM      5  C   UNL     1       6.283   5.034  17.295  0.00  0.00    +0.000 A 
ATOM      6  C   UNL     1       7.318   4.972  16.340  0.00  0.00    +0.000 A 
ATOM      7  C   UNL     1       7.056   4.608  15.020  0.00  0.00    +0.000 A 
ATOM      8  C   UNL     1       5.748   4.296  14.617  0.00  0.00    +0.000 A 
ATOM      9  C   UNL     1       4.719   4.337  15.557  0.00  0.00    +0.000 A 
ATOM     10  C   UNL     1       4.954   4.694  16.906  0.00  0.00    +0.000 A 
ENDROOT
BRANCH   1  11
ATOM     11  C   UNL     1       2.510   4.287  17.637  0.00  0.00    +0.000 C 
ATOM     12  O   UNL     1       1.577   5.069  17.774  0.00  0.00    +0.000 OA
BRANCH  11  13
ATOM     13  O   UNL     1       2.260   2.965  17.459  0.00  0.00    +0.000 OA
BRANCH  13  15
ATOM     14  C   UNL     1       3.668   1.327  18.509  0.00  0.00    +0.000 C 
ATOM     15  C   UNL     1       2.295   1.998  18.446  0.00  0.00    +0.000 C 
ENDBRANCH  13  15
ENDBRANCH  11  13
ENDBRANCH   1  11
BRANCH   8  16
ATOM     16  O   UNL     1       5.430   3.962  13.339  0.00  0.00    +0.000 OA
ATOM     17  C   UNL     1       6.280   3.415  12.402  0.00  0.00    +0.000 C 
ENDBRANCH   8  16
BRANCH   4  18
ATOM     18  C   UNL     1       7.895   5.762  19.174  0.00  0.00    +0.000 C 
BRANCH  18  19
ATOM     19  N   UNL     1       8.015   5.341  20.569  0.00  0.00    +0.000 NA
ATOM     20  H   UNL     1       9.014   5.120  20.774  0.00  0.00    +0.000 HD
ATOM     21  H   UNL     1       7.466   4.462  20.694  0.00  0.00    +0.000 HD
ENDBRANCH  18  19
ENDBRANCH   4  18
TORSDOF 6
ENDMDL
MODEL 3
REMARK VINA RESULT:      -6.8      3.062      6.000
REMARK  Name = 
REMARK  8 active torsions:
REMARK  status: ('A' for Active; 'I' for Inactive)
REMARK    1  A    between atoms: C_1  and  C_2
REMARK    2  A    between atoms: C_2  and  O_3
REMARK    3  A    between atoms: O_3  and  C_4
REMARK    4  A    between atoms: C_4  and  C_6
REMARK    5  A    between atoms: C_9  and  C_10
REMARK    6  A    between atoms: C_10  and  N_11
REMARK    7  A    between atoms: C_15  and  O_16
REMARK    8  A    between atoms: O_16  and  C_17
REMARK                            x       y       z     vdW  Elec       q    Type
REMARK                         _______ _______ _______ _____ _____    ______ ____
ROOT
ATOM      1  C   UNL     1       4.471   5.484  17.135  0.00  0.00    +0.000 A 
ATOM      2  C   UNL     1       4.786   4.211  16.639  0.00  0.00    +0.000 A 
ATOM      3  N   UNL     1       4.294   3.097  17.223  0.00  0.00    +0.000 NA
ATOM      4  C   UNL     1       3.466   3.132  18.297  0.00  0.00    +0.000 A 
ATOM      5  C   UNL     1       3.053   4.383  18.818  0.00  0.00    +0.000 A 
ATOM      6  C   UNL     1       2.155   4.476  19.901  0.00  0.00    +0.000 A 
ATOM      7  C   UNL     1       1.737   5.716  20.382  0.00  0.00    +0.000 A 
ATOM      8  C   UNL     1       2.205   6.900  19.791  0.00  0.00    +0.000 A 
ATOM      9  C   UNL     1       3.106   6.820  18.730  0.00  0.00    +0.000 A 
ATOM     10  C   UNL     1       3.556   5.578  18.225  0.00  0.00    +0.000 A 
ENDROOT
BRANCH   1  11
ATOM     11  C   UNL     1       5.177   6.644  16.519  0.00  0.00    +0.000 C 
ATOM     12  O   UNL     1       5.045   6.876  15.323  0.00  0.00    +0.000 OA
BRANCH  11  13
ATOM     13  O   UNL     1       6.107   7.322  17.238  0.00  0.00    +0.000 OA
BRANCH  13  15
ATOM     14  C   UNL     1       7.665   6.184  18.668  0.00  0.00    +0.000 C 
ATOM     15  C   UNL     1       7.436   6.968  17.374  0.00  0.00    +0.000 C 
ENDBRANCH  13  15
ENDBRANCH  11  13
ENDBRANCH   1  11
BRANCH   8  16
ATOM     16  O   UNL     1       1.810   8.134  20.201  0.00  0.00    +0.000 OA
ATOM     17  C   UNL     1       1.338   9.150  19.398  0.00  0.00    +0.000 C 
ENDBRANCH   8  16
BRANCH   4  18
ATOM     18  C   UNL     1       3.041   1.803  18.872  0.00  0.00    +0.000 C 
BRANCH  18  19
ATOM     19  N   UNL     1       3.952   0.742  18.446  0.00  0.00    +0.000 NA
ATOM     20  H   UNL     1       4.621   0.535  19.220  0.00  0.00    +0.000 HD
ATOM     21  H   UNL     1       4.508   1.094  17.635  0.00  0.00    +0.000 HD
ENDBRANCH  18  19
ENDBRANCH   4  18
TORSDOF 6
ENDMDL
MODEL 4
REMARK VINA RESULT:      -6.6      3.049      5.952
REMARK  Name = 
REMARK  8 active torsions:
REMARK  status: ('A' for Active; 'I' for Inactive)
REMARK    1  A    between atoms: C_1  and  C_2
REMARK    2  A    between atoms: C_2  and  O_3
REMARK    3  A    between atoms: O_3  and  C_4
REMARK    4  A    between atoms: C_4  and  C_6
REMARK    5  A    between atoms: C_9  and  C_10
REMARK    6  A    between atoms: C_10  and  N_11
REMARK    7  A    between atoms: C_15  and  O_16
REMARK    8  A    between atoms: O_16  and  C_17
REMARK                            x       y       z     vdW  Elec       q    Type
REMARK                         _______ _______ _______ _____ _____    ______ ____
ROOT
ATOM      1  C   UNL     1       4.988   5.631  17.238  0.00  0.00    +0.000 A 
ATOM      2  C   UNL     1       5.518   4.333  17.244  0.00  0.00    +0.000 A 
ATOM      3  N   UNL     1       5.121   3.425  18.162  0.00  0.00    +0.000 NA
ATOM      4  C   UNL     1       4.190   3.695  19.110  0.00  0.00    +0.000 A 
ATOM      5  C   UNL     1       3.562   4.966  19.130  0.00  0.00    +0.000 A 
ATOM      6  C   UNL     1       2.554   5.281  20.063  0.00  0.00    +0.000 A 
ATOM      7  C   UNL     1       1.928   6.527  20.050  0.00  0.00    +0.000 A 
ATOM      8  C   UNL     1       2.293   7.493  19.099  0.00  0.00    +0.000 A 
ATOM      9  C   UNL     1       3.301   7.198  18.182  0.00  0.00    +0.000 A 
ATOM     10  C   UNL     1       3.961   5.947  18.175  0.00  0.00    +0.000 A 
ENDROOT
BRANCH   1  11
ATOM     11  C   UNL     1       5.593   6.605  16.284  0.00  0.00    +0.000 C 
ATOM     12  O   UNL     1       4.991   6.917  15.264  0.00  0.00    +0.000 OA
BRANCH  11  13
ATOM     13  O   UNL     1       6.883   6.995  16.451  0.00  0.00    +0.000 OA
BRANCH  13  15
ATOM     14  C   UNL     1       7.918   8.722  17.759  0.00  0.00    +0.000 C 
ATOM     15  C   UNL     1       7.496   7.255  17.662  0.00  0.00    +0.000 C 
ENDBRANCH  13  15
ENDBRANCH  11  13
ENDBRANCH   1  11
BRANCH   8  16
ATOM     16  O   UNL     1       1.698   8.713  19.022  0.00  0.00    +0.000 OA
ATOM     17  C   UNL     1       1.046   9.370  20.043  0.00  0.00    +0.000 C 
ENDBRANCH   8  16
BRANCH   4  18
ATOM     18  C   UNL     1       3.887   2.596  20.100  0.00  0.00    +0.000 C 
BRANCH  18  19
ATOM     19  N   UNL     1       5.022   1.682  20.216  0.00  0.00    +0.000 NA
ATOM     20  H   UNL     1       4.898   0.897  19.539  0.00  0.00    +0.000 HD
ATOM     21  H   UNL     1       5.016   1.273  21.176  0.00  0.00    +0.000 HD
ENDBRANCH  18  19
ENDBRANCH   4  18
TORSDOF 6
ENDMDL
MODEL 5
REMARK VINA RESULT:      -6.5      2.834      5.507
REMARK  Name = 
REMARK  8 active torsions:
REMARK  status: ('A' for Active; 'I' for Inactive)
REMARK    1  A    between atoms: C_1  and  C_2
REMARK    2  A    between atoms: C_2  and  O_3
REMARK    3  A    between atoms: O_3  and  C_4
REMARK    4  A    between atoms: C_4  and  C_6
REMARK    5  A    between atoms: C_9  and  C_10
REMARK    6  A    between atoms: C_10  and  N_11
REMARK    7  A    between atoms: C_15  and  O_16
REMARK    8  A    between atoms: O_16  and  C_17
REMARK                            x       y       z     vdW  Elec       q    Type
REMARK                         _______ _______ _______ _____ _____    ______ ____
ROOT
ATOM      1  C   UNL     1       4.253   3.974  17.566  0.00  0.00    +0.000 A 
ATOM      2  C   UNL     1       4.057   2.649  17.981  0.00  0.00    +0.000 A 
ATOM      3  N   UNL     1       3.242   2.360  19.019  0.00  0.00    +0.000 NA
ATOM      4  C   UNL     1       2.558   3.309  19.706  0.00  0.00    +0.000 A 
ATOM      5  C   UNL     1       2.657   4.665  19.306  0.00  0.00    +0.000 A 
ATOM      6  C   UNL     1       1.931   5.685  19.955  0.00  0.00    +0.000 A 
ATOM      7  C   UNL     1       2.018   7.010  19.530  0.00  0.00    +0.000 A 
ATOM      8  C   UNL     1       2.836   7.353  18.442  0.00  0.00    +0.000 A 
ATOM      9  C   UNL     1       3.572   6.355  17.804  0.00  0.00    +0.000 A 
ATOM     10  C   UNL     1       3.511   5.003  18.216  0.00  0.00    +0.000 A 
ENDROOT
BRANCH   1  11
ATOM     11  C   UNL     1       5.282   4.207  16.512  0.00  0.00    +0.000 C 
ATOM     12  O   UNL     1       4.946   4.289  15.337  0.00  0.00    +0.000 OA
BRANCH  11  13
ATOM     13  O   UNL     1       6.599   4.138  16.833  0.00  0.00    +0.000 OA
BRANCH  13  15
ATOM     14  C   UNL     1       7.237   6.422  17.215  0.00  0.00    +0.000 C 
ATOM     15  C   UNL     1       7.260   4.975  17.712  0.00  0.00    +0.000 C 
ENDBRANCH  13  15
ENDBRANCH  11  13
ENDBRANCH   1  11
BRANCH   8  16
ATOM     16  O   UNL     1       2.938   8.622  17.968  0.00  0.00    +0.000 OA
ATOM     17  C   UNL     1       1.930   9.562  17.924  0.00  0.00    +0.000 C 
ENDBRANCH   8  16
BRANCH   4  18
ATOM     18  C   UNL     1       1.728   2.839  20.875  0.00  0.00    +0.000 C 
BRANCH  18  19
ATOM     19  N   UNL     1       2.569   2.630  22.052  0.00  0.00    +0.000 NA
ATOM     20  H   UNL     1       2.951   1.659  22.030  0.00  0.00    +0.000 HD
ATOM     21  H   UNL     1       1.969   2.713  22.902  0.00  0.00    +0.000 HD
ENDBRANCH  18  19
ENDBRANCH   4  18
TORSDOF 6
ENDMDL
MODEL 6
REMARK VINA RESULT:      -6.5      2.709      4.149
REMARK  Name = 
REMARK  8 active torsions:
REMARK  status: ('A' for Active; 'I' for Inactive)
REMARK    1  A    between atoms: C_1  and  C_2
REMARK    2  A    between atoms: C_2  and  O_3
REMARK    3  A    between atoms: O_3  and  C_4
REMARK    4  A    between atoms: C_4  and  C_6
REMARK    5  A    between atoms: C_9  and  C_10
REMARK    6  A    between atoms: C_10  and  N_11
REMARK    7  A    between atoms: C_15  and  O_16
REMARK    8  A    between atoms: O_16  and  C_17
REMARK                            x       y       z     vdW  Elec       q    Type
REMARK                         _______ _______ _______ _____ _____    ______ ____
ROOT
ATOM      1  C   UNL     1       2.665   3.749  18.238  0.00  0.00    +0.000 A 
ATOM      2  C   UNL     1       3.528   2.707  17.871  0.00  0.00    +0.000 A 
ATOM      3  N   UNL     1       4.671   2.956  17.198  0.00  0.00    +0.000 NA
ATOM      4  C   UNL     1       5.065   4.207  16.852  0.00  0.00    +0.000 A 
ATOM      5  C   UNL     1       4.277   5.319  17.242  0.00  0.00    +0.000 A 
ATOM      6  C   UNL     1       4.665   6.643  16.951  0.00  0.00    +0.000 A 
ATOM      7  C   UNL     1       3.891   7.725  17.367  0.00  0.00    +0.000 A 
ATOM      8  C   UNL     1       2.706   7.513  18.089  0.00  0.00    +0.000 A 
ATOM      9  C   UNL     1       2.304   6.208  18.368  0.00  0.00    +0.000 A 
ATOM     10  C   UNL     1       3.062   5.088  17.952  0.00  0.00    +0.000 A 
ENDROOT
BRANCH   1  11
ATOM     11  C   UNL     1       1.358   3.365  18.845  0.00  0.00    +0.000 C 
ATOM     12  O   UNL     1       0.584   2.645  18.226  0.00  0.00    +0.000 OA
BRANCH  11  13
ATOM     13  O   UNL     1       0.949   3.963  19.993  0.00  0.00    +0.000 OA
BRANCH  13  15
ATOM     14  C   UNL     1       1.841   2.560  21.725  0.00  0.00    +0.000 C 
ATOM     15  C   UNL     1       1.644   3.978  21.187  0.00  0.00    +0.000 C 
ENDBRANCH  13  15
ENDBRANCH  11  13
ENDBRANCH   1  11
BRANCH   8  16
ATOM     16  O   UNL     1       1.928   8.531  18.543  0.00  0.00    +0.000 OA
ATOM     17  C   UNL     1       1.783   9.772  17.961  0.00  0.00    +0.000 C 
ENDBRANCH   8  16
BRANCH   4  18
ATOM     18  C   UNL     1       6.341   4.324  16.056  0.00  0.00    +0.000 C 
BRANCH  18  19
ATOM     19  N   UNL     1       7.500   4.373  16.946  0.00  0.00    +0.000 NA
ATOM     20  H   UNL     1       8.349   4.076  16.417  0.00  0.00    +0.000 HD
ATOM     21  H   UNL     1       7.352   3.683  17.715  0.00  0.00    +0.000 HD
ENDBRANCH  18  19
ENDBRANCH   4  18
TORSDOF 6
ENDMDL
MODEL 7
REMARK VINA RESULT:      -6.3      3.370      5.996
REMARK  Name = 
REMARK  8 active torsions:
REMARK  status: ('A' for Active; 'I' for Inactive)
REMARK    1  A    between atoms: C_1  and  C_2
REMARK    2  A    between atoms: C_2  and  O_3
REMARK    3  A    between atoms: O_3  and  C_4
REMARK    4  A    between atoms: C_4  and  C_6
REMARK    5  A    between atoms: C_9  and  C_10
REMARK    6  A    between atoms: C_10  and  N_11
REMARK    7  A    between atoms: C_15  and  O_16
REMARK    8  A    between atoms: O_16  and  C_17
REMARK                            x       y       z     vdW  Elec       q    Type
REMARK                         _______ _______ _______ _____ _____    ______ ____
ROOT
ATOM      1  C   UNL     1       6.048   5.735  17.835  0.00  0.00    +0.000 A 
ATOM      2  C   UNL     1       6.442   4.463  18.276  0.00  0.00    +0.000 A 
ATOM      3  N   UNL     1       5.590   3.672  18.962  0.00  0.00    +0.000 NA
ATOM      4  C   UNL     1       4.316   4.037  19.253  0.00  0.00    +0.000 A 
ATOM      5  C   UNL     1       3.825   5.283  18.788  0.00  0.00    +0.000 A 
ATOM      6  C   UNL     1       2.496   5.690  19.020  0.00  0.00    +0.000 A 
ATOM      7  C   UNL     1       2.022   6.906  18.531  0.00  0.00    +0.000 A 
ATOM      8  C   UNL     1       2.866   7.750  17.792  0.00  0.00    +0.000 A 
ATOM      9  C   UNL     1       4.187   7.366  17.572  0.00  0.00    +0.000 A 
ATOM     10  C   UNL     1       4.701   6.143  18.062  0.00  0.00    +0.000 A 
ENDROOT
BRANCH   1  11
ATOM     11  C   UNL     1       7.100   6.593  17.218  0.00  0.00    +0.000 C 
ATOM     12  O   UNL     1       7.485   6.363  16.078  0.00  0.00    +0.000 OA
BRANCH  11  13
ATOM     13  O   UNL     1       7.760   7.501  17.981  0.00  0.00    +0.000 OA
BRANCH  13  15
ATOM     14  C   UNL     1       8.820   9.529  18.711  0.00  0.00    +0.000 C 
ATOM     15  C   UNL     1       7.910   8.843  17.690  0.00  0.00    +0.000 C 
ENDBRANCH  13  15
ENDBRANCH  11  13
ENDBRANCH   1  11
BRANCH   8  16
ATOM     16  O   UNL     1       2.450   8.933  17.268  0.00  0.00    +0.000 OA
ATOM     17  C   UNL     1       1.830   9.957  17.952  0.00  0.00    +0.000 C 
ENDBRANCH   8  16
BRANCH   4  18
ATOM     18  C   UNL     1       3.500   3.069  20.073  0.00  0.00    +0.000 C 
BRANCH  18  19
ATOM     19  N   UNL     1       2.848   2.086  19.208  0.00  0.00    +0.000 NA
ATOM     20  H   UNL     1       3.553   1.692  18.547  0.00  0.00    +0.000 HD
ATOM     21  H   UNL     1       2.124   2.578  18.640  0.00  0.00    +0.000 HD
ENDBRANCH  18  19
ENDBRANCH   4  18
TORSDOF 6
ENDMDL
MODEL 8
REMARK VINA RESULT:      -6.3      3.146      5.858
REMARK  Name = 
REMARK  8 active torsions:
REMARK  status: ('A' for Active; 'I' for Inactive)
REMARK    1  A    between atoms: C_1  and  C_2
REMARK    2  A    between atoms: C_2  and  O_3
REMARK    3  A    between atoms: O_3  and  C_4
REMARK    4  A    between atoms: C_4  and  C_6
REMARK    5  A    between atoms: C_9  and  C_10
REMARK    6  A    between atoms: C_10  and  N_11
REMARK    7  A    between atoms: C_15  and  O_16
REMARK    8  A    between atoms: O_16  and  C_17
REMARK                            x       y       z     vdW  Elec       q    Type
REMARK                         _______ _______ _______ _____ _____    ______ ____
ROOT
ATOM      1  C   UNL     1       4.846   5.489  17.182  0.00  0.00    +0.000 A 
ATOM      2  C   UNL     1       5.139   4.131  17.373  0.00  0.00    +0.000 A 
ATOM      3  N   UNL     1       4.550   3.427  18.363  0.00  0.00    +0.000 NA
ATOM      4  C   UNL     1       3.641   3.967  19.213  0.00  0.00    +0.000 A 
ATOM      5  C   UNL     1       3.247   5.318  19.044  0.00  0.00    +0.000 A 
ATOM      6  C   UNL     1       2.271   5.914  19.869  0.00  0.00    +0.000 A 
ATOM      7  C   UNL     1       1.874   7.236  19.670  0.00  0.00    +0.000 A 
ATOM      8  C   UNL     1       2.443   7.999  18.639  0.00  0.00    +0.000 A 
ATOM      9  C   UNL     1       3.422   7.425  17.829  0.00  0.00    +0.000 A 
ATOM     10  C   UNL     1       3.852   6.090  18.010  0.00  0.00    +0.000 A 
ENDROOT
BRANCH   1  11
ATOM     11  C   UNL     1       5.653   6.219  16.162  0.00  0.00    +0.000 C 
ATOM     12  O   UNL     1       5.209   6.378  15.031  0.00  0.00    +0.000 OA
BRANCH  11  13
ATOM     13  O   UNL     1       6.945   6.536  16.430  0.00  0.00    +0.000 OA
BRANCH  13  15
ATOM     14  C   UNL     1       7.915   6.557  18.627  0.00  0.00    +0.000 C 
ATOM     15  C   UNL     1       7.378   7.367  17.446  0.00  0.00    +0.000 C 
ENDBRANCH  13  15
ENDBRANCH  11  13
ENDBRANCH   1  11
BRANCH   8  16
ATOM     16  O   UNL     1       2.076   9.282  18.383  0.00  0.00    +0.000 OA
ATOM     17  C   UNL     1       0.810   9.721  18.058  0.00  0.00    +0.000 C 
ENDBRANCH   8  16
BRANCH   4  18
ATOM     18  C   UNL     1       3.109   3.069  20.302  0.00  0.00    +0.000 C 
BRANCH  18  19
ATOM     19  N   UNL     1       1.989   2.269  19.808  0.00  0.00    +0.000 NA
ATOM     20  H   UNL     1       2.316   1.294  19.634  0.00  0.00    +0.000 HD
ATOM     21  H   UNL     1       1.681   2.666  18.893  0.00  0.00    +0.000 HD
ENDBRANCH  18  19
ENDBRANCH   4  18
TORSDOF 6
ENDMDL
MODEL 9
REMARK VINA RESULT:      -6.3      2.414      3.133
REMARK  Name = 
REMARK  8 active torsions:
REMARK  status: ('A' for Active; 'I' for Inactive)
REMARK    1  A    between atoms: C_1  and  C_2
REMARK    2  A    between atoms: C_2  and  O_3
REMARK    3  A    between atoms: O_3  and  C_4
REMARK    4  A    between atoms: C_4  and  C_6
REMARK    5  A    between atoms: C_9  and  C_10
REMARK    6  A    between atoms: C_10  and  N_11
REMARK    7  A    between atoms: C_15  and  O_16
REMARK    8  A    between atoms: O_16  and  C_17
REMARK                            x       y       z     vdW  Elec       q    Type
REMARK                         _______ _______ _______ _____ _____    ______ ____
ROOT
ATOM      1  C   UNL     1       3.662   4.478  18.974  0.00  0.00    +0.000 A 
ATOM      2  C   UNL     1       2.826   5.328  19.712  0.00  0.00    +0.000 A 
ATOM      3  N   UNL     1       2.624   6.608  19.329  0.00  0.00    +0.000 NA
ATOM      4  C   UNL     1       3.190   7.142  18.218  0.00  0.00    +0.000 A 
ATOM      5  C   UNL     1       3.997   6.327  17.386  0.00  0.00    +0.000 A 
ATOM      6  C   UNL     1       4.569   6.820  16.195  0.00  0.00    +0.000 A 
ATOM      7  C   UNL     1       5.337   5.996  15.374  0.00  0.00    +0.000 A 
ATOM      8  C   UNL     1       5.555   4.653  15.721  0.00  0.00    +0.000 A 
ATOM      9  C   UNL     1       5.009   4.161  16.906  0.00  0.00    +0.000 A 
ATOM     10  C   UNL     1       4.232   4.973  17.764  0.00  0.00    +0.000 A 
ENDROOT
BRANCH   1  11
ATOM     11  C   UNL     1       3.941   3.133  19.554  0.00  0.00    +0.000 C 
ATOM     12  O   UNL     1       5.065   2.864  19.960  0.00  0.00    +0.000 OA
BRANCH  11  13
ATOM     13  O   UNL     1       3.008   2.152  19.455  0.00  0.00    +0.000 OA
BRANCH  13  15
ATOM     14  C   UNL     1       0.699   2.359  18.827  0.00  0.00    +0.000 C 
ATOM     15  C   UNL     1       2.122   1.984  18.408  0.00  0.00    +0.000 C 
ENDBRANCH  13  15
ENDBRANCH  11  13
ENDBRANCH   1  11
BRANCH   8  16
ATOM     16  O   UNL     1       6.272   3.798  14.945  0.00  0.00    +0.000 OA
ATOM     17  C   UNL     1       6.300   3.773  13.568  0.00  0.00    +0.000 C 
ENDBRANCH   8  16
BRANCH   4  18
ATOM     18  C   UNL     1       2.913   8.601  17.948  0.00  0.00    +0.000 C 
BRANCH  18  19
ATOM     19  N   UNL     1       1.474   8.842  17.850  0.00  0.00    +0.000 NA
ATOM     20  H   UNL     1       1.284   9.444  17.019  0.00  0.00    +0.000 HD
ATOM     21  H   UNL     1       1.172   9.371  18.698  0.00  0.00    +0.000 HD
ENDBRANCH  18  19
ENDBRANCH   4  18
TORSDOF 6
ENDMDL
