MODEL 1
REMARK VINA RESULT:      -8.0      0.000      0.000
REMARK  Name = 
REMARK  6 active torsions:
REMARK  status: ('A' for Active; 'I' for Inactive)
REMARK    1  A    between atoms: C_1  and  C_2
REMARK    2  A    between atoms: C_8  and  N_9
REMARK    3  A    between atoms: C_10  and  C_12
REMARK    4  A    between atoms: C_12  and  C_13
REMARK    5  A    between atoms: C_19  and  C_20
REMARK    6  A    between atoms: N_22  and  C_23
REMARK                            x       y       z     vdW  Elec       q    Type
REMARK                         _______ _______ _______ _____ _____    ______ ____
ROOT
ATOM      1  C   UNL     1      -1.870  10.977  18.959  0.00  0.00    +0.000 C 
ATOM      2  C   UNL     1      -0.657  11.632  19.632  0.00  0.00    +0.000 C 
ATOM      3  C   UNL     1       0.522  11.763  18.651  0.00  0.00    +0.000 C 
ATOM      4  C   UNL     1       1.070  10.405  18.194  0.00  0.00    +0.000 C 
ATOM      5  C   UNL     1       1.196   9.426  19.335  0.00  0.00    +0.000 A 
ATOM      6  C   UNL     1       0.597   9.656  20.558  0.00  0.00    +0.000 A 
ATOM      7  S   UNL     1       0.960   8.440  21.689  0.00  0.00    +0.000 S 
ATOM      8  C   UNL     1       1.772   7.503  20.516  0.00  0.00    +0.000 A 
ATOM      9  C   UNL     1       1.904   8.156  19.298  0.00  0.00    +0.000 A 
ATOM     10  C   UNL     1      -0.218  10.869  20.906  0.00  0.00    +0.000 C 
ENDROOT
BRANCH   8  11
ATOM     11  N   UNL     1       2.224   6.292  21.022  0.00  0.00    +0.000 N 
ATOM     12  C   UNL     1       1.453   5.151  20.876  0.00  0.00    +0.000 C 
ATOM     13  O   UNL     1       0.343   5.124  20.341  0.00  0.00    +0.000 OA
ATOM     14  H   UNL     1       2.733   6.352  21.897  0.00  0.00    +0.000 HD
BRANCH  12  15
ATOM     15  C   UNL     1       2.090   3.881  21.414  0.00  0.00    +0.000 C 
BRANCH  15  16
ATOM     16  C   UNL     1       2.643   2.980  20.342  0.00  0.00    +0.000 A 
ATOM     17  C   UNL     1       4.002   2.636  20.318  0.00  0.00    +0.000 A 
ATOM     18  C   UNL     1       4.507   1.809  19.314  0.00  0.00    +0.000 A 
ATOM     19  C   UNL     1       3.657   1.304  18.333  0.00  0.00    +0.000 A 
ATOM     20  C   UNL     1       2.298   1.608  18.368  0.00  0.00    +0.000 A 
ATOM     21  C   UNL     1       1.791   2.437  19.370  0.00  0.00    +0.000 A 
ENDBRANCH  15  16
ENDBRANCH  12  15
ENDBRANCH   8  11
BRANCH   9  22
ATOM     22  C   UNL     1       2.746   7.770  18.158  0.00  0.00    +0.000 C 
ATOM     23  O   UNL     1       2.742   8.457  17.142  0.00  0.00    +0.000 OA
ATOM     24  N   UNL     1       3.459   6.603  18.301  0.00  0.00    +0.000 N 
ATOM     25  H   UNL     1       3.200   6.019  19.094  0.00  0.00    +0.000 HD
BRANCH  24  26
ATOM     26  C   UNL     1       4.370   6.051  17.385  0.00  0.00    +0.000 A 
ATOM     27  C   UNL     1       5.507   6.726  16.933  0.00  0.00    +0.000 A 
ATOM     28  C   UNL     1       6.331   6.162  15.958  0.00  0.00    +0.000 A 
ATOM     29  C   UNL     1       6.030   4.906  15.446  0.00  0.00    +0.000 A 
ATOM     30 CL   UNL     1       7.009   4.232  14.204  0.00  0.00    +0.000 Cl
ATOM     31  C   UNL     1       4.932   4.200  15.928  0.00  0.00    +0.000 A 
ATOM     32  C   UNL     1       4.108   4.766  16.903  0.00  0.00    +0.000 A 
ENDBRANCH  24  26
ENDBRANCH   9  22
TORSDOF 5
ENDMDL
MODEL 2
REMARK VINA RESULT:      -7.2      3.890      7.947
REMARK  Name = 
REMARK  6 active torsions:
REMARK  status: ('A' for Active; 'I' for Inactive)
REMARK    1  A    between atoms: C_1  and  C_2
REMARK    2  A    between atoms: C_8  and  N_9
REMARK    3  A    between atoms: C_10  and  C_12
REMARK    4  A    between atoms: C_12  and  C_13
REMARK    5  A    between atoms: C_19  and  C_20
REMARK    6  A    between atoms: N_22  and  C_23
REMARK                            x       y       z     vdW  Elec       q    Type
REMARK                         _______ _______ _______ _____ _____    ______ ____
ROOT
ATOM      1  C   UNL     1       1.211   1.867  18.852  0.00  0.00    +0.000 C 
ATOM      2  C   UNL     1       2.018   2.161  20.122  0.00  0.00    +0.000 C 
ATOM      3  C   UNL     1       1.415   3.343  20.905  0.00  0.00    +0.000 C 
ATOM      4  C   UNL     1       1.487   4.667  20.133  0.00  0.00    +0.000 C 
ATOM      5  C   UNL     1       2.822   4.864  19.460  0.00  0.00    +0.000 A 
ATOM      6  C   UNL     1       3.725   3.828  19.321  0.00  0.00    +0.000 A 
ATOM      7  S   UNL     1       5.178   4.335  18.599  0.00  0.00    +0.000 S 
ATOM      8  C   UNL     1       4.558   5.898  18.302  0.00  0.00    +0.000 A 
ATOM      9  C   UNL     1       3.306   6.100  18.867  0.00  0.00    +0.000 A 
ATOM     10  C   UNL     1       3.512   2.425  19.812  0.00  0.00    +0.000 C 
ENDROOT
BRANCH   8  11
ATOM     11  N   UNL     1       5.457   6.706  17.618  0.00  0.00    +0.000 N 
ATOM     12  C   UNL     1       6.771   6.794  18.044  0.00  0.00    +0.000 C 
ATOM     13  O   UNL     1       7.222   6.217  19.035  0.00  0.00    +0.000 OA
ATOM     14  H   UNL     1       5.070   7.569  17.253  0.00  0.00    +0.000 HD
BRANCH  12  15
ATOM     15  C   UNL     1       7.665   7.658  17.171  0.00  0.00    +0.000 C 
BRANCH  15  16
ATOM     16  C   UNL     1       8.148   8.912  17.852  0.00  0.00    +0.000 A 
ATOM     17  C   UNL     1       8.953   8.847  18.998  0.00  0.00    +0.000 A 
ATOM     18  C   UNL     1       9.387  10.015  19.627  0.00  0.00    +0.000 A 
ATOM     19  C   UNL     1       9.033  11.259  19.110  0.00  0.00    +0.000 A 
ATOM     20  C   UNL     1       8.265  11.336  17.951  0.00  0.00    +0.000 A 
ATOM     21  C   UNL     1       7.828  10.169  17.321  0.00  0.00    +0.000 A 
ENDBRANCH  15  16
ENDBRANCH  12  15
ENDBRANCH   8  11
BRANCH   9  22
ATOM     22  C   UNL     1       2.589   7.372  19.029  0.00  0.00    +0.000 C 
ATOM     23  O   UNL     1       2.541   8.164  18.094  0.00  0.00    +0.000 OA
ATOM     24  N   UNL     1       2.052   7.609  20.273  0.00  0.00    +0.000 N 
ATOM     25  H   UNL     1       2.356   6.980  21.014  0.00  0.00    +0.000 HD
BRANCH  24  26
ATOM     26  C   UNL     1       1.280   8.716  20.664  0.00  0.00    +0.000 A 
ATOM     27  C   UNL     1       0.797   8.894  21.962  0.00  0.00    +0.000 A 
ATOM     28  C   UNL     1      -0.035   9.971  22.273  0.00  0.00    +0.000 A 
ATOM     29  C   UNL     1      -0.370  10.888  21.284  0.00  0.00    +0.000 A 
ATOM     30 CL   UNL     1      -1.440  12.183  21.648  0.00  0.00    +0.000 Cl
ATOM     31  C   UNL     1       0.150  10.753  20.001  0.00  0.00    +0.000 A 
ATOM     32  C   UNL     1       0.981   9.674  19.692  0.00  0.00    +0.000 A 
ENDBRANCH  24  26
ENDBRANCH   9  22
TORSDOF 5
ENDMDL
MODEL 3
REMARK VINA RESULT:      -7.2      4.219      7.537
REMARK  Name = 
REMARK  6 active torsions:
REMARK  status: ('A' for Active; 'I' for Inactive)
REMARK    1  A    between atoms: C_1  and  C_2
REMARK    2  A    between atoms: C_8  and  N_9
REMARK    3  A    between atoms: C_10  and  C_12
REMARK    4  A    between atoms: C_12  and  C_13
REMARK    5  A    between atoms: C_19  and  C_20
REMARK    6  A    between atoms: N_22  and  C_23
REMARK                            x       y       z     vdW  Elec       q    Type
REMARK                         _______ _______ _______ _____ _____    ______ ____
ROOT
ATOM      1  C   UNL     1       4.007  16.485  19.641  0.00  0.00    +0.000 C 
ATOM      2  C   UNL     1       3.241  16.554  20.967  0.00  0.00    +0.000 C 
ATOM      3  C   UNL     1       3.502  15.303  21.827  0.00  0.00    +0.000 C 
ATOM      4  C   UNL     1       2.968  14.016  21.184  0.00  0.00    +0.000 C 
ATOM      5  C   UNL     1       1.594  14.200  20.591  0.00  0.00    +0.000 A 
ATOM      6  C   UNL     1       1.049  15.455  20.399  0.00  0.00    +0.000 A 
ATOM      7  S   UNL     1      -0.537  15.379  19.791  0.00  0.00    +0.000 S 
ATOM      8  C   UNL     1      -0.455  13.683  19.611  0.00  0.00    +0.000 A 
ATOM      9  C   UNL     1       0.710  13.140  20.136  0.00  0.00    +0.000 A 
ATOM     10  C   UNL     1       1.720  16.752  20.749  0.00  0.00    +0.000 C 
ENDROOT
BRANCH   8  11
ATOM     11  N   UNL     1      -1.605  13.152  19.045  0.00  0.00    +0.000 N 
ATOM     12  C   UNL     1      -2.565  12.563  19.851  0.00  0.00    +0.000 C 
ATOM     13  O   UNL     1      -2.467  12.439  21.073  0.00  0.00    +0.000 OA
ATOM     14  H   UNL     1      -1.477  12.707  18.143  0.00  0.00    +0.000 HD
BRANCH  12  15
ATOM     15  C   UNL     1      -3.803  12.081  19.115  0.00  0.00    +0.000 C 
BRANCH  15  16
ATOM     16  C   UNL     1      -3.499  11.304  17.862  0.00  0.00    +0.000 A 
ATOM     17  C   UNL     1      -2.469  10.352  17.834  0.00  0.00    +0.000 A 
ATOM     18  C   UNL     1      -2.189   9.645  16.664  0.00  0.00    +0.000 A 
ATOM     19  C   UNL     1      -2.944   9.868  15.515  0.00  0.00    +0.000 A 
ATOM     20  C   UNL     1      -3.994  10.783  15.542  0.00  0.00    +0.000 A 
ATOM     21  C   UNL     1      -4.276  11.494  16.710  0.00  0.00    +0.000 A 
ENDBRANCH  15  16
ENDBRANCH  12  15
ENDBRANCH   8  11
BRANCH   9  22
ATOM     22  C   UNL     1       1.007  11.722  20.382  0.00  0.00    +0.000 C 
ATOM     23  O   UNL     1       1.018  11.296  21.532  0.00  0.00    +0.000 OA
ATOM     24  N   UNL     1       1.312  10.967  19.274  0.00  0.00    +0.000 N 
ATOM     25  H   UNL     1       1.489  11.488  18.417  0.00  0.00    +0.000 HD
BRANCH  24  26
ATOM     26  C   UNL     1       1.578   9.588  19.238  0.00  0.00    +0.000 A 
ATOM     27  C   UNL     1       1.430   8.749  20.346  0.00  0.00    +0.000 A 
ATOM     28  C   UNL     1       1.790   7.403  20.274  0.00  0.00    +0.000 A 
ATOM     29  C   UNL     1       2.281   6.885  19.082  0.00  0.00    +0.000 A 
ATOM     30 CL   UNL     1       2.779   5.241  19.006  0.00  0.00    +0.000 Cl
ATOM     31  C   UNL     1       2.381   7.696  17.957  0.00  0.00    +0.000 A 
ATOM     32  C   UNL     1       2.022   9.044  18.030  0.00  0.00    +0.000 A 
ENDBRANCH  24  26
ENDBRANCH   9  22
TORSDOF 5
ENDMDL
MODEL 4
REMARK VINA RESULT:      -7.1      3.331      7.233
REMARK  Name = 
REMARK  6 active torsions:
REMARK  status: ('A' for Active; 'I' for Inactive)
REMARK    1  A    between atoms: C_1  and  C_2
REMARK    2  A    between atoms: C_8  and  N_9
REMARK    3  A    between atoms: C_10  and  C_12
REMARK    4  A    between atoms: C_12  and  C_13
REMARK    5  A    between atoms: C_19  and  C_20
REMARK    6  A    between atoms: N_22  and  C_23
REMARK                            x       y       z     vdW  Elec       q    Type
REMARK                         _______ _______ _______ _____ _____    ______ ____
ROOT
ATOM      1  C   UNL     1       0.568   2.221  19.735  0.00  0.00    +0.000 C 
ATOM      2  C   UNL     1       1.726   2.533  20.692  0.00  0.00    +0.000 C 
ATOM      3  C   UNL     1       1.598   3.951  21.278  0.00  0.00    +0.000 C 
ATOM      4  C   UNL     1       1.722   5.049  20.213  0.00  0.00    +0.000 C 
ATOM      5  C   UNL     1       2.841   4.777  19.239  0.00  0.00    +0.000 A 
ATOM      6  C   UNL     1       3.452   3.541  19.162  0.00  0.00    +0.000 A 
ATOM      7  S   UNL     1       4.730   3.526  18.042  0.00  0.00    +0.000 S 
ATOM      8  C   UNL     1       4.374   5.112  17.518  0.00  0.00    +0.000 A 
ATOM      9  C   UNL     1       3.383   5.721  18.276  0.00  0.00    +0.000 A 
ATOM     10  C   UNL     1       3.105   2.352  20.011  0.00  0.00    +0.000 C 
ENDROOT
BRANCH   8  11
ATOM     11  N   UNL     1       5.199   5.528  16.482  0.00  0.00    +0.000 N 
ATOM     12  C   UNL     1       6.573   5.405  16.599  0.00  0.00    +0.000 C 
ATOM     13  O   UNL     1       7.151   4.967  17.596  0.00  0.00    +0.000 OA
ATOM     14  H   UNL     1       4.887   6.357  15.989  0.00  0.00    +0.000 HD
BRANCH  12  15
ATOM     15  C   UNL     1       7.356   5.835  15.371  0.00  0.00    +0.000 C 
BRANCH  15  16
ATOM     16  C   UNL     1       7.060   5.012  14.145  0.00  0.00    +0.000 A 
ATOM     17  C   UNL     1       6.056   4.033  14.157  0.00  0.00    +0.000 A 
ATOM     18  C   UNL     1       5.797   3.268  13.019  0.00  0.00    +0.000 A 
ATOM     19  C   UNL     1       6.527   3.483  11.853  0.00  0.00    +0.000 A 
ATOM     20  C   UNL     1       7.501   4.478  11.817  0.00  0.00    +0.000 A 
ATOM     21  C   UNL     1       7.764   5.243  12.955  0.00  0.00    +0.000 A 
ENDBRANCH  15  16
ENDBRANCH  12  15
ENDBRANCH   8  11
BRANCH   9  22
ATOM     22  C   UNL     1       3.000   7.140  18.278  0.00  0.00    +0.000 C 
ATOM     23  O   UNL     1       3.517   7.908  17.474  0.00  0.00    +0.000 OA
ATOM     24  N   UNL     1       2.100   7.521  19.246  0.00  0.00    +0.000 N 
ATOM     25  H   UNL     1       1.926   6.841  19.983  0.00  0.00    +0.000 HD
BRANCH  24  26
ATOM     26  C   UNL     1       1.540   8.797  19.423  0.00  0.00    +0.000 A 
ATOM     27  C   UNL     1       1.490   9.760  18.412  0.00  0.00    +0.000 A 
ATOM     28  C   UNL     1       0.997  11.040  18.669  0.00  0.00    +0.000 A 
ATOM     29  C   UNL     1       0.531  11.355  19.939  0.00  0.00    +0.000 A 
ATOM     30 CL   UNL     1      -0.023  12.947  20.276  0.00  0.00    +0.000 Cl
ATOM     31  C   UNL     1       0.524  10.388  20.940  0.00  0.00    +0.000 A 
ATOM     32  C   UNL     1       1.018   9.108  20.681  0.00  0.00    +0.000 A 
ENDBRANCH  24  26
ENDBRANCH   9  22
TORSDOF 5
ENDMDL
MODEL 5
REMARK VINA RESULT:      -7.1      3.520      7.178
REMARK  Name = 
REMARK  6 active torsions:
REMARK  status: ('A' for Active; 'I' for Inactive)
REMARK    1  A    between atoms: C_1  and  C_2
REMARK    2  A    between atoms: C_8  and  N_9
REMARK    3  A    between atoms: C_10  and  C_12
REMARK    4  A    between atoms: C_12  and  C_13
REMARK    5  A    between atoms: C_19  and  C_20
REMARK    6  A    between atoms: N_22  and  C_23
REMARK                            x       y       z     vdW  Elec       q    Type
REMARK                         _______ _______ _______ _____ _____    ______ ____
ROOT
ATOM      1  C   UNL     1       0.506   2.551  19.929  0.00  0.00    +0.000 C 
ATOM      2  C   UNL     1       1.871   2.616  20.625  0.00  0.00    +0.000 C 
ATOM      3  C   UNL     1       2.123   4.010  21.229  0.00  0.00    +0.000 C 
ATOM      4  C   UNL     1       2.222   5.111  20.165  0.00  0.00    +0.000 C 
ATOM      5  C   UNL     1       3.052   4.687  18.979  0.00  0.00    +0.000 A 
ATOM      6  C   UNL     1       3.401   3.367  18.773  0.00  0.00    +0.000 A 
ATOM      7  S   UNL     1       4.400   3.173  17.412  0.00  0.00    +0.000 S 
ATOM      8  C   UNL     1       4.237   4.816  16.978  0.00  0.00    +0.000 A 
ATOM      9  C   UNL     1       3.547   5.559  17.926  0.00  0.00    +0.000 A 
ATOM     10  C   UNL     1       3.027   2.223  19.672  0.00  0.00    +0.000 C 
ENDROOT
BRANCH   8  11
ATOM     11  N   UNL     1       4.894   5.122  15.794  0.00  0.00    +0.000 N 
ATOM     12  C   UNL     1       6.223   4.772  15.630  0.00  0.00    +0.000 C 
ATOM     13  O   UNL     1       6.908   4.215  16.490  0.00  0.00    +0.000 OA
ATOM     14  H   UNL     1       4.632   6.006  15.371  0.00  0.00    +0.000 HD
BRANCH  12  15
ATOM     15  C   UNL     1       6.804   5.104  14.266  0.00  0.00    +0.000 C 
BRANCH  15  16
ATOM     16  C   UNL     1       6.394   4.142  13.183  0.00  0.00    +0.000 A 
ATOM     17  C   UNL     1       7.353   3.431  12.448  0.00  0.00    +0.000 A 
ATOM     18  C   UNL     1       6.963   2.549  11.439  0.00  0.00    +0.000 A 
ATOM     19  C   UNL     1       5.611   2.357  11.164  0.00  0.00    +0.000 A 
ATOM     20  C   UNL     1       4.648   3.030  11.912  0.00  0.00    +0.000 A 
ATOM     21  C   UNL     1       5.035   3.914  12.921  0.00  0.00    +0.000 A 
ENDBRANCH  15  16
ENDBRANCH  12  15
ENDBRANCH   8  11
BRANCH   9  22
ATOM     22  C   UNL     1       3.434   7.021  18.013  0.00  0.00    +0.000 C 
ATOM     23  O   UNL     1       4.377   7.723  17.663  0.00  0.00    +0.000 OA
ATOM     24  N   UNL     1       2.262   7.507  18.544  0.00  0.00    +0.000 N 
ATOM     25  H   UNL     1       1.664   6.821  18.999  0.00  0.00    +0.000 HD
BRANCH  24  26
ATOM     26  C   UNL     1       1.892   8.855  18.682  0.00  0.00    +0.000 A 
ATOM     27  C   UNL     1       2.262   9.849  17.772  0.00  0.00    +0.000 A 
ATOM     28  C   UNL     1       1.936  11.186  18.005  0.00  0.00    +0.000 A 
ATOM     29  C   UNL     1       1.217  11.530  19.143  0.00  0.00    +0.000 A 
ATOM     30 CL   UNL     1       0.864  13.182  19.463  0.00  0.00    +0.000 Cl
ATOM     31  C   UNL     1       0.795  10.543  20.028  0.00  0.00    +0.000 A 
ATOM     32  C   UNL     1       1.123   9.206  19.794  0.00  0.00    +0.000 A 
ENDBRANCH  24  26
ENDBRANCH   9  22
TORSDOF 5
ENDMDL
MODEL 6
REMARK VINA RESULT:      -7.1      0.354      1.266
REMARK  Name = 
REMARK  6 active torsions:
REMARK  status: ('A' for Active; 'I' for Inactive)
REMARK    1  A    between atoms: C_1  and  C_2
REMARK    2  A    between atoms: C_8  and  N_9
REMARK    3  A    between atoms: C_10  and  C_12
REMARK    4  A    between atoms: C_12  and  C_13
REMARK    5  A    between atoms: C_19  and  C_20
REMARK    6  A    between atoms: N_22  and  C_23
REMARK                            x       y       z     vdW  Elec       q    Type
REMARK                         _______ _______ _______ _____ _____    ______ ____
ROOT
ATOM      1  C   UNL     1      -2.101  11.036  18.952  0.00  0.00    +0.000 C 
ATOM      2  C   UNL     1      -0.887  11.733  19.579  0.00  0.00    +0.000 C 
ATOM      3  C   UNL     1       0.261  11.874  18.563  0.00  0.00    +0.000 C 
ATOM      4  C   UNL     1       0.830  10.522  18.115  0.00  0.00    +0.000 C 
ATOM      5  C   UNL     1       1.012   9.567  19.268  0.00  0.00    +0.000 A 
ATOM      6  C   UNL     1       0.442   9.805  20.504  0.00  0.00    +0.000 A 
ATOM      7  S   UNL     1       0.865   8.619  21.645  0.00  0.00    +0.000 S 
ATOM      8  C   UNL     1       1.669   7.681  20.466  0.00  0.00    +0.000 A 
ATOM      9  C   UNL     1       1.750   8.315  19.234  0.00  0.00    +0.000 A 
ATOM     10  C   UNL     1      -0.394  11.003  20.853  0.00  0.00    +0.000 C 
ENDROOT
BRANCH   8  11
ATOM     11  N   UNL     1       2.164   6.491  20.980  0.00  0.00    +0.000 N 
ATOM     12  C   UNL     1       1.393   5.341  20.930  0.00  0.00    +0.000 C 
ATOM     13  O   UNL     1       0.249   5.290  20.476  0.00  0.00    +0.000 OA
ATOM     14  H   UNL     1       2.734   6.584  21.814  0.00  0.00    +0.000 HD
BRANCH  12  15
ATOM     15  C   UNL     1       2.077   4.095  21.464  0.00  0.00    +0.000 C 
BRANCH  15  16
ATOM     16  C   UNL     1       2.614   3.189  20.388  0.00  0.00    +0.000 A 
ATOM     17  C   UNL     1       1.770   2.303  19.702  0.00  0.00    +0.000 A 
ATOM     18  C   UNL     1       2.280   1.461  18.713  0.00  0.00    +0.000 A 
ATOM     19  C   UNL     1       3.633   1.506  18.387  0.00  0.00    +0.000 A 
ATOM     20  C   UNL     1       4.473   2.407  19.035  0.00  0.00    +0.000 A 
ATOM     21  C   UNL     1       3.967   3.250  20.027  0.00  0.00    +0.000 A 
ENDBRANCH  15  16
ENDBRANCH  12  15
ENDBRANCH   8  11
BRANCH   9  22
ATOM     22  C   UNL     1       2.570   7.929  18.078  0.00  0.00    +0.000 C 
ATOM     23  O   UNL     1       2.462   8.549  17.025  0.00  0.00    +0.000 OA
ATOM     24  N   UNL     1       3.385   6.835  18.253  0.00  0.00    +0.000 N 
ATOM     25  H   UNL     1       3.212   6.283  19.090  0.00  0.00    +0.000 HD
BRANCH  24  26
ATOM     26  C   UNL     1       4.297   6.304  17.326  0.00  0.00    +0.000 A 
ATOM     27  C   UNL     1       4.107   5.082  16.676  0.00  0.00    +0.000 A 
ATOM     28  C   UNL     1       5.087   4.564  15.828  0.00  0.00    +0.000 A 
ATOM     29  C   UNL     1       6.256   5.281  15.611  0.00  0.00    +0.000 A 
ATOM     30 CL   UNL     1       7.491   4.621  14.612  0.00  0.00    +0.000 Cl
ATOM     31  C   UNL     1       6.434   6.525  16.208  0.00  0.00    +0.000 A 
ATOM     32  C   UNL     1       5.453   7.042  17.057  0.00  0.00    +0.000 A 
ENDBRANCH  24  26
ENDBRANCH   9  22
TORSDOF 5
ENDMDL
MODEL 7
REMARK VINA RESULT:      -7.1      3.764      7.630
REMARK  Name = 
REMARK  6 active torsions:
REMARK  status: ('A' for Active; 'I' for Inactive)
REMARK    1  A    between atoms: C_1  and  C_2
REMARK    2  A    between atoms: C_8  and  N_9
REMARK    3  A    between atoms: C_10  and  C_12
REMARK    4  A    between atoms: C_12  and  C_13
REMARK    5  A    between atoms: C_19  and  C_20
REMARK    6  A    between atoms: N_22  and  C_23
REMARK                            x       y       z     vdW  Elec       q    Type
REMARK                         _______ _______ _______ _____ _____    ______ ____
ROOT
ATOM      1  C   UNL     1       0.711   2.124  18.674  0.00  0.00    +0.000 C 
ATOM      2  C   UNL     1       1.642   2.238  19.887  0.00  0.00    +0.000 C 
ATOM      3  C   UNL     1       1.198   3.376  20.825  0.00  0.00    +0.000 C 
ATOM      4  C   UNL     1       1.305   4.761  20.173  0.00  0.00    +0.000 C 
ATOM      5  C   UNL     1       2.589   4.932  19.402  0.00  0.00    +0.000 A 
ATOM      6  C   UNL     1       3.397   3.856  19.089  0.00  0.00    +0.000 A 
ATOM      7  S   UNL     1       4.818   4.332  18.286  0.00  0.00    +0.000 S 
ATOM      8  C   UNL     1       4.295   5.955  18.189  0.00  0.00    +0.000 A 
ATOM      9  C   UNL     1       3.114   6.185  18.882  0.00  0.00    +0.000 A 
ATOM     10  C   UNL     1       3.120   2.430  19.468  0.00  0.00    +0.000 C 
ENDROOT
BRANCH   8  11
ATOM     11  N   UNL     1       5.191   6.763  17.503  0.00  0.00    +0.000 N 
ATOM     12  C   UNL     1       6.512   6.833  17.911  0.00  0.00    +0.000 C 
ATOM     13  O   UNL     1       6.972   6.239  18.888  0.00  0.00    +0.000 OA
ATOM     14  H   UNL     1       4.807   7.634  17.154  0.00  0.00    +0.000 HD
BRANCH  12  15
ATOM     15  C   UNL     1       7.402   7.700  17.036  0.00  0.00    +0.000 C 
BRANCH  15  16
ATOM     16  C   UNL     1       7.988   8.886  17.755  0.00  0.00    +0.000 A 
ATOM     17  C   UNL     1       8.846   8.715  18.851  0.00  0.00    +0.000 A 
ATOM     18  C   UNL     1       9.375   9.822  19.517  0.00  0.00    +0.000 A 
ATOM     19  C   UNL     1       9.065  11.109  19.085  0.00  0.00    +0.000 A 
ATOM     20  C   UNL     1       8.244  11.291  17.975  0.00  0.00    +0.000 A 
ATOM     21  C   UNL     1       7.712  10.186  17.308  0.00  0.00    +0.000 A 
ENDBRANCH  15  16
ENDBRANCH  12  15
ENDBRANCH   8  11
BRANCH   9  22
ATOM     22  C   UNL     1       2.511   7.480  19.223  0.00  0.00    +0.000 C 
ATOM     23  O   UNL     1       2.279   7.749  20.397  0.00  0.00    +0.000 OA
ATOM     24  N   UNL     1       2.195   8.298  18.164  0.00  0.00    +0.000 N 
ATOM     25  H   UNL     1       2.230   7.865  17.243  0.00  0.00    +0.000 HD
BRANCH  24  26
ATOM     26  C   UNL     1       1.664   9.597  18.228  0.00  0.00    +0.000 A 
ATOM     27  C   UNL     1       2.437  10.751  18.075  0.00  0.00    +0.000 A 
ATOM     28  C   UNL     1       1.870  12.016  18.232  0.00  0.00    +0.000 A 
ATOM     29  C   UNL     1       0.517  12.131  18.524  0.00  0.00    +0.000 A 
ATOM     30 CL   UNL     1      -0.173  13.686  18.776  0.00  0.00    +0.000 Cl
ATOM     31  C   UNL     1      -0.276  10.993  18.624  0.00  0.00    +0.000 A 
ATOM     32  C   UNL     1       0.293   9.727  18.468  0.00  0.00    +0.000 A 
ENDBRANCH  24  26
ENDBRANCH   9  22
TORSDOF 5
ENDMDL
MODEL 8
REMARK VINA RESULT:      -6.9      3.380      7.249
REMARK  Name = 
REMARK  6 active torsions:
REMARK  status: ('A' for Active; 'I' for Inactive)
REMARK    1  A    between atoms: C_1  and  C_2
REMARK    2  A    between atoms: C_8  and  N_9
REMARK    3  A    between atoms: C_10  and  C_12
REMARK    4  A    between atoms: C_12  and  C_13
REMARK    5  A    between atoms: C_19  and  C_20
REMARK    6  A    between atoms: N_22  and  C_23
REMARK                            x       y       z     vdW  Elec       q    Type
REMARK                         _______ _______ _______ _____ _____    ______ ____
ROOT
ATOM      1  C   UNL     1       0.128   2.397  19.150  0.00  0.00    +0.000 C 
ATOM      2  C   UNL     1       1.337   2.374  20.092  0.00  0.00    +0.000 C 
ATOM      3  C   UNL     1       1.443   3.684  20.895  0.00  0.00    +0.000 C 
ATOM      4  C   UNL     1       1.716   4.906  20.009  0.00  0.00    +0.000 C 
ATOM      5  C   UNL     1       2.761   4.628  18.957  0.00  0.00    +0.000 A 
ATOM      6  C   UNL     1       3.171   3.342  18.664  0.00  0.00    +0.000 A 
ATOM      7  S   UNL     1       4.410   3.313  17.501  0.00  0.00    +0.000 S 
ATOM      8  C   UNL     1       4.296   4.997  17.244  0.00  0.00    +0.000 A 
ATOM      9  C   UNL     1       3.426   5.620  18.129  0.00  0.00    +0.000 A 
ATOM     10  C   UNL     1       2.659   2.098  19.333  0.00  0.00    +0.000 C 
ENDROOT
BRANCH   8  11
ATOM     11  N   UNL     1       5.156   5.443  16.251  0.00  0.00    +0.000 N 
ATOM     12  C   UNL     1       6.524   5.293  16.401  0.00  0.00    +0.000 C 
ATOM     13  O   UNL     1       7.066   4.804  17.393  0.00  0.00    +0.000 OA
ATOM     14  H   UNL     1       4.870   6.298  15.785  0.00  0.00    +0.000 HD
BRANCH  12  15
ATOM     15  C   UNL     1       7.348   5.763  15.214  0.00  0.00    +0.000 C 
BRANCH  15  16
ATOM     16  C   UNL     1       7.101   4.974  13.955  0.00  0.00    +0.000 A 
ATOM     17  C   UNL     1       7.782   5.278  12.767  0.00  0.00    +0.000 A 
ATOM     18  C   UNL     1       7.538   4.547  11.604  0.00  0.00    +0.000 A 
ATOM     19  C   UNL     1       6.625   3.495  11.618  0.00  0.00    +0.000 A 
ATOM     20  C   UNL     1       5.971   3.160  12.801  0.00  0.00    +0.000 A 
ATOM     21  C   UNL     1       6.211   3.891  13.967  0.00  0.00    +0.000 A 
ENDBRANCH  15  16
ENDBRANCH  12  15
ENDBRANCH   8  11
BRANCH   9  22
ATOM     22  C   UNL     1       3.268   7.061  18.367  0.00  0.00    +0.000 C 
ATOM     23  O   UNL     1       4.189   7.824  18.096  0.00  0.00    +0.000 OA
ATOM     24  N   UNL     1       2.082   7.453  18.943  0.00  0.00    +0.000 N 
ATOM     25  H   UNL     1       1.505   6.705  19.322  0.00  0.00    +0.000 HD
BRANCH  24  26
ATOM     26  C   UNL     1       1.671   8.767  19.220  0.00  0.00    +0.000 A 
ATOM     27  C   UNL     1       1.160   9.166  20.457  0.00  0.00    +0.000 A 
ATOM     28  C   UNL     1       0.688  10.466  20.650  0.00  0.00    +0.000 A 
ATOM     29  C   UNL     1       0.747  11.379  19.605  0.00  0.00    +0.000 A 
ATOM     30 CL   UNL     1       0.115  12.964  19.819  0.00  0.00    +0.000 Cl
ATOM     31  C   UNL     1       1.305  11.011  18.385  0.00  0.00    +0.000 A 
ATOM     32  C   UNL     1       1.775   9.710  18.194  0.00  0.00    +0.000 A 
ENDBRANCH  24  26
ENDBRANCH   9  22
TORSDOF 5
ENDMDL
MODEL 9
REMARK VINA RESULT:      -6.9      3.860      7.614
REMARK  Name = 
REMARK  6 active torsions:
REMARK  status: ('A' for Active; 'I' for Inactive)
REMARK    1  A    between atoms: C_1  and  C_2
REMARK    2  A    between atoms: C_8  and  N_9
REMARK    3  A    between atoms: C_10  and  C_12
REMARK    4  A    between atoms: C_12  and  C_13
REMARK    5  A    between atoms: C_19  and  C_20
REMARK    6  A    between atoms: N_22  and  C_23
REMARK                            x       y       z     vdW  Elec       q    Type
REMARK                         _______ _______ _______ _____ _____    ______ ____
ROOT
ATOM      1  C   UNL     1       0.534   9.510  23.831  0.00  0.00    +0.000 C 
ATOM      2  C   UNL     1      -0.738   9.537  22.976  0.00  0.00    +0.000 C 
ATOM      3  C   UNL     1      -0.738   8.399  21.939  0.00  0.00    +0.000 C 
ATOM      4  C   UNL     1       0.382   8.541  20.899  0.00  0.00    +0.000 C 
ATOM      5  C   UNL     1       0.526   9.958  20.404  0.00  0.00    +0.000 A 
ATOM      6  C   UNL     1      -0.080  11.018  21.049  0.00  0.00    +0.000 A 
ATOM      7  S   UNL     1       0.176  12.492  20.243  0.00  0.00    +0.000 S 
ATOM      8  C   UNL     1       1.241  11.768  19.123  0.00  0.00    +0.000 A 
ATOM      9  C   UNL     1       1.306  10.387  19.254  0.00  0.00    +0.000 A 
ATOM     10  C   UNL     1      -0.939  10.905  22.277  0.00  0.00    +0.000 C 
ENDROOT
BRANCH   8  11
ATOM     11  N   UNL     1       1.784  12.685  18.234  0.00  0.00    +0.000 N 
ATOM     12  C   UNL     1       2.737  13.590  18.670  0.00  0.00    +0.000 C 
ATOM     13  O   UNL     1       3.140  13.672  19.832  0.00  0.00    +0.000 OA
ATOM     14  H   UNL     1       1.139  13.048  17.541  0.00  0.00    +0.000 HD
BRANCH  12  15
ATOM     15  C   UNL     1       3.298  14.493  17.585  0.00  0.00    +0.000 C 
BRANCH  15  16
ATOM     16  C   UNL     1       4.574  15.191  17.977  0.00  0.00    +0.000 A 
ATOM     17  C   UNL     1       4.548  16.447  18.600  0.00  0.00    +0.000 A 
ATOM     18  C   UNL     1       5.737  17.089  18.950  0.00  0.00    +0.000 A 
ATOM     19  C   UNL     1       6.962  16.477  18.696  0.00  0.00    +0.000 A 
ATOM     20  C   UNL     1       6.999  15.213  18.112  0.00  0.00    +0.000 A 
ATOM     21  C   UNL     1       5.812  14.569  17.759  0.00  0.00    +0.000 A 
ENDBRANCH  15  16
ENDBRANCH  12  15
ENDBRANCH   8  11
BRANCH   9  22
ATOM     22  C   UNL     1       1.910   9.424  18.323  0.00  0.00    +0.000 C 
ATOM     23  O   UNL     1       2.048   9.727  17.143  0.00  0.00    +0.000 OA
ATOM     24  N   UNL     1       2.239   8.197  18.851  0.00  0.00    +0.000 N 
ATOM     25  H   UNL     1       1.868   7.999  19.778  0.00  0.00    +0.000 HD
BRANCH  24  26
ATOM     26  C   UNL     1       2.872   7.134  18.187  0.00  0.00    +0.000 A 
ATOM     27  C   UNL     1       2.388   5.823  18.201  0.00  0.00    +0.000 A 
ATOM     28  C   UNL     1       3.104   4.791  17.593  0.00  0.00    +0.000 A 
ATOM     29  C   UNL     1       4.302   5.073  16.948  0.00  0.00    +0.000 A 
ATOM     30 CL   UNL     1       5.216   3.796  16.248  0.00  0.00    +0.000 Cl
ATOM     31  C   UNL     1       4.767   6.382  16.879  0.00  0.00    +0.000 A 
ATOM     32  C   UNL     1       4.050   7.414  17.489  0.00  0.00    +0.000 A 
ENDBRANCH  24  26
ENDBRANCH   9  22
TORSDOF 5
ENDMDL
