MODEL 1
REMARK VINA RESULT:      -8.0      0.000      0.000
REMARK  Name = 
REMARK  7 active torsions:
REMARK  status: ('A' for Active; 'I' for Inactive)
REMARK    1  A    between atoms: C_1  and  C_2
REMARK    2  A    between atoms: C_5  and  O_6
REMARK    3  A    between atoms: O_6  and  C_7
REMARK    4  A    between atoms: C_7  and  C_8
REMARK    5  A    between atoms: C_7  and  C_9
REMARK    6  A    between atoms: C_15  and  C_17
REMARK    7  A    between atoms: C_24  and  C_25
REMARK                            x       y       z     vdW  Elec       q    Type
REMARK                         _______ _______ _______ _____ _____    ______ ____
ROOT
ATOM      1  C   UNL     1       1.101  11.115  20.587  0.00  0.00    +0.000 C 
ATOM      2  O   UNL     1       0.997  10.738  21.758  0.00  0.00    +0.000 OA
ATOM      3  N   UNL     1       1.311  12.460  20.287  0.00  0.00    +0.000 N 
ATOM      4  C   UNL     1       1.582  13.410  21.380  0.00  0.00    +0.000 C 
ATOM      5  C   UNL     1       0.592  14.584  21.380  0.00  0.00    +0.000 C 
ATOM      6  N   UNL     1       0.493  15.201  20.051  0.00  0.00    +0.000 N 
ATOM      7  C   UNL     1       0.901  16.525  19.887  0.00  0.00    +0.000 C 
ATOM      8  O   UNL     1       1.386  17.182  20.801  0.00  0.00    +0.000 OA
ATOM      9  C   UNL     1       0.179  14.234  18.985  0.00  0.00    +0.000 C 
ATOM     10  C   UNL     1       1.171  13.056  18.945  0.00  0.00    +0.000 C 
ATOM     11  C   UNL     1       2.510  13.503  18.355  0.00  0.00    +0.000 C 
ENDROOT
BRANCH   7  12
ATOM     12  C   UNL     1       0.782  17.186  18.553  0.00  0.00    +0.000 A 
ATOM     13  C   UNL     1       1.857  17.259  17.663  0.00  0.00    +0.000 A 
ATOM     14  C   UNL     1       1.752  17.994  16.484  0.00  0.00    +0.000 A 
ATOM     15  C   UNL     1       0.531  18.558  16.127  0.00  0.00    +0.000 A 
ATOM     16  C   UNL     1      -0.581  18.397  16.956  0.00  0.00    +0.000 A 
ATOM     17  C   UNL     1      -0.456  17.725  18.175  0.00  0.00    +0.000 A 
ENDBRANCH   7  12
BRANCH   1  18
ATOM     18  C   UNL     1       0.958  10.125  19.406  0.00  0.00    +0.000 C 
ATOM     19  C   UNL     1      -0.385  10.301  18.690  0.00  0.00    +0.000 C 
BRANCH  18  20
ATOM     20  O   UNL     1       1.055   8.797  19.939  0.00  0.00    +0.000 OA
BRANCH  20  25
ATOM     21  C   UNL     1       2.236   3.566  21.649  0.00  0.00    +0.000 C 
ATOM     22  C   UNL     1       2.349   4.666  20.666  0.00  0.00    +0.000 A 
ATOM     23  N   UNL     1       1.701   5.806  20.708  0.00  0.00    +0.000 NA
ATOM     24  C   UNL     1       2.194   6.574  19.678  0.00  0.00    +0.000 A 
ATOM     25  C   UNL     1       1.915   7.907  19.306  0.00  0.00    +0.000 A 
ATOM     26  C   UNL     1       2.577   8.429  18.181  0.00  0.00    +0.000 A 
ATOM     27  C   UNL     1       3.502   7.666  17.462  0.00  0.00    +0.000 A 
ATOM     28  C   UNL     1       3.806   6.354  17.837  0.00  0.00    +0.000 A 
ATOM     29  C   UNL     1       3.132   5.845  18.949  0.00  0.00    +0.000 A 
ATOM     30  N   UNL     1       3.207   4.636  19.596  0.00  0.00    +0.000 N 
ATOM     31  H   UNL     1       3.829   3.876  19.357  0.00  0.00    +0.000 HD
ENDBRANCH  20  25
ENDBRANCH  18  20
ENDBRANCH   1  18
TORSDOF 4
ENDMDL
MODEL 2
REMARK VINA RESULT:      -7.5      1.231      1.278
REMARK  Name = 
REMARK  7 active torsions:
REMARK  status: ('A' for Active; 'I' for Inactive)
REMARK    1  A    between atoms: C_1  and  C_2
REMARK    2  A    between atoms: C_5  and  O_6
REMARK    3  A    between atoms: O_6  and  C_7
REMARK    4  A    between atoms: C_7  and  C_8
REMARK    5  A    between atoms: C_7  and  C_9
REMARK    6  A    between atoms: C_15  and  C_17
REMARK    7  A    between atoms: C_24  and  C_25
REMARK                            x       y       z     vdW  Elec       q    Type
REMARK                         _______ _______ _______ _____ _____    ______ ____
ROOT
ATOM      1  C   UNL     1       0.581  10.231  20.199  0.00  0.00    +0.000 C 
ATOM      2  O   UNL     1      -0.097   9.656  21.055  0.00  0.00    +0.000 OA
ATOM      3  N   UNL     1       0.644  11.624  20.156  0.00  0.00    +0.000 N 
ATOM      4  C   UNL     1       0.034  12.408  21.244  0.00  0.00    +0.000 C 
ATOM      5  C   UNL     1      -0.991  13.423  20.717  0.00  0.00    +0.000 C 
ATOM      6  N   UNL     1      -0.431  14.231  19.626  0.00  0.00    +0.000 N 
ATOM      7  C   UNL     1      -0.285  15.607  19.809  0.00  0.00    +0.000 C 
ATOM      8  O   UNL     1      -0.562  16.163  20.865  0.00  0.00    +0.000 OA
ATOM      9  C   UNL     1       0.133  13.420  18.533  0.00  0.00    +0.000 C 
ATOM     10  C   UNL     1       1.183  12.408  19.029  0.00  0.00    +0.000 C 
ATOM     11  C   UNL     1       2.491  13.122  19.378  0.00  0.00    +0.000 C 
ENDROOT
BRANCH   7  12
ATOM     12  C   UNL     1       0.252  16.457  18.704  0.00  0.00    +0.000 A 
ATOM     13  C   UNL     1       1.612  16.481  18.383  0.00  0.00    +0.000 A 
ATOM     14  C   UNL     1       2.100  17.380  17.436  0.00  0.00    +0.000 A 
ATOM     15  C   UNL     1       1.212  18.173  16.714  0.00  0.00    +0.000 A 
ATOM     16  C   UNL     1      -0.160  18.076  16.949  0.00  0.00    +0.000 A 
ATOM     17  C   UNL     1      -0.643  17.230  17.951  0.00  0.00    +0.000 A 
ENDBRANCH   7  12
BRANCH   1  18
ATOM     18  C   UNL     1       1.350   9.439  19.115  0.00  0.00    +0.000 C 
ATOM     19  C   UNL     1       0.491   9.226  17.865  0.00  0.00    +0.000 C 
BRANCH  18  20
ATOM     20  O   UNL     1       1.713   8.171  19.678  0.00  0.00    +0.000 OA
BRANCH  20  25
ATOM     21  C   UNL     1       1.739   2.557  20.076  0.00  0.00    +0.000 C 
ATOM     22  C   UNL     1       2.152   3.812  19.411  0.00  0.00    +0.000 A 
ATOM     23  N   UNL     1       1.721   5.016  19.703  0.00  0.00    +0.000 NA
ATOM     24  C   UNL     1       2.450   5.890  18.930  0.00  0.00    +0.000 A 
ATOM     25  C   UNL     1       2.458   7.302  18.891  0.00  0.00    +0.000 A 
ATOM     26  C   UNL     1       3.318   7.930  17.973  0.00  0.00    +0.000 A 
ATOM     27  C   UNL     1       4.159   7.188  17.138  0.00  0.00    +0.000 A 
ATOM     28  C   UNL     1       4.179   5.791  17.186  0.00  0.00    +0.000 A 
ATOM     29  C   UNL     1       3.311   5.181  18.095  0.00  0.00    +0.000 A 
ATOM     30  N   UNL     1       3.097   3.863  18.418  0.00  0.00    +0.000 N 
ATOM     31  H   UNL     1       3.592   3.072  18.031  0.00  0.00    +0.000 HD
ENDBRANCH  20  25
ENDBRANCH  18  20
ENDBRANCH   1  18
TORSDOF 4
ENDMDL
MODEL 3
REMARK VINA RESULT:      -7.5      1.251      1.590
REMARK  Name = 
REMARK  7 active torsions:
REMARK  status: ('A' for Active; 'I' for Inactive)
REMARK    1  A    between atoms: C_1  and  C_2
REMARK    2  A    between atoms: C_5  and  O_6
REMARK    3  A    between atoms: O_6  and  C_7
REMARK    4  A    between atoms: C_7  and  C_8
REMARK    5  A    between atoms: C_7  and  C_9
REMARK    6  A    between atoms: C_15  and  C_17
REMARK    7  A    between atoms: C_24  and  C_25
REMARK                            x       y       z     vdW  Elec       q    Type
REMARK                         _______ _______ _______ _____ _____    ______ ____
ROOT
ATOM      1  C   UNL     1       0.336  10.270  20.028  0.00  0.00    +0.000 C 
ATOM      2  O   UNL     1      -0.467   9.643  20.725  0.00  0.00    +0.000 OA
ATOM      3  N   UNL     1       0.348  11.665  20.032  0.00  0.00    +0.000 N 
ATOM      4  C   UNL     1      -0.490  12.391  21.002  0.00  0.00    +0.000 C 
ATOM      5  C   UNL     1      -1.438  13.384  20.314  0.00  0.00    +0.000 C 
ATOM      6  N   UNL     1      -0.716  14.247  19.370  0.00  0.00    +0.000 N 
ATOM      7  C   UNL     1      -0.666  15.620  19.611  0.00  0.00    +0.000 C 
ATOM      8  O   UNL     1      -1.161  16.132  20.608  0.00  0.00    +0.000 OA
ATOM      9  C   UNL     1       0.078  13.492  18.385  0.00  0.00    +0.000 C 
ATOM     10  C   UNL     1       1.057  12.504  19.047  0.00  0.00    +0.000 C 
ATOM     11  C   UNL     1       2.244  13.254  19.657  0.00  0.00    +0.000 C 
ENDROOT
BRANCH   7  12
ATOM     12  C   UNL     1       0.035  16.524  18.650  0.00  0.00    +0.000 A 
ATOM     13  C   UNL     1      -0.663  17.397  17.811  0.00  0.00    +0.000 A 
ATOM     14  C   UNL     1       0.008  18.131  16.835  0.00  0.00    +0.000 A 
ATOM     15  C   UNL     1       1.398  18.092  16.777  0.00  0.00    +0.000 A 
ATOM     16  C   UNL     1       2.114  17.309  17.683  0.00  0.00    +0.000 A 
ATOM     17  C   UNL     1       1.436  16.514  18.611  0.00  0.00    +0.000 A 
ENDBRANCH   7  12
BRANCH   1  18
ATOM     18  C   UNL     1       1.330   9.542  19.091  0.00  0.00    +0.000 C 
ATOM     19  C   UNL     1       0.627   9.004  17.842  0.00  0.00    +0.000 C 
BRANCH  18  20
ATOM     20  O   UNL     1       1.908   8.457  19.830  0.00  0.00    +0.000 OA
BRANCH  20  25
ATOM     21  C   UNL     1       1.391   2.995  21.083  0.00  0.00    +0.000 C 
ATOM     22  C   UNL     1       1.847   4.083  20.191  0.00  0.00    +0.000 A 
ATOM     23  N   UNL     1       1.585   5.360  20.340  0.00  0.00    +0.000 NA
ATOM     24  C   UNL     1       2.300   6.020  19.366  0.00  0.00    +0.000 A 
ATOM     25  C   UNL     1       2.452   7.400  19.109  0.00  0.00    +0.000 A 
ATOM     26  C   UNL     1       3.251   7.783  18.018  0.00  0.00    +0.000 A 
ATOM     27  C   UNL     1       3.898   6.834  17.221  0.00  0.00    +0.000 A 
ATOM     28  C   UNL     1       3.776   5.466  17.482  0.00  0.00    +0.000 A 
ATOM     29  C   UNL     1       2.970   5.100  18.562  0.00  0.00    +0.000 A 
ATOM     30  N   UNL     1       2.661   3.877  19.106  0.00  0.00    +0.000 N 
ATOM     31  H   UNL     1       3.017   2.985  18.794  0.00  0.00    +0.000 HD
ENDBRANCH  20  25
ENDBRANCH  18  20
ENDBRANCH   1  18
TORSDOF 4
ENDMDL
MODEL 4
REMARK VINA RESULT:      -7.3      3.306      4.913
REMARK  Name = 
REMARK  7 active torsions:
REMARK  status: ('A' for Active; 'I' for Inactive)
REMARK    1  A    between atoms: C_1  and  C_2
REMARK    2  A    between atoms: C_5  and  O_6
REMARK    3  A    between atoms: O_6  and  C_7
REMARK    4  A    between atoms: C_7  and  C_8
REMARK    5  A    between atoms: C_7  and  C_9
REMARK    6  A    between atoms: C_15  and  C_17
REMARK    7  A    between atoms: C_24  and  C_25
REMARK                            x       y       z     vdW  Elec       q    Type
REMARK                         _______ _______ _______ _____ _____    ______ ____
ROOT
ATOM      1  C   UNL     1       2.135   8.958  18.249  0.00  0.00    +0.000 C 
ATOM      2  O   UNL     1       3.198   9.189  17.667  0.00  0.00    +0.000 OA
ATOM      3  N   UNL     1       1.306  10.000  18.663  0.00  0.00    +0.000 N 
ATOM      4  C   UNL     1       1.621  11.379  18.251  0.00  0.00    +0.000 C 
ATOM      5  C   UNL     1       1.754  12.323  19.455  0.00  0.00    +0.000 C 
ATOM      6  N   UNL     1       0.601  12.207  20.357  0.00  0.00    +0.000 N 
ATOM      7  C   UNL     1      -0.231  13.313  20.537  0.00  0.00    +0.000 C 
ATOM      8  O   UNL     1      -0.064  14.367  19.935  0.00  0.00    +0.000 OA
ATOM      9  C   UNL     1       0.337  10.823  20.786  0.00  0.00    +0.000 C 
ATOM     10  C   UNL     1       0.174   9.857  19.598  0.00  0.00    +0.000 C 
ATOM     11  C   UNL     1      -1.182  10.066  18.919  0.00  0.00    +0.000 C 
ENDROOT
BRANCH   7  12
ATOM     12  C   UNL     1      -1.392  13.232  21.473  0.00  0.00    +0.000 A 
ATOM     13  C   UNL     1      -1.262  13.492  22.840  0.00  0.00    +0.000 A 
ATOM     14  C   UNL     1      -2.333  13.281  23.706  0.00  0.00    +0.000 A 
ATOM     15  C   UNL     1      -3.578  12.930  23.193  0.00  0.00    +0.000 A 
ATOM     16  C   UNL     1      -3.748  12.777  21.816  0.00  0.00    +0.000 A 
ATOM     17  C   UNL     1      -2.656  12.913  20.955  0.00  0.00    +0.000 A 
ENDBRANCH   7  12
BRANCH   1  18
ATOM     18  C   UNL     1       1.698   7.512  18.584  0.00  0.00    +0.000 C 
ATOM     19  C   UNL     1       2.206   7.080  19.963  0.00  0.00    +0.000 C 
BRANCH  18  20
ATOM     20  O   UNL     1       2.239   6.649  17.574  0.00  0.00    +0.000 OA
BRANCH  20  25
ATOM     21  C   UNL     1       7.624   5.387  18.615  0.00  0.00    +0.000 C 
ATOM     22  C   UNL     1       6.189   5.028  18.592  0.00  0.00    +0.000 A 
ATOM     23  N   UNL     1       5.197   5.842  18.318  0.00  0.00    +0.000 NA
ATOM     24  C   UNL     1       4.057   5.071  18.289  0.00  0.00    +0.000 A 
ATOM     25  C   UNL     1       2.723   5.409  17.972  0.00  0.00    +0.000 A 
ATOM     26  C   UNL     1       1.753   4.394  18.041  0.00  0.00    +0.000 A 
ATOM     27  C   UNL     1       2.094   3.084  18.390  0.00  0.00    +0.000 A 
ATOM     28  C   UNL     1       3.415   2.732  18.681  0.00  0.00    +0.000 A 
ATOM     29  C   UNL     1       4.366   3.754  18.619  0.00  0.00    +0.000 A 
ATOM     30  N   UNL     1       5.726   3.756  18.810  0.00  0.00    +0.000 N 
ATOM     31  H   UNL     1       6.294   2.948  19.021  0.00  0.00    +0.000 HD
ENDBRANCH  20  25
ENDBRANCH  18  20
ENDBRANCH   1  18
TORSDOF 4
ENDMDL
MODEL 5
REMARK VINA RESULT:      -7.3      3.229      9.565
REMARK  Name = 
REMARK  7 active torsions:
REMARK  status: ('A' for Active; 'I' for Inactive)
REMARK    1  A    between atoms: C_1  and  C_2
REMARK    2  A    between atoms: C_5  and  O_6
REMARK    3  A    between atoms: O_6  and  C_7
REMARK    4  A    between atoms: C_7  and  C_8
REMARK    5  A    between atoms: C_7  and  C_9
REMARK    6  A    between atoms: C_15  and  C_17
REMARK    7  A    between atoms: C_24  and  C_25
REMARK                            x       y       z     vdW  Elec       q    Type
REMARK                         _______ _______ _______ _____ _____    ______ ____
ROOT
ATOM      1  C   UNL     1       1.270   7.749  20.882  0.00  0.00    +0.000 C 
ATOM      2  O   UNL     1       0.658   7.403  21.897  0.00  0.00    +0.000 OA
ATOM      3  N   UNL     1       1.869   6.801  20.052  0.00  0.00    +0.000 N 
ATOM      4  C   UNL     1       1.622   5.369  20.296  0.00  0.00    +0.000 C 
ATOM      5  C   UNL     1       2.929   4.584  20.482  0.00  0.00    +0.000 C 
ATOM      6  N   UNL     1       3.878   4.860  19.396  0.00  0.00    +0.000 N 
ATOM      7  C   UNL     1       4.254   3.820  18.545  0.00  0.00    +0.000 C 
ATOM      8  O   UNL     1       3.786   2.692  18.639  0.00  0.00    +0.000 OA
ATOM      9  C   UNL     1       4.137   6.298  19.204  0.00  0.00    +0.000 C 
ATOM     10  C   UNL     1       2.846   7.108  18.990  0.00  0.00    +0.000 C 
ATOM     11  C   UNL     1       2.286   6.866  17.586  0.00  0.00    +0.000 C 
ENDROOT
BRANCH   7  12
ATOM     12  C   UNL     1       5.242   4.066  17.452  0.00  0.00    +0.000 A 
ATOM     13  C   UNL     1       6.586   4.345  17.717  0.00  0.00    +0.000 A 
ATOM     14  C   UNL     1       7.453   4.698  16.685  0.00  0.00    +0.000 A 
ATOM     15  C   UNL     1       7.012   4.652  15.366  0.00  0.00    +0.000 A 
ATOM     16  C   UNL     1       5.701   4.267  15.081  0.00  0.00    +0.000 A 
ATOM     17  C   UNL     1       4.811   3.987  16.121  0.00  0.00    +0.000 A 
ENDBRANCH   7  12
BRANCH   1  18
ATOM     18  C   UNL     1       1.439   9.242  20.513  0.00  0.00    +0.000 C 
ATOM     19  C   UNL     1       0.725  10.150  21.518  0.00  0.00    +0.000 C 
BRANCH  18  20
ATOM     20  O   UNL     1       0.882   9.432  19.205  0.00  0.00    +0.000 OA
BRANCH  20  25
ATOM     21  C   UNL     1      -4.412  10.592  17.687  0.00  0.00    +0.000 C 
ATOM     22  C   UNL     1      -3.040  11.020  18.038  0.00  0.00    +0.000 A 
ATOM     23  N   UNL     1      -2.079  10.240  18.474  0.00  0.00    +0.000 NA
ATOM     24  C   UNL     1      -0.949  11.023  18.555  0.00  0.00    +0.000 A 
ATOM     25  C   UNL     1       0.381  10.690  18.890  0.00  0.00    +0.000 A 
ATOM     26  C   UNL     1       1.336  11.721  18.900  0.00  0.00    +0.000 A 
ATOM     27  C   UNL     1       0.991  13.035  18.567  0.00  0.00    +0.000 A 
ATOM     28  C   UNL     1      -0.317  13.372  18.209  0.00  0.00    +0.000 A 
ATOM     29  C   UNL     1      -1.257  12.338  18.215  0.00  0.00    +0.000 A 
ATOM     30  N   UNL     1      -2.593  12.308  17.895  0.00  0.00    +0.000 N 
ATOM     31  H   UNL     1      -3.137  13.090  17.559  0.00  0.00    +0.000 HD
ENDBRANCH  20  25
ENDBRANCH  18  20
ENDBRANCH   1  18
TORSDOF 4
ENDMDL
MODEL 6
REMARK VINA RESULT:      -7.1      3.655      8.948
REMARK  Name = 
REMARK  7 active torsions:
REMARK  status: ('A' for Active; 'I' for Inactive)
REMARK    1  A    between atoms: C_1  and  C_2
REMARK    2  A    between atoms: C_5  and  O_6
REMARK    3  A    between atoms: O_6  and  C_7
REMARK    4  A    between atoms: C_7  and  C_8
REMARK    5  A    between atoms: C_7  and  C_9
REMARK    6  A    between atoms: C_15  and  C_17
REMARK    7  A    between atoms: C_24  and  C_25
REMARK                            x       y       z     vdW  Elec       q    Type
REMARK                         _______ _______ _______ _____ _____    ______ ____
ROOT
ATOM      1  C   UNL     1       0.085  12.161  19.010  0.00  0.00    +0.000 C 
ATOM      2  O   UNL     1       0.497  13.120  18.351  0.00  0.00    +0.000 OA
ATOM      3  N   UNL     1       0.823  10.981  19.092  0.00  0.00    +0.000 N 
ATOM      4  C   UNL     1       2.184  10.940  18.529  0.00  0.00    +0.000 C 
ATOM      5  C   UNL     1       2.349   9.809  17.503  0.00  0.00    +0.000 C 
ATOM      6  N   UNL     1       1.875   8.527  18.040  0.00  0.00    +0.000 N 
ATOM      7  C   UNL     1       2.789   7.487  18.212  0.00  0.00    +0.000 C 
ATOM      8  O   UNL     1       3.985   7.616  17.978  0.00  0.00    +0.000 OA
ATOM      9  C   UNL     1       0.497   8.588  18.557  0.00  0.00    +0.000 C 
ATOM     10  C   UNL     1       0.307   9.698  19.607  0.00  0.00    +0.000 C 
ATOM     11  C   UNL     1       0.950   9.294  20.936  0.00  0.00    +0.000 C 
ENDROOT
BRANCH   7  12
ATOM     12  C   UNL     1       2.328   6.162  18.727  0.00  0.00    +0.000 A 
ATOM     13  C   UNL     1       2.020   5.102  17.870  0.00  0.00    +0.000 A 
ATOM     14  C   UNL     1       1.469   3.924  18.371  0.00  0.00    +0.000 A 
ATOM     15  C   UNL     1       1.341   3.751  19.746  0.00  0.00    +0.000 A 
ATOM     16  C   UNL     1       1.750   4.762  20.618  0.00  0.00    +0.000 A 
ATOM     17  C   UNL     1       2.231   5.972  20.112  0.00  0.00    +0.000 A 
ENDBRANCH   7  12
BRANCH   1  18
ATOM     18  C   UNL     1      -1.283  12.209  19.732  0.00  0.00    +0.000 C 
ATOM     19  C   UNL     1      -1.110  12.258  21.253  0.00  0.00    +0.000 C 
BRANCH  18  20
ATOM     20  O   UNL     1      -2.011  11.030  19.363  0.00  0.00    +0.000 OA
BRANCH  20  25
ATOM     21  C   UNL     1      -7.351  12.733  18.854  0.00  0.00    +0.000 C 
ATOM     22  C   UNL     1      -6.076  12.267  18.264  0.00  0.00    +0.000 A 
ATOM     23  N   UNL     1      -4.951  12.083  18.913  0.00  0.00    +0.000 NA
ATOM     24  C   UNL     1      -4.067  11.533  18.012  0.00  0.00    +0.000 A 
ATOM     25  C   UNL     1      -2.746  11.066  18.184  0.00  0.00    +0.000 A 
ATOM     26  C   UNL     1      -2.076  10.558  17.058  0.00  0.00    +0.000 A 
ATOM     27  C   UNL     1      -2.699  10.493  15.808  0.00  0.00    +0.000 A 
ATOM     28  C   UNL     1      -4.016  10.928  15.631  0.00  0.00    +0.000 A 
ATOM     29  C   UNL     1      -4.665  11.441  16.757  0.00  0.00    +0.000 A 
ATOM     30  N   UNL     1      -5.939  11.918  16.945  0.00  0.00    +0.000 N 
ATOM     31  H   UNL     1      -6.666  11.953  16.245  0.00  0.00    +0.000 HD
ENDBRANCH  20  25
ENDBRANCH  18  20
ENDBRANCH   1  18
TORSDOF 4
ENDMDL
MODEL 7
REMARK VINA RESULT:      -7.1      3.271      4.980
REMARK  Name = 
REMARK  7 active torsions:
REMARK  status: ('A' for Active; 'I' for Inactive)
REMARK    1  A    between atoms: C_1  and  C_2
REMARK    2  A    between atoms: C_5  and  O_6
REMARK    3  A    between atoms: O_6  and  C_7
REMARK    4  A    between atoms: C_7  and  C_8
REMARK    5  A    between atoms: C_7  and  C_9
REMARK    6  A    between atoms: C_15  and  C_17
REMARK    7  A    between atoms: C_24  and  C_25
REMARK                            x       y       z     vdW  Elec       q    Type
REMARK                         _______ _______ _______ _____ _____    ______ ____
ROOT
ATOM      1  C   UNL     1       1.933   9.939  18.199  0.00  0.00    +0.000 C 
ATOM      2  O   UNL     1       2.925  10.412  17.638  0.00  0.00    +0.000 OA
ATOM      3  N   UNL     1       0.899  10.765  18.639  0.00  0.00    +0.000 N 
ATOM      4  C   UNL     1       0.915  12.194  18.280  0.00  0.00    +0.000 C 
ATOM      5  C   UNL     1       0.840  13.100  19.518  0.00  0.00    +0.000 C 
ATOM      6  N   UNL     1      -0.267  12.708  20.401  0.00  0.00    +0.000 N 
ATOM      7  C   UNL     1      -1.315  13.604  20.610  0.00  0.00    +0.000 C 
ATOM      8  O   UNL     1      -1.375  14.691  20.047  0.00  0.00    +0.000 OA
ATOM      9  C   UNL     1      -0.232  11.284  20.778  0.00  0.00    +0.000 C 
ATOM     10  C   UNL     1      -0.180  10.350  19.555  0.00  0.00    +0.000 C 
ATOM     11  C   UNL     1      -1.547  10.291  18.867  0.00  0.00    +0.000 C 
ENDROOT
BRANCH   7  12
ATOM     12  C   UNL     1      -2.437  13.244  21.528  0.00  0.00    +0.000 A 
ATOM     13  C   UNL     1      -3.707  12.910  21.050  0.00  0.00    +0.000 A 
ATOM     14  C   UNL     1      -4.765  12.706  21.934  0.00  0.00    +0.000 A 
ATOM     15  C   UNL     1      -4.531  12.711  23.306  0.00  0.00    +0.000 A 
ATOM     16  C   UNL     1      -3.242  12.933  23.793  0.00  0.00    +0.000 A 
ATOM     17  C   UNL     1      -2.197  13.213  22.909  0.00  0.00    +0.000 A 
ENDBRANCH   7  12
BRANCH   1  18
ATOM     18  C   UNL     1       1.812   8.421  18.477  0.00  0.00    +0.000 C 
ATOM     19  C   UNL     1       1.874   8.122  19.978  0.00  0.00    +0.000 C 
BRANCH  18  20
ATOM     20  O   UNL     1       2.899   7.769  17.806  0.00  0.00    +0.000 OA
BRANCH  20  25
ATOM     21  C   UNL     1       7.600   4.675  17.782  0.00  0.00    +0.000 C 
ATOM     22  C   UNL     1       6.130   4.800  17.895  0.00  0.00    +0.000 A 
ATOM     23  N   UNL     1       5.455   5.924  17.937  0.00  0.00    +0.000 NA
ATOM     24  C   UNL     1       4.122   5.579  17.919  0.00  0.00    +0.000 A 
ATOM     25  C   UNL     1       2.962   6.382  17.872  0.00  0.00    +0.000 A 
ATOM     26  C   UNL     1       1.713   5.736  17.875  0.00  0.00    +0.000 A 
ATOM     27  C   UNL     1       1.616   4.342  17.900  0.00  0.00    +0.000 A 
ATOM     28  C   UNL     1       2.758   3.536  17.920  0.00  0.00    +0.000 A 
ATOM     29  C   UNL     1       3.990   4.192  17.929  0.00  0.00    +0.000 A 
ATOM     30  N   UNL     1       5.282   3.722  17.917  0.00  0.00    +0.000 N 
ATOM     31  H   UNL     1       5.556   2.752  17.877  0.00  0.00    +0.000 HD
ENDBRANCH  20  25
ENDBRANCH  18  20
ENDBRANCH   1  18
TORSDOF 4
ENDMDL
MODEL 8
REMARK VINA RESULT:      -7.0      3.308      5.590
REMARK  Name = 
REMARK  7 active torsions:
REMARK  status: ('A' for Active; 'I' for Inactive)
REMARK    1  A    between atoms: C_1  and  C_2
REMARK    2  A    between atoms: C_5  and  O_6
REMARK    3  A    between atoms: O_6  and  C_7
REMARK    4  A    between atoms: C_7  and  C_8
REMARK    5  A    between atoms: C_7  and  C_9
REMARK    6  A    between atoms: C_15  and  C_17
REMARK    7  A    between atoms: C_24  and  C_25
REMARK                            x       y       z     vdW  Elec       q    Type
REMARK                         _______ _______ _______ _____ _____    ______ ____
ROOT
ATOM      1  C   UNL     1       0.330  14.594  18.954  0.00  0.00    +0.000 C 
ATOM      2  O   UNL     1      -0.508  15.408  18.556  0.00  0.00    +0.000 OA
ATOM      3  N   UNL     1       1.652  14.980  19.174  0.00  0.00    +0.000 N 
ATOM      4  C   UNL     1       2.010  16.406  19.093  0.00  0.00    +0.000 C 
ATOM      5  C   UNL     1       3.141  16.659  18.085  0.00  0.00    +0.000 C 
ATOM      6  N   UNL     1       4.278  15.760  18.320  0.00  0.00    +0.000 N 
ATOM      7  C   UNL     1       5.507  16.306  18.695  0.00  0.00    +0.000 C 
ATOM      8  O   UNL     1       5.663  17.507  18.882  0.00  0.00    +0.000 OA
ATOM      9  C   UNL     1       3.896  14.338  18.353  0.00  0.00    +0.000 C 
ATOM     10  C   UNL     1       2.779  14.049  19.373  0.00  0.00    +0.000 C 
ATOM     11  C   UNL     1       3.333  14.091  20.800  0.00  0.00    +0.000 C 
ENDROOT
BRANCH   7  12
ATOM     12  C   UNL     1       6.688  15.417  18.909  0.00  0.00    +0.000 A 
ATOM     13  C   UNL     1       7.455  14.936  17.845  0.00  0.00    +0.000 A 
ATOM     14  C   UNL     1       8.469  14.006  18.066  0.00  0.00    +0.000 A 
ATOM     15  C   UNL     1       8.804  13.646  19.368  0.00  0.00    +0.000 A 
ATOM     16  C   UNL     1       8.117  14.206  20.446  0.00  0.00    +0.000 A 
ATOM     17  C   UNL     1       7.050  15.080  20.221  0.00  0.00    +0.000 A 
ENDBRANCH   7  12
BRANCH   1  18
ATOM     18  C   UNL     1      -0.036  13.108  19.183  0.00  0.00    +0.000 C 
ATOM     19  C   UNL     1      -1.271  12.705  18.371  0.00  0.00    +0.000 C 
BRANCH  18  20
ATOM     20  O   UNL     1      -0.297  12.935  20.583  0.00  0.00    +0.000 OA
BRANCH  20  25
ATOM     21  C   UNL     1       2.146   8.564  18.014  0.00  0.00    +0.000 C 
ATOM     22  C   UNL     1       1.525   9.188  19.203  0.00  0.00    +0.000 A 
ATOM     23  N   UNL     1       1.167  10.445  19.313  0.00  0.00    +0.000 NA
ATOM     24  C   UNL     1       0.527  10.563  20.526  0.00  0.00    +0.000 A 
ATOM     25  C   UNL     1      -0.125  11.665  21.122  0.00  0.00    +0.000 A 
ATOM     26  C   UNL     1      -0.688  11.487  22.397  0.00  0.00    +0.000 A 
ATOM     27  C   UNL     1      -0.629  10.253  23.052  0.00  0.00    +0.000 A 
ATOM     28  C   UNL     1      -0.010   9.148  22.461  0.00  0.00    +0.000 A 
ATOM     29  C   UNL     1       0.555   9.344  21.199  0.00  0.00    +0.000 A 
ATOM     30  N   UNL     1       1.199   8.489  20.337  0.00  0.00    +0.000 N 
ATOM     31  H   UNL     1       1.355   7.503  20.491  0.00  0.00    +0.000 HD
ENDBRANCH  20  25
ENDBRANCH  18  20
ENDBRANCH   1  18
TORSDOF 4
ENDMDL
MODEL 9
REMARK VINA RESULT:      -7.0      3.297      5.089
REMARK  Name = 
REMARK  7 active torsions:
REMARK  status: ('A' for Active; 'I' for Inactive)
REMARK    1  A    between atoms: C_1  and  C_2
REMARK    2  A    between atoms: C_5  and  O_6
REMARK    3  A    between atoms: O_6  and  C_7
REMARK    4  A    between atoms: C_7  and  C_8
REMARK    5  A    between atoms: C_7  and  C_9
REMARK    6  A    between atoms: C_15  and  C_17
REMARK    7  A    between atoms: C_24  and  C_25
REMARK                            x       y       z     vdW  Elec       q    Type
REMARK                         _______ _______ _______ _____ _____    ______ ____
ROOT
ATOM      1  C   UNL     1       2.305   8.412  18.295  0.00  0.00    +0.000 C 
ATOM      2  O   UNL     1       3.309   8.521  17.587  0.00  0.00    +0.000 OA
ATOM      3  N   UNL     1       1.543   9.531  18.630  0.00  0.00    +0.000 N 
ATOM      4  C   UNL     1       1.842  10.825  17.993  0.00  0.00    +0.000 C 
ATOM      5  C   UNL     1       2.114  11.927  19.027  0.00  0.00    +0.000 C 
ATOM      6  N   UNL     1       1.053  11.981  20.042  0.00  0.00    +0.000 N 
ATOM      7  C   UNL     1       0.266  13.129  20.138  0.00  0.00    +0.000 C 
ATOM      8  O   UNL     1       0.393  14.079  19.375  0.00  0.00    +0.000 OA
ATOM      9  C   UNL     1       0.806  10.682  20.692  0.00  0.00    +0.000 C 
ATOM     10  C   UNL     1       0.506   9.561  19.679  0.00  0.00    +0.000 C 
ATOM     11  C   UNL     1      -0.906   9.718  19.110  0.00  0.00    +0.000 C 
ENDROOT
BRANCH   7  12
ATOM     12  C   UNL     1      -0.798  13.223  21.182  0.00  0.00    +0.000 A 
ATOM     13  C   UNL     1      -0.537  13.715  22.463  0.00  0.00    +0.000 A 
ATOM     14  C   UNL     1      -1.516  13.669  23.453  0.00  0.00    +0.000 A 
ATOM     15  C   UNL     1      -2.803  13.245  23.133  0.00  0.00    +0.000 A 
ATOM     16  C   UNL     1      -3.105  12.855  21.828  0.00  0.00    +0.000 A 
ATOM     17  C   UNL     1      -2.103  12.829  20.854  0.00  0.00    +0.000 A 
ENDBRANCH   7  12
BRANCH   1  18
ATOM     18  C   UNL     1       1.875   7.044  18.878  0.00  0.00    +0.000 C 
ATOM     19  C   UNL     1       2.945   6.475  19.814  0.00  0.00    +0.000 C 
BRANCH  18  20
ATOM     20  O   UNL     1       1.664   6.150  17.777  0.00  0.00    +0.000 OA
BRANCH  20  25
ATOM     21  C   UNL     1       6.740   4.819  15.743  0.00  0.00    +0.000 C 
ATOM     22  C   UNL     1       5.511   4.474  16.491  0.00  0.00    +0.000 A 
ATOM     23  N   UNL     1       4.543   5.302  16.804  0.00  0.00    +0.000 NA
ATOM     24  C   UNL     1       3.552   4.542  17.383  0.00  0.00    +0.000 A 
ATOM     25  C   UNL     1       2.263   4.897  17.837  0.00  0.00    +0.000 A 
ATOM     26  C   UNL     1       1.464   3.890  18.404  0.00  0.00    +0.000 A 
ATOM     27  C   UNL     1       1.915   2.569  18.498  0.00  0.00    +0.000 A 
ATOM     28  C   UNL     1       3.179   2.200  18.028  0.00  0.00    +0.000 A 
ATOM     29  C   UNL     1       3.966   3.215  17.478  0.00  0.00    +0.000 A 
ATOM     30  N   UNL     1       5.216   3.201  16.907  0.00  0.00    +0.000 N 
ATOM     31  H   UNL     1       5.792   2.384  16.770  0.00  0.00    +0.000 HD
ENDBRANCH  20  25
ENDBRANCH  18  20
ENDBRANCH   1  18
TORSDOF 4
ENDMDL
