MODEL 1
REMARK VINA RESULT:      -8.4      0.000      0.000
REMARK  Name = 
REMARK  7 active torsions:
REMARK  status: ('A' for Active; 'I' for Inactive)
REMARK    1  A    between atoms: C_1  and  C_2
REMARK    2  A    between atoms: C_2  and  N_3
REMARK    3  A    between atoms: N_3  and  C_4
REMARK    4  A    between atoms: N_3  and  C_11
REMARK    5  A    between atoms: C_4  and  C_5
REMARK    6  A    between atoms: C_11  and  C_12
REMARK    7  A    between atoms: C_12  and  C_13
REMARK                            x       y       z     vdW  Elec       q    Type
REMARK                         _______ _______ _______ _____ _____    ______ ____
ROOT
ATOM      1  C   UNL     1       3.591   3.873  17.503  0.00  0.00    +0.000 C 
ATOM      2  C   UNL     1       2.754   2.610  17.281  0.00  0.00    +0.000 C 
ATOM      3  C   UNL     1       4.590   4.080  16.331  0.00  0.00    +0.000 C 
ATOM      4  C   UNL     1       5.734   4.611  17.093  0.00  0.00    +0.000 A 
ATOM      5  C   UNL     1       6.888   5.240  16.751  0.00  0.00    +0.000 A 
ATOM      6  N   UNL     1       7.207   5.512  15.425  0.00  0.00    +0.000 N 
ATOM      7  N   UNL     1       7.794   5.578  17.683  0.00  0.00    +0.000 NA
ATOM      8  C   UNL     1       7.535   5.249  18.963  0.00  0.00    +0.000 A 
ATOM      9  N   UNL     1       8.463   5.614  19.917  0.00  0.00    +0.000 N 
ATOM     10  N   UNL     1       6.432   4.640  19.393  0.00  0.00    +0.000 NA
ATOM     11  C   UNL     1       5.583   4.334  18.417  0.00  0.00    +0.000 A 
ATOM     12  O   UNL     1       4.400   3.678  18.697  0.00  0.00    +0.000 OA
ATOM     13  H   UNL     1       6.474   6.011  14.936  0.00  0.00    +0.000 HD
ATOM     14  H   UNL     1       8.089   6.016  15.413  0.00  0.00    +0.000 HD
ATOM     15  H   UNL     1       9.011   6.399  19.595  0.00  0.00    +0.000 HD
ATOM     16  H   UNL     1       8.019   5.685  20.821  0.00  0.00    +0.000 HD
ENDROOT
BRANCH   1  17
ATOM     17  C   UNL     1       2.664   5.134  17.663  0.00  0.00    +0.000 C 
BRANCH  17  18
ATOM     18  N   UNL     1       3.075   6.188  18.637  0.00  0.00    +0.000 NA
BRANCH  18  20
ATOM     19  C   UNL     1       1.909   8.365  17.988  0.00  0.00    +0.000 C 
ATOM     20  C   UNL     1       3.166   7.503  17.957  0.00  0.00    +0.000 C 
ENDBRANCH  18  20
BRANCH  18  21
ATOM     21  C   UNL     1       2.115   6.252  19.763  0.00  0.00    +0.000 C 
BRANCH  21  22
ATOM     22  C   UNL     1       1.831   4.928  20.434  0.00  0.00    +0.000 A 
ATOM     23  C   UNL     1       0.817   4.075  19.989  0.00  0.00    +0.000 A 
ATOM     24  C   UNL     1       0.635   2.838  20.606  0.00  0.00    +0.000 A 
ATOM     25  C   UNL     1       1.477   2.493  21.650  0.00  0.00    +0.000 A 
ATOM     26  N   UNL     1       2.463   3.292  22.113  0.00  0.00    +0.000 NA
ATOM     27  C   UNL     1       2.620   4.482  21.492  0.00  0.00    +0.000 A 
ENDBRANCH  21  22
ENDBRANCH  18  21
ENDBRANCH  17  18
ENDBRANCH   1  17
TORSDOF 5
ENDMDL
MODEL 2
REMARK VINA RESULT:      -8.3      2.134      6.226
REMARK  Name = 
REMARK  7 active torsions:
REMARK  status: ('A' for Active; 'I' for Inactive)
REMARK    1  A    between atoms: C_1  and  C_2
REMARK    2  A    between atoms: C_2  and  N_3
REMARK    3  A    between atoms: N_3  and  C_4
REMARK    4  A    between atoms: N_3  and  C_11
REMARK    5  A    between atoms: C_4  and  C_5
REMARK    6  A    between atoms: C_11  and  C_12
REMARK    7  A    between atoms: C_12  and  C_13
REMARK                            x       y       z     vdW  Elec       q    Type
REMARK                         _______ _______ _______ _____ _____    ______ ____
ROOT
ATOM      1  C   UNL     1       4.058   5.777  18.371  0.00  0.00    +0.000 C 
ATOM      2  C   UNL     1       3.910   7.078  17.577  0.00  0.00    +0.000 C 
ATOM      3  C   UNL     1       3.432   4.586  17.592  0.00  0.00    +0.000 C 
ATOM      4  C   UNL     1       2.872   3.834  18.729  0.00  0.00    +0.000 A 
ATOM      5  C   UNL     1       2.381   2.578  18.882  0.00  0.00    +0.000 A 
ATOM      6  N   UNL     1       2.326   1.681  17.820  0.00  0.00    +0.000 N 
ATOM      7  N   UNL     1       1.881   2.169  20.059  0.00  0.00    +0.000 NA
ATOM      8  C   UNL     1       1.855   3.053  21.074  0.00  0.00    +0.000 A 
ATOM      9  N   UNL     1       1.354   2.621  22.286  0.00  0.00    +0.000 N 
ATOM     10  N   UNL     1       2.317   4.300  21.021  0.00  0.00    +0.000 NA
ATOM     11  C   UNL     1       2.794   4.636  19.827  0.00  0.00    +0.000 A 
ATOM     12  O   UNL     1       3.291   5.905  19.602  0.00  0.00    +0.000 OA
ATOM     13  H   UNL     1       3.216   1.566  17.352  0.00  0.00    +0.000 HD
ATOM     14  H   UNL     1       1.962   0.800  18.174  0.00  0.00    +0.000 HD
ATOM     15  H   UNL     1       1.431   1.617  22.362  0.00  0.00    +0.000 HD
ATOM     16  H   UNL     1       1.729   3.184  23.034  0.00  0.00    +0.000 HD
ENDROOT
BRANCH   1  17
ATOM     17  C   UNL     1       5.571   5.488  18.690  0.00  0.00    +0.000 C 
BRANCH  17  18
ATOM     18  N   UNL     1       6.591   5.883  17.673  0.00  0.00    +0.000 NA
BRANCH  18  20
ATOM     19  C   UNL     1       7.856   8.101  17.646  0.00  0.00    +0.000 C 
ATOM     20  C   UNL     1       7.626   6.743  18.298  0.00  0.00    +0.000 C 
ENDBRANCH  18  20
BRANCH  18  21
ATOM     21  C   UNL     1       7.211   4.682  17.069  0.00  0.00    +0.000 C 
BRANCH  21  22
ATOM     22  C   UNL     1       6.990   4.532  15.581  0.00  0.00    +0.000 A 
ATOM     23  C   UNL     1       5.981   3.718  15.060  0.00  0.00    +0.000 A 
ATOM     24  C   UNL     1       5.782   3.660  13.681  0.00  0.00    +0.000 A 
ATOM     25  C   UNL     1       6.602   4.423  12.866  0.00  0.00    +0.000 A 
ATOM     26  N   UNL     1       7.592   5.216  13.330  0.00  0.00    +0.000 NA
ATOM     27  C   UNL     1       7.758   5.256  14.671  0.00  0.00    +0.000 A 
ENDBRANCH  21  22
ENDBRANCH  18  21
ENDBRANCH  17  18
ENDBRANCH   1  17
TORSDOF 5
ENDMDL
MODEL 3
REMARK VINA RESULT:      -8.1      1.759      2.505
REMARK  Name = 
REMARK  7 active torsions:
REMARK  status: ('A' for Active; 'I' for Inactive)
REMARK    1  A    between atoms: C_1  and  C_2
REMARK    2  A    between atoms: C_2  and  N_3
REMARK    3  A    between atoms: N_3  and  C_4
REMARK    4  A    between atoms: N_3  and  C_11
REMARK    5  A    between atoms: C_4  and  C_5
REMARK    6  A    between atoms: C_11  and  C_12
REMARK    7  A    between atoms: C_12  and  C_13
REMARK                            x       y       z     vdW  Elec       q    Type
REMARK                         _______ _______ _______ _____ _____    ______ ____
ROOT
ATOM      1  C   UNL     1       6.017   4.503  15.383  0.00  0.00    +0.000 C 
ATOM      2  C   UNL     1       6.233   3.873  14.004  0.00  0.00    +0.000 C 
ATOM      3  C   UNL     1       6.524   5.973  15.399  0.00  0.00    +0.000 C 
ATOM      4  C   UNL     1       7.067   6.016  16.768  0.00  0.00    +0.000 A 
ATOM      5  C   UNL     1       7.468   7.014  17.596  0.00  0.00    +0.000 A 
ATOM      6  N   UNL     1       7.418   8.349  17.206  0.00  0.00    +0.000 N 
ATOM      7  N   UNL     1       7.979   6.746  18.808  0.00  0.00    +0.000 NA
ATOM      8  C   UNL     1       8.108   5.454  19.166  0.00  0.00    +0.000 A 
ATOM      9  N   UNL     1       8.619   5.186  20.419  0.00  0.00    +0.000 N 
ATOM     10  N   UNL     1       7.738   4.410  18.427  0.00  0.00    +0.000 NA
ATOM     11  C   UNL     1       7.244   4.751  17.240  0.00  0.00    +0.000 A 
ATOM     12  O   UNL     1       6.836   3.781  16.346  0.00  0.00    +0.000 OA
ATOM     13  H   UNL     1       6.505   8.629  16.870  0.00  0.00    +0.000 HD
ATOM     14  H   UNL     1       7.728   8.915  17.993  0.00  0.00    +0.000 HD
ATOM     15  H   UNL     1       8.470   5.971  21.037  0.00  0.00    +0.000 HD
ATOM     16  H   UNL     1       8.314   4.275  20.728  0.00  0.00    +0.000 HD
ENDROOT
BRANCH   1  17
ATOM     17  C   UNL     1       4.499   4.442  15.792  0.00  0.00    +0.000 C 
BRANCH  17  18
ATOM     18  N   UNL     1       4.166   4.348  17.244  0.00  0.00    +0.000 NA
BRANCH  18  20
ATOM     19  C   UNL     1       4.022   6.283  18.904  0.00  0.00    +0.000 C 
ATOM     20  C   UNL     1       3.450   5.570  17.683  0.00  0.00    +0.000 C 
ENDBRANCH  18  20
BRANCH  18  21
ATOM     21  C   UNL     1       3.346   3.144  17.509  0.00  0.00    +0.000 C 
BRANCH  21  22
ATOM     22  C   UNL     1       2.699   3.101  18.874  0.00  0.00    +0.000 A 
ATOM     23  C   UNL     1       1.336   3.349  19.055  0.00  0.00    +0.000 A 
ATOM     24  C   UNL     1       0.777   3.240  20.328  0.00  0.00    +0.000 A 
ATOM     25  C   UNL     1       1.604   2.885  21.381  0.00  0.00    +0.000 A 
ATOM     26  N   UNL     1       2.927   2.644  21.248  0.00  0.00    +0.000 NA
ATOM     27  C   UNL     1       3.439   2.752  20.002  0.00  0.00    +0.000 A 
ENDBRANCH  21  22
ENDBRANCH  18  21
ENDBRANCH  17  18
ENDBRANCH   1  17
TORSDOF 5
ENDMDL
MODEL 4
REMARK VINA RESULT:      -8.0      2.243      6.272
REMARK  Name = 
REMARK  7 active torsions:
REMARK  status: ('A' for Active; 'I' for Inactive)
REMARK    1  A    between atoms: C_1  and  C_2
REMARK    2  A    between atoms: C_2  and  N_3
REMARK    3  A    between atoms: N_3  and  C_4
REMARK    4  A    between atoms: N_3  and  C_11
REMARK    5  A    between atoms: C_4  and  C_5
REMARK    6  A    between atoms: C_11  and  C_12
REMARK    7  A    between atoms: C_12  and  C_13
REMARK                            x       y       z     vdW  Elec       q    Type
REMARK                         _______ _______ _______ _____ _____    ______ ____
ROOT
ATOM      1  C   UNL     1       4.122   5.754  18.295  0.00  0.00    +0.000 C 
ATOM      2  C   UNL     1       3.994   7.076  17.534  0.00  0.00    +0.000 C 
ATOM      3  C   UNL     1       3.439   4.601  17.507  0.00  0.00    +0.000 C 
ATOM      4  C   UNL     1       2.885   3.841  18.642  0.00  0.00    +0.000 A 
ATOM      5  C   UNL     1       2.360   2.597  18.781  0.00  0.00    +0.000 A 
ATOM      6  N   UNL     1       2.248   1.727  17.702  0.00  0.00    +0.000 N 
ATOM      7  N   UNL     1       1.878   2.177  19.962  0.00  0.00    +0.000 NA
ATOM      8  C   UNL     1       1.906   3.039  20.997  0.00  0.00    +0.000 A 
ATOM      9  N   UNL     1       1.424   2.595  22.211  0.00  0.00    +0.000 N 
ATOM     10  N   UNL     1       2.406   4.272  20.958  0.00  0.00    +0.000 NA
ATOM     11  C   UNL     1       2.862   4.620  19.759  0.00  0.00    +0.000 A 
ATOM     12  O   UNL     1       3.392   5.878  19.548  0.00  0.00    +0.000 OA
ATOM     13  H   UNL     1       3.122   1.596  17.207  0.00  0.00    +0.000 HD
ATOM     14  H   UNL     1       1.866   0.850  18.046  0.00  0.00    +0.000 HD
ATOM     15  H   UNL     1       1.472   1.587  22.264  0.00  0.00    +0.000 HD
ATOM     16  H   UNL     1       1.837   3.129  22.962  0.00  0.00    +0.000 HD
ENDROOT
BRANCH   1  17
ATOM     17  C   UNL     1       5.633   5.411  18.566  0.00  0.00    +0.000 C 
BRANCH  17  18
ATOM     18  N   UNL     1       6.650   5.888  17.581  0.00  0.00    +0.000 NA
BRANCH  18  20
ATOM     19  C   UNL     1       7.917   8.104  17.625  0.00  0.00    +0.000 C 
ATOM     20  C   UNL     1       7.653   6.744  18.260  0.00  0.00    +0.000 C 
ENDBRANCH  18  20
BRANCH  18  21
ATOM     21  C   UNL     1       7.309   4.738  16.922  0.00  0.00    +0.000 C 
BRANCH  21  22
ATOM     22  C   UNL     1       7.005   4.588  15.449  0.00  0.00    +0.000 A 
ATOM     23  C   UNL     1       7.765   5.230  14.467  0.00  0.00    +0.000 A 
ATOM     24  C   UNL     1       7.478   5.013  13.120  0.00  0.00    +0.000 A 
ATOM     25  C   UNL     1       6.439   4.156  12.799  0.00  0.00    +0.000 A 
ATOM     26  N   UNL     1       5.677   3.523  13.718  0.00  0.00    +0.000 NA
ATOM     27  C   UNL     1       5.981   3.749  15.015  0.00  0.00    +0.000 A 
ENDBRANCH  21  22
ENDBRANCH  18  21
ENDBRANCH  17  18
ENDBRANCH   1  17
TORSDOF 5
ENDMDL
MODEL 5
REMARK VINA RESULT:      -8.0      1.862      2.663
REMARK  Name = 
REMARK  7 active torsions:
REMARK  status: ('A' for Active; 'I' for Inactive)
REMARK    1  A    between atoms: C_1  and  C_2
REMARK    2  A    between atoms: C_2  and  N_3
REMARK    3  A    between atoms: N_3  and  C_4
REMARK    4  A    between atoms: N_3  and  C_11
REMARK    5  A    between atoms: C_4  and  C_5
REMARK    6  A    between atoms: C_11  and  C_12
REMARK    7  A    between atoms: C_12  and  C_13
REMARK                            x       y       z     vdW  Elec       q    Type
REMARK                         _______ _______ _______ _____ _____    ______ ____
ROOT
ATOM      1  C   UNL     1       5.944   4.511  15.416  0.00  0.00    +0.000 C 
ATOM      2  C   UNL     1       6.145   3.850  14.050  0.00  0.00    +0.000 C 
ATOM      3  C   UNL     1       6.488   5.967  15.406  0.00  0.00    +0.000 C 
ATOM      4  C   UNL     1       7.030   6.022  16.775  0.00  0.00    +0.000 A 
ATOM      5  C   UNL     1       7.456   7.026  17.584  0.00  0.00    +0.000 A 
ATOM      6  N   UNL     1       7.441   8.353  17.170  0.00  0.00    +0.000 N 
ATOM      7  N   UNL     1       7.957   6.767  18.803  0.00  0.00    +0.000 NA
ATOM      8  C   UNL     1       8.052   5.479  19.185  0.00  0.00    +0.000 A 
ATOM      9  N   UNL     1       8.554   5.222  20.445  0.00  0.00    +0.000 N 
ATOM     10  N   UNL     1       7.657   4.431  18.465  0.00  0.00    +0.000 NA
ATOM     11  C   UNL     1       7.174   4.762  17.271  0.00  0.00    +0.000 A 
ATOM     12  O   UNL     1       6.742   3.786  16.395  0.00  0.00    +0.000 OA
ATOM     13  H   UNL     1       6.536   8.651  16.826  0.00  0.00    +0.000 HD
ATOM     14  H   UNL     1       7.764   8.926  17.946  0.00  0.00    +0.000 HD
ATOM     15  H   UNL     1       8.424   6.022  21.047  0.00  0.00    +0.000 HD
ATOM     16  H   UNL     1       8.225   4.325  20.770  0.00  0.00    +0.000 HD
ENDROOT
BRANCH   1  17
ATOM     17  C   UNL     1       4.424   4.498  15.823  0.00  0.00    +0.000 C 
BRANCH  17  18
ATOM     18  N   UNL     1       4.084   4.299  17.263  0.00  0.00    +0.000 NA
BRANCH  18  20
ATOM     19  C   UNL     1       4.167   6.023  19.145  0.00  0.00    +0.000 C 
ATOM     20  C   UNL     1       3.541   5.555  17.836  0.00  0.00    +0.000 C 
ENDBRANCH  18  20
BRANCH  18  21
ATOM     21  C   UNL     1       3.109   3.195  17.416  0.00  0.00    +0.000 C 
BRANCH  21  22
ATOM     22  C   UNL     1       2.561   3.019  18.814  0.00  0.00    +0.000 A 
ATOM     23  C   UNL     1       3.373   2.628  19.883  0.00  0.00    +0.000 A 
ATOM     24  C   UNL     1       2.831   2.536  21.164  0.00  0.00    +0.000 A 
ATOM     25  C   UNL     1       1.491   2.841  21.335  0.00  0.00    +0.000 A 
ATOM     26  N   UNL     1       0.673   3.215  20.327  0.00  0.00    +0.000 NA
ATOM     27  C   UNL     1       1.227   3.300  19.097  0.00  0.00    +0.000 A 
ENDBRANCH  21  22
ENDBRANCH  18  21
ENDBRANCH  17  18
ENDBRANCH   1  17
TORSDOF 5
ENDMDL
MODEL 6
REMARK VINA RESULT:      -7.8      1.688      3.569
REMARK  Name = 
REMARK  7 active torsions:
REMARK  status: ('A' for Active; 'I' for Inactive)
REMARK    1  A    between atoms: C_1  and  C_2
REMARK    2  A    between atoms: C_2  and  N_3
REMARK    3  A    between atoms: N_3  and  C_4
REMARK    4  A    between atoms: N_3  and  C_11
REMARK    5  A    between atoms: C_4  and  C_5
REMARK    6  A    between atoms: C_11  and  C_12
REMARK    7  A    between atoms: C_12  and  C_13
REMARK                            x       y       z     vdW  Elec       q    Type
REMARK                         _______ _______ _______ _____ _____    ______ ____
ROOT
ATOM      1  C   UNL     1       4.176   3.292  18.915  0.00  0.00    +0.000 C 
ATOM      2  C   UNL     1       3.878   1.813  18.657  0.00  0.00    +0.000 C 
ATOM      3  C   UNL     1       4.015   4.119  17.608  0.00  0.00    +0.000 C 
ATOM      4  C   UNL     1       5.117   5.078  17.803  0.00  0.00    +0.000 A 
ATOM      5  C   UNL     1       5.468   6.248  17.211  0.00  0.00    +0.000 A 
ATOM      6  N   UNL     1       4.723   6.792  16.171  0.00  0.00    +0.000 N 
ATOM      7  N   UNL     1       6.583   6.901  17.577  0.00  0.00    +0.000 NA
ATOM      8  C   UNL     1       7.357   6.344  18.528  0.00  0.00    +0.000 A 
ATOM      9  N   UNL     1       8.493   7.029  18.909  0.00  0.00    +0.000 N 
ATOM     10  N   UNL     1       7.092   5.207  19.167  0.00  0.00    +0.000 NA
ATOM     11  C   UNL     1       5.976   4.615  18.753  0.00  0.00    +0.000 A 
ATOM     12  O   UNL     1       5.574   3.414  19.303  0.00  0.00    +0.000 OA
ATOM     13  H   UNL     1       3.741   6.889  16.396  0.00  0.00    +0.000 HD
ATOM     14  H   UNL     1       5.148   7.679  15.914  0.00  0.00    +0.000 HD
ATOM     15  H   UNL     1       8.394   8.015  18.712  0.00  0.00    +0.000 HD
ATOM     16  H   UNL     1       8.762   6.756  19.843  0.00  0.00    +0.000 HD
ENDROOT
BRANCH   1  17
ATOM     17  C   UNL     1       3.237   3.861  20.042  0.00  0.00    +0.000 C 
BRANCH  17  18
ATOM     18  N   UNL     1       2.249   4.916  19.666  0.00  0.00    +0.000 NA
BRANCH  18  20
ATOM     19  C   UNL     1       0.672   2.916  19.853  0.00  0.00    +0.000 C 
ATOM     20  C   UNL     1       0.869   4.427  19.905  0.00  0.00    +0.000 C 
ENDBRANCH  18  20
BRANCH  18  21
ATOM     21  C   UNL     1       2.500   6.156  20.435  0.00  0.00    +0.000 C 
BRANCH  21  22
ATOM     22  C   UNL     1       2.080   7.431  19.740  0.00  0.00    +0.000 A 
ATOM     23  C   UNL     1       2.294   7.635  18.374  0.00  0.00    +0.000 A 
ATOM     24  C   UNL     1       1.835   8.804  17.769  0.00  0.00    +0.000 A 
ATOM     25  C   UNL     1       1.173   9.734  18.554  0.00  0.00    +0.000 A 
ATOM     26  N   UNL     1       0.953   9.577  19.878  0.00  0.00    +0.000 NA
ATOM     27  C   UNL     1       1.405   8.432  20.435  0.00  0.00    +0.000 A 
ENDBRANCH  21  22
ENDBRANCH  18  21
ENDBRANCH  17  18
ENDBRANCH   1  17
TORSDOF 5
ENDMDL
MODEL 7
REMARK VINA RESULT:      -7.8      1.280      3.372
REMARK  Name = 
REMARK  7 active torsions:
REMARK  status: ('A' for Active; 'I' for Inactive)
REMARK    1  A    between atoms: C_1  and  C_2
REMARK    2  A    between atoms: C_2  and  N_3
REMARK    3  A    between atoms: N_3  and  C_4
REMARK    4  A    between atoms: N_3  and  C_11
REMARK    5  A    between atoms: C_4  and  C_5
REMARK    6  A    between atoms: C_11  and  C_12
REMARK    7  A    between atoms: C_12  and  C_13
REMARK                            x       y       z     vdW  Elec       q    Type
REMARK                         _______ _______ _______ _____ _____    ______ ____
ROOT
ATOM      1  C   UNL     1       3.774   3.416  17.765  0.00  0.00    +0.000 C 
ATOM      2  C   UNL     1       3.220   1.991  17.832  0.00  0.00    +0.000 C 
ATOM      3  C   UNL     1       4.607   3.620  16.468  0.00  0.00    +0.000 C 
ATOM      4  C   UNL     1       5.664   4.494  17.006  0.00  0.00    +0.000 A 
ATOM      5  C   UNL     1       6.621   5.277  16.445  0.00  0.00    +0.000 A 
ATOM      6  N   UNL     1       6.765   5.377  15.065  0.00  0.00    +0.000 N 
ATOM      7  N   UNL     1       7.502   5.947  17.205  0.00  0.00    +0.000 NA
ATOM      8  C   UNL     1       7.425   5.795  18.541  0.00  0.00    +0.000 A 
ATOM      9  N   UNL     1       8.323   6.498  19.317  0.00  0.00    +0.000 N 
ATOM     10  N   UNL     1       6.520   5.057  19.181  0.00  0.00    +0.000 NA
ATOM     11  C   UNL     1       5.684   4.422  18.366  0.00  0.00    +0.000 A 
ATOM     12  O   UNL     1       4.700   3.597  18.874  0.00  0.00    +0.000 OA
ATOM     13  H   UNL     1       5.904   5.626  14.594  0.00  0.00    +0.000 HD
ATOM     14  H   UNL     1       7.512   6.041  14.876  0.00  0.00    +0.000 HD
ATOM     15  H   UNL     1       8.658   7.312  18.821  0.00  0.00    +0.000 HD
ATOM     16  H   UNL     1       7.948   6.630  20.245  0.00  0.00    +0.000 HD
ENDROOT
BRANCH   1  17
ATOM     17  C   UNL     1       2.610   4.471  17.839  0.00  0.00    +0.000 C 
BRANCH  17  18
ATOM     18  N   UNL     1       2.207   4.979  19.184  0.00  0.00    +0.000 NA
BRANCH  18  20
ATOM     19  C   UNL     1       1.094   3.226  20.670  0.00  0.00    +0.000 C 
ATOM     20  C   UNL     1       2.372   3.913  20.201  0.00  0.00    +0.000 C 
ENDBRANCH  18  20
BRANCH  18  21
ATOM     21  C   UNL     1       3.007   6.171  19.547  0.00  0.00    +0.000 C 
BRANCH  21  22
ATOM     22  C   UNL     1       2.323   7.496  19.302  0.00  0.00    +0.000 A 
ATOM     23  C   UNL     1       2.339   8.117  18.050  0.00  0.00    +0.000 A 
ATOM     24  C   UNL     1       1.642   9.311  17.861  0.00  0.00    +0.000 A 
ATOM     25  C   UNL     1       0.949   9.844  18.935  0.00  0.00    +0.000 A 
ATOM     26  N   UNL     1       0.915   9.278  20.162  0.00  0.00    +0.000 NA
ATOM     27  C   UNL     1       1.595   8.119  20.313  0.00  0.00    +0.000 A 
ENDBRANCH  21  22
ENDBRANCH  18  21
ENDBRANCH  17  18
ENDBRANCH   1  17
TORSDOF 5
ENDMDL
MODEL 8
REMARK VINA RESULT:      -7.7      1.713      3.772
REMARK  Name = 
REMARK  7 active torsions:
REMARK  status: ('A' for Active; 'I' for Inactive)
REMARK    1  A    between atoms: C_1  and  C_2
REMARK    2  A    between atoms: C_2  and  N_3
REMARK    3  A    between atoms: N_3  and  C_4
REMARK    4  A    between atoms: N_3  and  C_11
REMARK    5  A    between atoms: C_4  and  C_5
REMARK    6  A    between atoms: C_11  and  C_12
REMARK    7  A    between atoms: C_12  and  C_13
REMARK                            x       y       z     vdW  Elec       q    Type
REMARK                         _______ _______ _______ _____ _____    ______ ____
ROOT
ATOM      1  C   UNL     1       4.522   3.795  19.037  0.00  0.00    +0.000 C 
ATOM      2  C   UNL     1       4.311   2.279  18.978  0.00  0.00    +0.000 C 
ATOM      3  C   UNL     1       4.352   4.426  17.627  0.00  0.00    +0.000 C 
ATOM      4  C   UNL     1       5.395   5.464  17.711  0.00  0.00    +0.000 A 
ATOM      5  C   UNL     1       5.699   6.562  16.972  0.00  0.00    +0.000 A 
ATOM      6  N   UNL     1       4.954   6.917  15.853  0.00  0.00    +0.000 N 
ATOM      7  N   UNL     1       6.767   7.321  17.267  0.00  0.00    +0.000 NA
ATOM      8  C   UNL     1       7.543   6.943  18.300  0.00  0.00    +0.000 A 
ATOM      9  N   UNL     1       8.630   7.737  18.607  0.00  0.00    +0.000 N 
ATOM     10  N   UNL     1       7.322   5.889  19.084  0.00  0.00    +0.000 NA
ATOM     11  C   UNL     1       6.251   5.184  18.732  0.00  0.00    +0.000 A 
ATOM     12  O   UNL     1       5.900   4.047  19.432  0.00  0.00    +0.000 OA
ATOM     13  H   UNL     1       3.962   6.988  16.043  0.00  0.00    +0.000 HD
ATOM     14  H   UNL     1       5.337   7.785  15.485  0.00  0.00    +0.000 HD
ATOM     15  H   UNL     1       8.483   8.680  18.276  0.00  0.00    +0.000 HD
ATOM     16  H   UNL     1       8.888   7.608  19.574  0.00  0.00    +0.000 HD
ENDROOT
BRANCH   1  17
ATOM     17  C   UNL     1       3.523   4.456  20.057  0.00  0.00    +0.000 C 
BRANCH  17  18
ATOM     18  N   UNL     1       2.263   5.052  19.521  0.00  0.00    +0.000 NA
BRANCH  18  20
ATOM     19  C   UNL     1       1.117   3.178  20.823  0.00  0.00    +0.000 C 
ATOM     20  C   UNL     1       1.166   4.055  19.577  0.00  0.00    +0.000 C 
ENDBRANCH  18  20
BRANCH  18  21
ATOM     21  C   UNL     1       1.900   6.267  20.285  0.00  0.00    +0.000 C 
BRANCH  21  22
ATOM     22  C   UNL     1       1.845   7.539  19.470  0.00  0.00    +0.000 A 
ATOM     23  C   UNL     1       1.242   8.703  19.954  0.00  0.00    +0.000 A 
ATOM     24  C   UNL     1       1.270   9.866  19.186  0.00  0.00    +0.000 A 
ATOM     25  C   UNL     1       1.902   9.826  17.955  0.00  0.00    +0.000 A 
ATOM     26  N   UNL     1       2.489   8.720  17.449  0.00  0.00    +0.000 NA
ATOM     27  C   UNL     1       2.452   7.609  18.218  0.00  0.00    +0.000 A 
ENDBRANCH  21  22
ENDBRANCH  18  21
ENDBRANCH  17  18
ENDBRANCH   1  17
TORSDOF 5
ENDMDL
MODEL 9
REMARK VINA RESULT:      -7.7      0.619      1.013
REMARK  Name = 
REMARK  7 active torsions:
REMARK  status: ('A' for Active; 'I' for Inactive)
REMARK    1  A    between atoms: C_1  and  C_2
REMARK    2  A    between atoms: C_2  and  N_3
REMARK    3  A    between atoms: N_3  and  C_4
REMARK    4  A    between atoms: N_3  and  C_11
REMARK    5  A    between atoms: C_4  and  C_5
REMARK    6  A    between atoms: C_11  and  C_12
REMARK    7  A    between atoms: C_12  and  C_13
REMARK                            x       y       z     vdW  Elec       q    Type
REMARK                         _______ _______ _______ _____ _____    ______ ____
ROOT
ATOM      1  C   UNL     1       3.640   3.936  17.377  0.00  0.00    +0.000 C 
ATOM      2  C   UNL     1       2.814   2.678  17.097  0.00  0.00    +0.000 C 
ATOM      3  C   UNL     1       4.658   4.189  16.229  0.00  0.00    +0.000 C 
ATOM      4  C   UNL     1       5.786   4.699  17.028  0.00  0.00    +0.000 A 
ATOM      5  C   UNL     1       6.942   5.345  16.728  0.00  0.00    +0.000 A 
ATOM      6  N   UNL     1       7.280   5.665  15.417  0.00  0.00    +0.000 N 
ATOM      7  N   UNL     1       7.831   5.656  17.686  0.00  0.00    +0.000 NA
ATOM      8  C   UNL     1       7.553   5.281  18.949  0.00  0.00    +0.000 A 
ATOM      9  N   UNL     1       8.463   5.617  19.930  0.00  0.00    +0.000 N 
ATOM     10  N   UNL     1       6.446   4.651  19.339  0.00  0.00    +0.000 NA
ATOM     11  C   UNL     1       5.615   4.375  18.339  0.00  0.00    +0.000 A 
ATOM     12  O   UNL     1       4.431   3.704  18.577  0.00  0.00    +0.000 OA
ATOM     13  H   UNL     1       6.553   6.177  14.934  0.00  0.00    +0.000 HD
ATOM     14  H   UNL     1       8.161   6.174  15.438  0.00  0.00    +0.000 HD
ATOM     15  H   UNL     1       9.011   6.416  19.645  0.00  0.00    +0.000 HD
ATOM     16  H   UNL     1       8.003   5.653  20.828  0.00  0.00    +0.000 HD
ENDROOT
BRANCH   1  17
ATOM     17  C   UNL     1       2.704   5.187  17.565  0.00  0.00    +0.000 C 
BRANCH  17  18
ATOM     18  N   UNL     1       3.135   6.248  18.522  0.00  0.00    +0.000 NA
BRANCH  18  20
ATOM     19  C   UNL     1       2.010   8.517  18.190  0.00  0.00    +0.000 C 
ATOM     20  C   UNL     1       3.152   7.568  17.845  0.00  0.00    +0.000 C 
ENDBRANCH  18  20
BRANCH  18  21
ATOM     21  C   UNL     1       2.233   6.280  19.697  0.00  0.00    +0.000 C 
BRANCH  21  22
ATOM     22  C   UNL     1       1.934   4.929  20.306  0.00  0.00    +0.000 A 
ATOM     23  C   UNL     1       2.655   4.433  21.395  0.00  0.00    +0.000 A 
ATOM     24  C   UNL     1       2.301   3.206  21.957  0.00  0.00    +0.000 A 
ATOM     25  C   UNL     1       1.232   2.517  21.409  0.00  0.00    +0.000 A 
ATOM     26  N   UNL     1       0.515   2.960  20.353  0.00  0.00    +0.000 NA
ATOM     27  C   UNL     1       0.878   4.153  19.833  0.00  0.00    +0.000 A 
ENDBRANCH  21  22
ENDBRANCH  18  21
ENDBRANCH  17  18
ENDBRANCH   1  17
TORSDOF 5
ENDMDL
