MODEL 1
REMARK VINA RESULT:      -9.4      0.000      0.000
REMARK  Name = 
REMARK  10 active torsions:
REMARK  status: ('A' for Active; 'I' for Inactive)
REMARK    1  A    between atoms: C_1  and  C_2
REMARK    2  A    between atoms: C_2  and  C_3
REMARK    3  A    between atoms: C_2  and  C_4
REMARK    4  A    between atoms: N_15  and  C_16
REMARK    5  A    between atoms: C_16  and  C_17
REMARK    6  A    between atoms: C_16  and  C_18
REMARK    7  A    between atoms: C_21  and  C_22
REMARK    8  A    between atoms: N_24  and  C_25
REMARK    9  A    between atoms: C_28  and  C_29
REMARK   10  A    between atoms: C_28  and  O_30
REMARK                            x       y       z     vdW  Elec       q    Type
REMARK                         _______ _______ _______ _____ _____    ______ ____
ROOT
ATOM      1  C   UNL     1      -0.417  10.552  19.811  0.00  0.00    +0.000 A 
ATOM      2  C   UNL     1       0.046  10.438  18.486  0.00  0.00    +0.000 A 
ATOM      3  C   UNL     1       1.007   9.489  18.135  0.00  0.00    +0.000 A 
ATOM      4  C   UNL     1       1.542   8.616  19.091  0.00  0.00    +0.000 A 
ATOM      5  C   UNL     1       1.073   8.714  20.405  0.00  0.00    +0.000 A 
ATOM      6  F   UNL     1       1.531   7.892  21.361  0.00  0.00    +0.000 F 
ATOM      7  C   UNL     1       0.118   9.674  20.769  0.00  0.00    +0.000 A 
ENDROOT
BRANCH   4   8
ATOM      8  C   UNL     1       2.576   7.634  18.647  0.00  0.00    +0.000 C 
ATOM      9  O   UNL     1       3.396   7.972  17.794  0.00  0.00    +0.000 OA
ATOM     10  N   UNL     1       2.569   6.372  19.206  0.00  0.00    +0.000 N 
ATOM     11  H   UNL     1       1.906   6.176  19.948  0.00  0.00    +0.000 HD
BRANCH  10  12
ATOM     12  C   UNL     1       3.512   5.332  18.793  0.00  0.00    +0.000 C 
ATOM     13  C   UNL     1       3.105   4.707  17.458  0.00  0.00    +0.000 C 
ATOM     14  C   UNL     1       1.829   3.876  17.572  0.00  0.00    +0.000 C 
ATOM     15  C   UNL     1       1.913   2.795  18.661  0.00  0.00    +0.000 C 
ATOM     16  C   UNL     1       0.521   2.198  18.899  0.00  0.00    +0.000 C 
ATOM     17  C   UNL     1       2.499   3.296  19.993  0.00  0.00    +0.000 C 
ATOM     18  C   UNL     1       3.696   4.242  19.854  0.00  0.00    +0.000 C 
BRANCH  15  19
ATOM     19  O   UNL     1       2.771   1.754  18.184  0.00  0.00    +0.000 OA
ATOM     20  H   UNL     1       3.689   1.989  18.413  0.00  0.00    +0.000 HD
ENDBRANCH  15  19
ENDBRANCH  10  12
ENDBRANCH   4   8
BRANCH   1  21
ATOM     21  C   UNL     1      -1.413  11.664  20.135  0.00  0.00    +0.000 C 
ATOM     22  C   UNL     1      -1.139  12.881  19.248  0.00  0.00    +0.000 C 
BRANCH  21  34
ATOM     23  C   UNL     1      -6.236  12.622  19.957  0.00  0.00    +0.000 C 
ATOM     24  C   UNL     1      -7.488  13.378  19.515  0.00  0.00    +0.000 C 
ATOM     25  O   UNL     1      -7.406  14.667  20.121  0.00  0.00    +0.000 OA
ATOM     26  C   UNL     1      -6.545  14.574  21.183  0.00  0.00    +0.000 C 
ATOM     27  O   UNL     1      -6.379  15.477  21.982  0.00  0.00    +0.000 OA
ATOM     28  N   UNL     1      -5.925  13.341  21.162  0.00  0.00    +0.000 N 
ATOM     29  C   UNL     1      -4.778  13.104  21.932  0.00  0.00    +0.000 A 
ATOM     30  C   UNL     1      -4.945  13.031  23.295  0.00  0.00    +0.000 A 
ATOM     31  C   UNL     1      -3.877  12.543  23.991  0.00  0.00    +0.000 A 
ATOM     32  N   UNL     1      -2.704  12.217  23.421  0.00  0.00    +0.000 NA
ATOM     33  C   UNL     1      -2.606  12.375  22.094  0.00  0.00    +0.000 A 
ATOM     34  N   UNL     1      -1.377  12.048  21.537  0.00  0.00    +0.000 N 
ATOM     35  N   UNL     1      -3.635  12.764  21.318  0.00  0.00    +0.000 NA
ATOM     36  H   UNL     1      -0.952  11.398  22.188  0.00  0.00    +0.000 HD
BRANCH  23  38
ATOM     37  C   UNL     1      -7.807  10.913  21.019  0.00  0.00    +0.000 C 
ATOM     38  C   UNL     1      -6.551  11.112  20.162  0.00  0.00    +0.000 C 
ATOM     39  C   UNL     1      -6.732  10.301  18.875  0.00  0.00    +0.000 C 
ENDBRANCH  23  38
ENDBRANCH  21  34
ENDBRANCH   1  21
TORSDOF 6
ENDMDL
MODEL 2
REMARK VINA RESULT:      -8.9      1.746      2.476
REMARK  Name = 
REMARK  10 active torsions:
REMARK  status: ('A' for Active; 'I' for Inactive)
REMARK    1  A    between atoms: C_1  and  C_2
REMARK    2  A    between atoms: C_2  and  C_3
REMARK    3  A    between atoms: C_2  and  C_4
REMARK    4  A    between atoms: N_15  and  C_16
REMARK    5  A    between atoms: C_16  and  C_17
REMARK    6  A    between atoms: C_16  and  C_18
REMARK    7  A    between atoms: C_21  and  C_22
REMARK    8  A    between atoms: N_24  and  C_25
REMARK    9  A    between atoms: C_28  and  C_29
REMARK   10  A    between atoms: C_28  and  O_30
REMARK                            x       y       z     vdW  Elec       q    Type
REMARK                         _______ _______ _______ _____ _____    ______ ____
ROOT
ATOM      1  C   UNL     1       0.240  10.231  20.312  0.00  0.00    +0.000 A 
ATOM      2  C   UNL     1       0.377   9.398  21.440  0.00  0.00    +0.000 A 
ATOM      3  C   UNL     1       1.041   8.173  21.357  0.00  0.00    +0.000 A 
ATOM      4  C   UNL     1       1.596   7.733  20.148  0.00  0.00    +0.000 A 
ATOM      5  C   UNL     1       1.476   8.565  19.029  0.00  0.00    +0.000 A 
ATOM      6  F   UNL     1       2.005   8.209  17.849  0.00  0.00    +0.000 F 
ATOM      7  C   UNL     1       0.798   9.790  19.101  0.00  0.00    +0.000 A 
ENDROOT
BRANCH   4   8
ATOM      8  C   UNL     1       2.281   6.407  20.129  0.00  0.00    +0.000 C 
ATOM      9  O   UNL     1       1.769   5.459  20.723  0.00  0.00    +0.000 OA
ATOM     10  N   UNL     1       3.477   6.293  19.450  0.00  0.00    +0.000 N 
ATOM     11  H   UNL     1       3.816   7.095  18.930  0.00  0.00    +0.000 HD
BRANCH  10  12
ATOM     12  C   UNL     1       4.243   5.046  19.423  0.00  0.00    +0.000 C 
ATOM     13  C   UNL     1       5.732   5.309  19.194  0.00  0.00    +0.000 C 
ATOM     14  C   UNL     1       6.018   5.825  17.784  0.00  0.00    +0.000 C 
ATOM     15  C   UNL     1       5.466   4.904  16.686  0.00  0.00    +0.000 C 
ATOM     16  C   UNL     1       5.548   5.617  15.331  0.00  0.00    +0.000 C 
ATOM     17  C   UNL     1       4.024   4.429  16.937  0.00  0.00    +0.000 C 
ATOM     18  C   UNL     1       3.716   4.047  18.388  0.00  0.00    +0.000 C 
BRANCH  15  19
ATOM     19  O   UNL     1       6.293   3.738  16.629  0.00  0.00    +0.000 OA
ATOM     20  H   UNL     1       6.478   3.544  15.692  0.00  0.00    +0.000 HD
ENDBRANCH  15  19
ENDBRANCH  10  12
ENDBRANCH   4   8
BRANCH   1  21
ATOM     21  C   UNL     1      -0.566  11.519  20.462  0.00  0.00    +0.000 C 
ATOM     22  C   UNL     1       0.137  12.661  19.724  0.00  0.00    +0.000 C 
BRANCH  21  34
ATOM     23  C   UNL     1      -5.191  12.806  19.383  0.00  0.00    +0.000 C 
ATOM     24  C   UNL     1      -6.283  13.652  18.728  0.00  0.00    +0.000 C 
ATOM     25  O   UNL     1      -6.237  14.924  19.372  0.00  0.00    +0.000 OA
ATOM     26  C   UNL     1      -5.607  14.758  20.578  0.00  0.00    +0.000 C 
ATOM     27  O   UNL     1      -5.542  15.635  21.419  0.00  0.00    +0.000 OA
ATOM     28  N   UNL     1      -5.076  13.485  20.644  0.00  0.00    +0.000 N 
ATOM     29  C   UNL     1      -4.118  13.160  21.614  0.00  0.00    +0.000 A 
ATOM     30  C   UNL     1      -4.551  13.079  22.917  0.00  0.00    +0.000 A 
ATOM     31  C   UNL     1      -3.672  12.510  23.792  0.00  0.00    +0.000 A 
ATOM     32  N   UNL     1      -2.434  12.113  23.451  0.00  0.00    +0.000 NA
ATOM     33  C   UNL     1      -2.070  12.283  22.173  0.00  0.00    +0.000 A 
ATOM     34  N   UNL     1      -0.779  11.880  21.855  0.00  0.00    +0.000 N 
ATOM     35  N   UNL     1      -2.901  12.752  21.224  0.00  0.00    +0.000 NA
ATOM     36  H   UNL     1      -0.531  11.194  22.558  0.00  0.00    +0.000 HD
BRANCH  23  38
ATOM     37  C   UNL     1      -7.022  11.190  20.125  0.00  0.00    +0.000 C 
ATOM     38  C   UNL     1      -5.636  11.318  19.482  0.00  0.00    +0.000 C 
ATOM     39  C   UNL     1      -5.666  10.555  18.154  0.00  0.00    +0.000 C 
ENDBRANCH  23  38
ENDBRANCH  21  34
ENDBRANCH   1  21
TORSDOF 6
ENDMDL
MODEL 3
REMARK VINA RESULT:      -8.9      0.976      1.233
REMARK  Name = 
REMARK  10 active torsions:
REMARK  status: ('A' for Active; 'I' for Inactive)
REMARK    1  A    between atoms: C_1  and  C_2
REMARK    2  A    between atoms: C_2  and  C_3
REMARK    3  A    between atoms: C_2  and  C_4
REMARK    4  A    between atoms: N_15  and  C_16
REMARK    5  A    between atoms: C_16  and  C_17
REMARK    6  A    between atoms: C_16  and  C_18
REMARK    7  A    between atoms: C_21  and  C_22
REMARK    8  A    between atoms: N_24  and  C_25
REMARK    9  A    between atoms: C_28  and  C_29
REMARK   10  A    between atoms: C_28  and  O_30
REMARK                            x       y       z     vdW  Elec       q    Type
REMARK                         _______ _______ _______ _____ _____    ______ ____
ROOT
ATOM      1  C   UNL     1       0.160  10.229  19.515  0.00  0.00    +0.000 A 
ATOM      2  C   UNL     1       0.626  10.193  18.186  0.00  0.00    +0.000 A 
ATOM      3  C   UNL     1       1.506   9.199  17.756  0.00  0.00    +0.000 A 
ATOM      4  C   UNL     1       1.954   8.202  18.632  0.00  0.00    +0.000 A 
ATOM      5  C   UNL     1       1.482   8.224  19.949  0.00  0.00    +0.000 A 
ATOM      6  F   UNL     1       1.857   7.285  20.830  0.00  0.00    +0.000 F 
ATOM      7  C   UNL     1       0.608   9.228  20.392  0.00  0.00    +0.000 A 
ENDROOT
BRANCH   4   8
ATOM      8  C   UNL     1       2.905   7.178  18.106  0.00  0.00    +0.000 C 
ATOM      9  O   UNL     1       4.015   7.536  17.715  0.00  0.00    +0.000 OA
ATOM     10  N   UNL     1       2.499   5.859  18.070  0.00  0.00    +0.000 N 
ATOM     11  H   UNL     1       1.595   5.621  18.464  0.00  0.00    +0.000 HD
BRANCH  10  12
ATOM     12  C   UNL     1       3.345   4.798  17.523  0.00  0.00    +0.000 C 
ATOM     13  C   UNL     1       2.581   3.478  17.407  0.00  0.00    +0.000 C 
ATOM     14  C   UNL     1       2.253   2.877  18.773  0.00  0.00    +0.000 C 
ATOM     15  C   UNL     1       3.493   2.697  19.662  0.00  0.00    +0.000 C 
ATOM     16  C   UNL     1       3.054   2.354  21.090  0.00  0.00    +0.000 C 
ATOM     17  C   UNL     1       4.428   3.919  19.684  0.00  0.00    +0.000 C 
ATOM     18  C   UNL     1       4.635   4.595  18.324  0.00  0.00    +0.000 C 
BRANCH  15  19
ATOM     19  O   UNL     1       4.248   1.594  19.149  0.00  0.00    +0.000 OA
ATOM     20  H   UNL     1       3.859   0.772  19.500  0.00  0.00    +0.000 HD
ENDBRANCH  15  19
ENDBRANCH  10  12
ENDBRANCH   4   8
BRANCH   1  21
ATOM     21  C   UNL     1      -0.740  11.390  19.932  0.00  0.00    +0.000 C 
ATOM     22  C   UNL     1      -0.314  12.667  19.203  0.00  0.00    +0.000 C 
BRANCH  21  34
ATOM     23  C   UNL     1      -5.365  13.050  19.672  0.00  0.00    +0.000 C 
ATOM     24  C   UNL     1      -6.473  14.023  19.271  0.00  0.00    +0.000 C 
ATOM     25  O   UNL     1      -6.246  15.212  20.026  0.00  0.00    +0.000 OA
ATOM     26  C   UNL     1      -5.469  14.879  21.105  0.00  0.00    +0.000 C 
ATOM     27  O   UNL     1      -5.224  15.654  22.010  0.00  0.00    +0.000 OA
ATOM     28  N   UNL     1      -5.027  13.579  20.965  0.00  0.00    +0.000 N 
ATOM     29  C   UNL     1      -3.969  13.096  21.748  0.00  0.00    +0.000 A 
ATOM     30  C   UNL     1      -4.222  12.897  23.085  0.00  0.00    +0.000 A 
ATOM     31  C   UNL     1      -3.273  12.187  23.761  0.00  0.00    +0.000 A 
ATOM     32  N   UNL     1      -2.127  11.759  23.205  0.00  0.00    +0.000 NA
ATOM     33  C   UNL     1      -1.933  12.046  21.911  0.00  0.00    +0.000 A 
ATOM     34  N   UNL     1      -0.731  11.608  21.370  0.00  0.00    +0.000 N 
ATOM     35  N   UNL     1      -2.851  12.663  21.145  0.00  0.00    +0.000 NA
ATOM     36  H   UNL     1      -0.438  10.836  21.957  0.00  0.00    +0.000 HD
BRANCH  23  38
ATOM     37  C   UNL     1      -7.199  11.473  20.489  0.00  0.00    +0.000 C 
ATOM     38  C   UNL     1      -5.898  11.587  19.686  0.00  0.00    +0.000 C 
ATOM     39  C   UNL     1      -6.147  10.969  18.307  0.00  0.00    +0.000 C 
ENDBRANCH  23  38
ENDBRANCH  21  34
ENDBRANCH   1  21
TORSDOF 6
ENDMDL
MODEL 4
REMARK VINA RESULT:      -8.8      2.185      2.976
REMARK  Name = 
REMARK  10 active torsions:
REMARK  status: ('A' for Active; 'I' for Inactive)
REMARK    1  A    between atoms: C_1  and  C_2
REMARK    2  A    between atoms: C_2  and  C_3
REMARK    3  A    between atoms: C_2  and  C_4
REMARK    4  A    between atoms: N_15  and  C_16
REMARK    5  A    between atoms: C_16  and  C_17
REMARK    6  A    between atoms: C_16  and  C_18
REMARK    7  A    between atoms: C_21  and  C_22
REMARK    8  A    between atoms: N_24  and  C_25
REMARK    9  A    between atoms: C_28  and  C_29
REMARK   10  A    between atoms: C_28  and  O_30
REMARK                            x       y       z     vdW  Elec       q    Type
REMARK                         _______ _______ _______ _____ _____    ______ ____
ROOT
ATOM      1  C   UNL     1       0.671  10.276  19.483  0.00  0.00    +0.000 A 
ATOM      2  C   UNL     1       1.145   9.986  18.190  0.00  0.00    +0.000 A 
ATOM      3  C   UNL     1       1.730   8.753  17.895  0.00  0.00    +0.000 A 
ATOM      4  C   UNL     1       1.862   7.763  18.877  0.00  0.00    +0.000 A 
ATOM      5  C   UNL     1       1.377   8.042  20.160  0.00  0.00    +0.000 A 
ATOM      6  F   UNL     1       1.455   7.127  21.138  0.00  0.00    +0.000 F 
ATOM      7  C   UNL     1       0.801   9.283  20.467  0.00  0.00    +0.000 A 
ENDROOT
BRANCH   4   8
ATOM      8  C   UNL     1       2.510   6.473  18.494  0.00  0.00    +0.000 C 
ATOM      9  O   UNL     1       1.996   5.415  18.854  0.00  0.00    +0.000 OA
ATOM     10  N   UNL     1       3.673   6.516  17.753  0.00  0.00    +0.000 N 
ATOM     11  H   UNL     1       4.011   7.418  17.436  0.00  0.00    +0.000 HD
BRANCH  10  12
ATOM     12  C   UNL     1       4.402   5.304  17.377  0.00  0.00    +0.000 C 
ATOM     13  C   UNL     1       5.015   4.619  18.599  0.00  0.00    +0.000 C 
ATOM     14  C   UNL     1       6.154   5.433  19.209  0.00  0.00    +0.000 C 
ATOM     15  C   UNL     1       7.250   5.786  18.193  0.00  0.00    +0.000 C 
ATOM     16  C   UNL     1       8.203   6.820  18.804  0.00  0.00    +0.000 C 
ATOM     17  C   UNL     1       6.711   6.305  16.849  0.00  0.00    +0.000 C 
ATOM     18  C   UNL     1       5.480   5.562  16.319  0.00  0.00    +0.000 C 
BRANCH  15  19
ATOM     19  O   UNL     1       7.998   4.596  17.919  0.00  0.00    +0.000 OA
ATOM     20  H   UNL     1       7.564   3.854  18.377  0.00  0.00    +0.000 HD
ENDBRANCH  15  19
ENDBRANCH  10  12
ENDBRANCH   4   8
BRANCH   1  21
ATOM     21  C   UNL     1       0.113  11.673  19.749  0.00  0.00    +0.000 C 
ATOM     22  C   UNL     1       1.044  12.729  19.147  0.00  0.00    +0.000 C 
BRANCH  21  34
ATOM     23  C   UNL     1      -4.684  12.391  18.918  0.00  0.00    +0.000 C 
ATOM     24  C   UNL     1      -5.904  13.117  18.354  0.00  0.00    +0.000 C 
ATOM     25  O   UNL     1      -5.996  14.349  19.068  0.00  0.00    +0.000 OA
ATOM     26  C   UNL     1      -5.297  14.205  20.238  0.00  0.00    +0.000 C 
ATOM     27  O   UNL     1      -5.309  15.039  21.124  0.00  0.00    +0.000 OA
ATOM     28  N   UNL     1      -4.602  13.012  20.211  0.00  0.00    +0.000 N 
ATOM     29  C   UNL     1      -3.567  12.767  21.125  0.00  0.00    +0.000 A 
ATOM     30  C   UNL     1      -3.928  12.562  22.436  0.00  0.00    +0.000 A 
ATOM     31  C   UNL     1      -2.944  12.069  23.243  0.00  0.00    +0.000 A 
ATOM     32  N   UNL     1      -1.682  11.858  22.834  0.00  0.00    +0.000 NA
ATOM     33  C   UNL     1      -1.400  12.140  21.556  0.00  0.00    +0.000 A 
ATOM     34  N   UNL     1      -0.083  11.930  21.167  0.00  0.00    +0.000 N 
ATOM     35  N   UNL     1      -2.326  12.545  20.666  0.00  0.00    +0.000 NA
ATOM     36  H   UNL     1       0.283  11.247  21.820  0.00  0.00    +0.000 HD
BRANCH  23  38
ATOM     37  C   UNL     1      -6.392  10.512  18.655  0.00  0.00    +0.000 C 
ATOM     38  C   UNL     1      -4.926  10.854  18.948  0.00  0.00    +0.000 C 
ATOM     39  C   UNL     1      -4.057  10.036  17.988  0.00  0.00    +0.000 C 
ENDBRANCH  23  38
ENDBRANCH  21  34
ENDBRANCH   1  21
TORSDOF 6
ENDMDL
MODEL 5
REMARK VINA RESULT:      -8.7      2.554      3.901
REMARK  Name = 
REMARK  10 active torsions:
REMARK  status: ('A' for Active; 'I' for Inactive)
REMARK    1  A    between atoms: C_1  and  C_2
REMARK    2  A    between atoms: C_2  and  C_3
REMARK    3  A    between atoms: C_2  and  C_4
REMARK    4  A    between atoms: N_15  and  C_16
REMARK    5  A    between atoms: C_16  and  C_17
REMARK    6  A    between atoms: C_16  and  C_18
REMARK    7  A    between atoms: C_21  and  C_22
REMARK    8  A    between atoms: N_24  and  C_25
REMARK    9  A    between atoms: C_28  and  C_29
REMARK   10  A    between atoms: C_28  and  O_30
REMARK                            x       y       z     vdW  Elec       q    Type
REMARK                         _______ _______ _______ _____ _____    ______ ____
ROOT
ATOM      1  C   UNL     1       0.477   9.668  19.445  0.00  0.00    +0.000 A 
ATOM      2  C   UNL     1       0.571   8.915  20.631  0.00  0.00    +0.000 A 
ATOM      3  C   UNL     1       1.406   7.799  20.713  0.00  0.00    +0.000 A 
ATOM      4  C   UNL     1       2.180   7.394  19.617  0.00  0.00    +0.000 A 
ATOM      5  C   UNL     1       2.101   8.149  18.442  0.00  0.00    +0.000 A 
ATOM      6  F   UNL     1       2.833   7.825  17.366  0.00  0.00    +0.000 F 
ATOM      7  C   UNL     1       1.254   9.263  18.348  0.00  0.00    +0.000 A 
ENDROOT
BRANCH   4   8
ATOM      8  C   UNL     1       3.040   6.183  19.773  0.00  0.00    +0.000 C 
ATOM      9  O   UNL     1       2.638   5.247  20.461  0.00  0.00    +0.000 OA
ATOM     10  N   UNL     1       4.268   6.163  19.141  0.00  0.00    +0.000 N 
ATOM     11  H   UNL     1       4.514   6.941  18.539  0.00  0.00    +0.000 HD
BRANCH  10  12
ATOM     12  C   UNL     1       5.197   5.041  19.281  0.00  0.00    +0.000 C 
ATOM     13  C   UNL     1       6.651   5.514  19.263  0.00  0.00    +0.000 C 
ATOM     14  C   UNL     1       7.073   6.038  17.891  0.00  0.00    +0.000 C 
ATOM     15  C   UNL     1       6.830   5.024  16.763  0.00  0.00    +0.000 C 
ATOM     16  C   UNL     1       7.017   5.713  15.406  0.00  0.00    +0.000 C 
ATOM     17  C   UNL     1       5.449   4.349  16.817  0.00  0.00    +0.000 C 
ATOM     18  C   UNL     1       4.981   3.955  18.222  0.00  0.00    +0.000 C 
BRANCH  15  19
ATOM     19  O   UNL     1       7.814   3.991  16.878  0.00  0.00    +0.000 OA
ATOM     20  H   UNL     1       8.345   4.166  17.675  0.00  0.00    +0.000 HD
ENDBRANCH  15  19
ENDBRANCH  10  12
ENDBRANCH   4   8
BRANCH   1  21
ATOM     21  C   UNL     1      -0.515  10.829  19.407  0.00  0.00    +0.000 C 
ATOM     22  C   UNL     1      -1.595  10.557  18.357  0.00  0.00    +0.000 C 
BRANCH  21  34
ATOM     23  C   UNL     1      -3.931  13.103  22.122  0.00  0.00    +0.000 C 
ATOM     24  C   UNL     1      -5.338  13.598  22.459  0.00  0.00    +0.000 C 
ATOM     25  O   UNL     1      -5.642  14.608  21.498  0.00  0.00    +0.000 OA
ATOM     26  C   UNL     1      -4.457  15.060  20.980  0.00  0.00    +0.000 C 
ATOM     27  O   UNL     1      -4.382  16.022  20.238  0.00  0.00    +0.000 OA
ATOM     28  N   UNL     1      -3.428  14.250  21.417  0.00  0.00    +0.000 N 
ATOM     29  C   UNL     1      -2.174  14.288  20.793  0.00  0.00    +0.000 A 
ATOM     30  C   UNL     1      -1.411  15.415  20.990  0.00  0.00    +0.000 A 
ATOM     31  C   UNL     1      -0.108  15.316  20.598  0.00  0.00    +0.000 A 
ATOM     32  N   UNL     1       0.407  14.233  19.991  0.00  0.00    +0.000 NA
ATOM     33  C   UNL     1      -0.421  13.200  19.783  0.00  0.00    +0.000 A 
ATOM     34  N   UNL     1       0.135  12.103  19.137  0.00  0.00    +0.000 N 
ATOM     35  N   UNL     1      -1.695  13.175  20.216  0.00  0.00    +0.000 NA
ATOM     36  H   UNL     1       1.131  12.165  19.312  0.00  0.00    +0.000 HD
BRANCH  23  38
ATOM     37  C   UNL     1      -4.106  12.427  24.577  0.00  0.00    +0.000 C 
ATOM     38  C   UNL     1      -3.151  12.741  23.419  0.00  0.00    +0.000 C 
ATOM     39  C   UNL     1      -2.175  11.568  23.289  0.00  0.00    +0.000 C 
ENDBRANCH  23  38
ENDBRANCH  21  34
ENDBRANCH   1  21
TORSDOF 6
ENDMDL
MODEL 6
REMARK VINA RESULT:      -8.7      3.297      4.567
REMARK  Name = 
REMARK  10 active torsions:
REMARK  status: ('A' for Active; 'I' for Inactive)
REMARK    1  A    between atoms: C_1  and  C_2
REMARK    2  A    between atoms: C_2  and  C_3
REMARK    3  A    between atoms: C_2  and  C_4
REMARK    4  A    between atoms: N_15  and  C_16
REMARK    5  A    between atoms: C_16  and  C_17
REMARK    6  A    between atoms: C_16  and  C_18
REMARK    7  A    between atoms: C_21  and  C_22
REMARK    8  A    between atoms: N_24  and  C_25
REMARK    9  A    between atoms: C_28  and  C_29
REMARK   10  A    between atoms: C_28  and  O_30
REMARK                            x       y       z     vdW  Elec       q    Type
REMARK                         _______ _______ _______ _____ _____    ______ ____
ROOT
ATOM      1  C   UNL     1       0.488   9.988  18.981  0.00  0.00    +0.000 A 
ATOM      2  C   UNL     1       1.148   9.337  17.921  0.00  0.00    +0.000 A 
ATOM      3  C   UNL     1       1.902   8.183  18.139  0.00  0.00    +0.000 A 
ATOM      4  C   UNL     1       2.025   7.633  19.422  0.00  0.00    +0.000 A 
ATOM      5  C   UNL     1       1.358   8.268  20.475  0.00  0.00    +0.000 A 
ATOM      6  F   UNL     1       1.419   7.777  21.722  0.00  0.00    +0.000 F 
ATOM      7  C   UNL     1       0.610   9.436  20.266  0.00  0.00    +0.000 A 
ENDROOT
BRANCH   4   8
ATOM      8  C   UNL     1       2.858   6.404  19.584  0.00  0.00    +0.000 C 
ATOM      9  O   UNL     1       2.499   5.537  20.378  0.00  0.00    +0.000 OA
ATOM     10  N   UNL     1       4.014   6.290  18.838  0.00  0.00    +0.000 N 
ATOM     11  H   UNL     1       4.222   7.011  18.156  0.00  0.00    +0.000 HD
BRANCH  10  12
ATOM     12  C   UNL     1       4.916   5.146  18.970  0.00  0.00    +0.000 C 
ATOM     13  C   UNL     1       6.360   5.532  18.647  0.00  0.00    +0.000 C 
ATOM     14  C   UNL     1       6.556   5.853  17.166  0.00  0.00    +0.000 C 
ATOM     15  C   UNL     1       6.090   4.719  16.241  0.00  0.00    +0.000 C 
ATOM     16  C   UNL     1       6.062   5.219  14.792  0.00  0.00    +0.000 C 
ATOM     17  C   UNL     1       4.718   4.133  16.615  0.00  0.00    +0.000 C 
ATOM     18  C   UNL     1       4.486   3.947  18.118  0.00  0.00    +0.000 C 
BRANCH  15  19
ATOM     19  O   UNL     1       7.044   3.656  16.329  0.00  0.00    +0.000 OA
ATOM     20  H   UNL     1       7.828   3.992  16.801  0.00  0.00    +0.000 HD
ENDBRANCH  15  19
ENDBRANCH  10  12
ENDBRANCH   4   8
BRANCH   1  21
ATOM     21  C   UNL     1      -0.254  11.288  18.677  0.00  0.00    +0.000 C 
ATOM     22  C   UNL     1      -1.427  11.010  17.735  0.00  0.00    +0.000 C 
BRANCH  21  34
ATOM     23  C   UNL     1      -2.200  14.626  21.725  0.00  0.00    +0.000 C 
ATOM     24  C   UNL     1      -3.305  15.521  22.284  0.00  0.00    +0.000 C 
ATOM     25  O   UNL     1      -3.561  16.505  21.283  0.00  0.00    +0.000 OA
ATOM     26  C   UNL     1      -2.462  16.564  20.467  0.00  0.00    +0.000 C 
ATOM     27  O   UNL     1      -2.323  17.410  19.603  0.00  0.00    +0.000 OA
ATOM     28  N   UNL     1      -1.604  15.530  20.780  0.00  0.00    +0.000 N 
ATOM     29  C   UNL     1      -0.573  15.165  19.903  0.00  0.00    +0.000 A 
ATOM     30  C   UNL     1       0.480  16.041  19.778  0.00  0.00    +0.000 A 
ATOM     31  C   UNL     1       1.577  15.549  19.133  0.00  0.00    +0.000 A 
ATOM     32  N   UNL     1       1.631  14.324  18.584  0.00  0.00    +0.000 NA
ATOM     33  C   UNL     1       0.539  13.556  18.699  0.00  0.00    +0.000 A 
ATOM     34  N   UNL     1       0.618  12.303  18.105  0.00  0.00    +0.000 N 
ATOM     35  N   UNL     1      -0.554  13.924  19.393  0.00  0.00    +0.000 NA
ATOM     36  H   UNL     1       1.607  12.092  18.053  0.00  0.00    +0.000 HD
BRANCH  23  38
ATOM     37  C   UNL     1      -1.700  14.687  24.227  0.00  0.00    +0.000 C 
ATOM     38  C   UNL     1      -1.250  14.151  22.862  0.00  0.00    +0.000 C 
ATOM     39  C   UNL     1      -1.088  12.633  22.988  0.00  0.00    +0.000 C 
ENDBRANCH  23  38
ENDBRANCH  21  34
ENDBRANCH   1  21
TORSDOF 6
ENDMDL
MODEL 7
REMARK VINA RESULT:      -8.6      2.752      3.766
REMARK  Name = 
REMARK  10 active torsions:
REMARK  status: ('A' for Active; 'I' for Inactive)
REMARK    1  A    between atoms: C_1  and  C_2
REMARK    2  A    between atoms: C_2  and  C_3
REMARK    3  A    between atoms: C_2  and  C_4
REMARK    4  A    between atoms: N_15  and  C_16
REMARK    5  A    between atoms: C_16  and  C_17
REMARK    6  A    between atoms: C_16  and  C_18
REMARK    7  A    between atoms: C_21  and  C_22
REMARK    8  A    between atoms: N_24  and  C_25
REMARK    9  A    between atoms: C_28  and  C_29
REMARK   10  A    between atoms: C_28  and  O_30
REMARK                            x       y       z     vdW  Elec       q    Type
REMARK                         _______ _______ _______ _____ _____    ______ ____
ROOT
ATOM      1  C   UNL     1       0.476  10.734  19.619  0.00  0.00    +0.000 A 
ATOM      2  C   UNL     1       0.525  10.012  20.826  0.00  0.00    +0.000 A 
ATOM      3  C   UNL     1       1.109   8.745  20.888  0.00  0.00    +0.000 A 
ATOM      4  C   UNL     1       1.667   8.151  19.748  0.00  0.00    +0.000 A 
ATOM      5  C   UNL     1       1.635   8.872  18.549  0.00  0.00    +0.000 A 
ATOM      6  F   UNL     1       2.172   8.367  17.429  0.00  0.00    +0.000 F 
ATOM      7  C   UNL     1       1.038  10.140  18.477  0.00  0.00    +0.000 A 
ENDROOT
BRANCH   4   8
ATOM      8  C   UNL     1       2.263   6.789  19.885  0.00  0.00    +0.000 C 
ATOM      9  O   UNL     1       1.733   5.976  20.640  0.00  0.00    +0.000 OA
ATOM     10  N   UNL     1       3.400   6.492  19.161  0.00  0.00    +0.000 N 
ATOM     11  H   UNL     1       3.753   7.185  18.510  0.00  0.00    +0.000 HD
BRANCH  10  12
ATOM     12  C   UNL     1       4.080   5.201  19.272  0.00  0.00    +0.000 C 
ATOM     13  C   UNL     1       5.594   5.351  19.113  0.00  0.00    +0.000 C 
ATOM     14  C   UNL     1       5.991   5.736  17.689  0.00  0.00    +0.000 C 
ATOM     15  C   UNL     1       5.438   4.769  16.631  0.00  0.00    +0.000 C 
ATOM     16  C   UNL     1       5.643   5.367  15.233  0.00  0.00    +0.000 C 
ATOM     17  C   UNL     1       3.956   4.407  16.830  0.00  0.00    +0.000 C 
ATOM     18  C   UNL     1       3.544   4.160  18.285  0.00  0.00    +0.000 C 
BRANCH  15  19
ATOM     19  O   UNL     1       6.187   3.552  16.710  0.00  0.00    +0.000 OA
ATOM     20  H   UNL     1       6.414   3.397  17.645  0.00  0.00    +0.000 HD
ENDBRANCH  15  19
ENDBRANCH  10  12
ENDBRANCH   4   8
BRANCH   1  21
ATOM     21  C   UNL     1      -0.246  12.080  19.612  0.00  0.00    +0.000 C 
ATOM     22  C   UNL     1      -0.922  12.301  18.257  0.00  0.00    +0.000 C 
BRANCH  21  34
ATOM     23  C   UNL     1      -3.635  13.932  22.661  0.00  0.00    +0.000 C 
ATOM     24  C   UNL     1      -4.973  14.572  23.030  0.00  0.00    +0.000 C 
ATOM     25  O   UNL     1      -4.934  15.899  22.506  0.00  0.00    +0.000 OA
ATOM     26  C   UNL     1      -3.619  16.232  22.313  0.00  0.00    +0.000 C 
ATOM     27  O   UNL     1      -3.257  17.353  22.007  0.00  0.00    +0.000 OA
ATOM     28  N   UNL     1      -2.832  15.113  22.500  0.00  0.00    +0.000 N 
ATOM     29  C   UNL     1      -1.502  15.093  22.057  0.00  0.00    +0.000 A 
ATOM     30  C   UNL     1      -0.604  15.877  22.741  0.00  0.00    +0.000 A 
ATOM     31  C   UNL     1       0.711  15.639  22.464  0.00  0.00    +0.000 A 
ATOM     32  N   UNL     1       1.129  14.757  21.539  0.00  0.00    +0.000 NA
ATOM     33  C   UNL     1       0.185  14.077  20.876  0.00  0.00    +0.000 A 
ATOM     34  N   UNL     1       0.647  13.188  19.913  0.00  0.00    +0.000 N 
ATOM     35  N   UNL     1      -1.129  14.182  21.145  0.00  0.00    +0.000 NA
ATOM     36  H   UNL     1       1.595  12.961  20.190  0.00  0.00    +0.000 HD
BRANCH  23  38
ATOM     37  C   UNL     1      -4.339  12.452  24.618  0.00  0.00    +0.000 C 
ATOM     38  C   UNL     1      -3.159  12.969  23.787  0.00  0.00    +0.000 C 
ATOM     39  C   UNL     1      -2.356  11.754  23.312  0.00  0.00    +0.000 C 
ENDBRANCH  23  38
ENDBRANCH  21  34
ENDBRANCH   1  21
TORSDOF 6
ENDMDL
MODEL 8
REMARK VINA RESULT:      -8.6      1.022      1.260
REMARK  Name = 
REMARK  10 active torsions:
REMARK  status: ('A' for Active; 'I' for Inactive)
REMARK    1  A    between atoms: C_1  and  C_2
REMARK    2  A    between atoms: C_2  and  C_3
REMARK    3  A    between atoms: C_2  and  C_4
REMARK    4  A    between atoms: N_15  and  C_16
REMARK    5  A    between atoms: C_16  and  C_17
REMARK    6  A    between atoms: C_16  and  C_18
REMARK    7  A    between atoms: C_21  and  C_22
REMARK    8  A    between atoms: N_24  and  C_25
REMARK    9  A    between atoms: C_28  and  C_29
REMARK   10  A    between atoms: C_28  and  O_30
REMARK                            x       y       z     vdW  Elec       q    Type
REMARK                         _______ _______ _______ _____ _____    ______ ____
ROOT
ATOM      1  C   UNL     1      -0.239  10.553  19.164  0.00  0.00    +0.000 A 
ATOM      2  C   UNL     1       0.241  10.234  17.879  0.00  0.00    +0.000 A 
ATOM      3  C   UNL     1       1.200   9.237  17.692  0.00  0.00    +0.000 A 
ATOM      4  C   UNL     1       1.716   8.519  18.779  0.00  0.00    +0.000 A 
ATOM      5  C   UNL     1       1.230   8.822  20.056  0.00  0.00    +0.000 A 
ATOM      6  F   UNL     1       1.669   8.154  21.134  0.00  0.00    +0.000 F 
ATOM      7  C   UNL     1       0.277   9.831  20.253  0.00  0.00    +0.000 A 
ENDROOT
BRANCH   4   8
ATOM      8  C   UNL     1       2.749   7.476  18.506  0.00  0.00    +0.000 C 
ATOM      9  O   UNL     1       3.641   7.714  17.695  0.00  0.00    +0.000 OA
ATOM     10  N   UNL     1       2.659   6.270  19.173  0.00  0.00    +0.000 N 
ATOM     11  H   UNL     1       1.935   6.159  19.875  0.00  0.00    +0.000 HD
BRANCH  10  12
ATOM     12  C   UNL     1       3.596   5.174  18.929  0.00  0.00    +0.000 C 
ATOM     13  C   UNL     1       3.319   4.488  17.591  0.00  0.00    +0.000 C 
ATOM     14  C   UNL     1       2.003   3.713  17.598  0.00  0.00    +0.000 C 
ATOM     15  C   UNL     1       1.914   2.695  18.745  0.00  0.00    +0.000 C 
ATOM     16  C   UNL     1       0.479   2.164  18.848  0.00  0.00    +0.000 C 
ATOM     17  C   UNL     1       2.364   3.249  20.108  0.00  0.00    +0.000 C 
ATOM     18  C   UNL     1       3.609   4.140  20.060  0.00  0.00    +0.000 C 
BRANCH  15  19
ATOM     19  O   UNL     1       2.775   1.596  18.428  0.00  0.00    +0.000 OA
ATOM     20  H   UNL     1       3.473   1.553  19.106  0.00  0.00    +0.000 HD
ENDBRANCH  15  19
ENDBRANCH  10  12
ENDBRANCH   4   8
BRANCH   1  21
ATOM     21  C   UNL     1      -1.231  11.706  19.298  0.00  0.00    +0.000 C 
ATOM     22  C   UNL     1      -0.740  12.910  18.489  0.00  0.00    +0.000 C 
BRANCH  21  34
ATOM     23  C   UNL     1      -5.897  12.826  18.212  0.00  0.00    +0.000 C 
ATOM     24  C   UNL     1      -7.017  13.624  17.543  0.00  0.00    +0.000 C 
ATOM     25  O   UNL     1      -7.009  14.910  18.161  0.00  0.00    +0.000 OA
ATOM     26  C   UNL     1      -6.370  14.789  19.367  0.00  0.00    +0.000 C 
ATOM     27  O   UNL     1      -6.328  15.686  20.189  0.00  0.00    +0.000 OA
ATOM     28  N   UNL     1      -5.798  13.535  19.458  0.00  0.00    +0.000 N 
ATOM     29  C   UNL     1      -4.827  13.261  20.430  0.00  0.00    +0.000 A 
ATOM     30  C   UNL     1      -5.253  13.194  21.736  0.00  0.00    +0.000 A 
ATOM     31  C   UNL     1      -4.353  12.671  22.619  0.00  0.00    +0.000 A 
ATOM     32  N   UNL     1      -3.105  12.305  22.281  0.00  0.00    +0.000 NA
ATOM     33  C   UNL     1      -2.751  12.459  20.999  0.00  0.00    +0.000 A 
ATOM     34  N   UNL     1      -1.450  12.090  20.684  0.00  0.00    +0.000 N 
ATOM     35  N   UNL     1      -3.600  12.882  20.043  0.00  0.00    +0.000 NA
ATOM     36  H   UNL     1      -1.178  11.427  21.400  0.00  0.00    +0.000 HD
BRANCH  23  38
ATOM     37  C   UNL     1      -5.072  10.410  18.225  0.00  0.00    +0.000 C 
ATOM     38  C   UNL     1      -6.295  11.328  18.344  0.00  0.00    +0.000 C 
ATOM     39  C   UNL     1      -7.030  10.958  19.637  0.00  0.00    +0.000 C 
ENDBRANCH  23  38
ENDBRANCH  21  34
ENDBRANCH   1  21
TORSDOF 6
ENDMDL
MODEL 9
REMARK VINA RESULT:      -8.6      2.030      2.924
REMARK  Name = 
REMARK  10 active torsions:
REMARK  status: ('A' for Active; 'I' for Inactive)
REMARK    1  A    between atoms: C_1  and  C_2
REMARK    2  A    between atoms: C_2  and  C_3
REMARK    3  A    between atoms: C_2  and  C_4
REMARK    4  A    between atoms: N_15  and  C_16
REMARK    5  A    between atoms: C_16  and  C_17
REMARK    6  A    between atoms: C_16  and  C_18
REMARK    7  A    between atoms: C_21  and  C_22
REMARK    8  A    between atoms: N_24  and  C_25
REMARK    9  A    between atoms: C_28  and  C_29
REMARK   10  A    between atoms: C_28  and  O_30
REMARK                            x       y       z     vdW  Elec       q    Type
REMARK                         _______ _______ _______ _____ _____    ______ ____
ROOT
ATOM      1  C   UNL     1       0.356  10.066  20.013  0.00  0.00    +0.000 A 
ATOM      2  C   UNL     1       0.454   9.094  21.027  0.00  0.00    +0.000 A 
ATOM      3  C   UNL     1       1.171   7.913  20.830  0.00  0.00    +0.000 A 
ATOM      4  C   UNL     1       1.820   7.657  19.614  0.00  0.00    +0.000 A 
ATOM      5  C   UNL     1       1.738   8.627  18.610  0.00  0.00    +0.000 A 
ATOM      6  F   UNL     1       2.355   8.450  17.432  0.00  0.00    +0.000 F 
ATOM      7  C   UNL     1       1.007   9.810  18.796  0.00  0.00    +0.000 A 
ENDROOT
BRANCH   4   8
ATOM      8  C   UNL     1       2.558   6.367  19.469  0.00  0.00    +0.000 C 
ATOM      9  O   UNL     1       2.493   5.535  20.372  0.00  0.00    +0.000 OA
ATOM     10  N   UNL     1       3.298   6.158  18.323  0.00  0.00    +0.000 N 
ATOM     11  H   UNL     1       3.260   6.858  17.589  0.00  0.00    +0.000 HD
BRANCH  10  12
ATOM     12  C   UNL     1       4.093   4.947  18.119  0.00  0.00    +0.000 C 
ATOM     13  C   UNL     1       5.225   4.843  19.142  0.00  0.00    +0.000 C 
ATOM     14  C   UNL     1       6.302   5.905  18.924  0.00  0.00    +0.000 C 
ATOM     15  C   UNL     1       6.872   5.896  17.498  0.00  0.00    +0.000 C 
ATOM     16  C   UNL     1       7.731   7.148  17.282  0.00  0.00    +0.000 C 
ATOM     17  C   UNL     1       5.800   5.805  16.398  0.00  0.00    +0.000 C 
ATOM     18  C   UNL     1       4.652   4.835  16.697  0.00  0.00    +0.000 C 
BRANCH  15  19
ATOM     19  O   UNL     1       7.715   4.747  17.366  0.00  0.00    +0.000 OA
ATOM     20  H   UNL     1       8.323   4.902  16.620  0.00  0.00    +0.000 HD
ENDBRANCH  15  19
ENDBRANCH  10  12
ENDBRANCH   4   8
BRANCH   1  21
ATOM     21  C   UNL     1      -0.510  11.297  20.275  0.00  0.00    +0.000 C 
ATOM     22  C   UNL     1       0.067  12.505  19.534  0.00  0.00    +0.000 C 
BRANCH  21  34
ATOM     23  C   UNL     1      -5.107  12.872  19.503  0.00  0.00    +0.000 C 
ATOM     24  C   UNL     1      -6.183  13.806  18.949  0.00  0.00    +0.000 C 
ATOM     25  O   UNL     1      -6.038  15.038  19.654  0.00  0.00    +0.000 OA
ATOM     26  C   UNL     1      -5.359  14.776  20.816  0.00  0.00    +0.000 C 
ATOM     27  O   UNL     1      -5.206  15.603  21.695  0.00  0.00    +0.000 OA
ATOM     28  N   UNL     1      -4.894  13.476  20.790  0.00  0.00    +0.000 N 
ATOM     29  C   UNL     1      -3.908  13.052  21.691  0.00  0.00    +0.000 A 
ATOM     30  C   UNL     1      -4.281  12.924  23.009  0.00  0.00    +0.000 A 
ATOM     31  C   UNL     1      -3.391  12.265  23.807  0.00  0.00    +0.000 A 
ATOM     32  N   UNL     1      -2.195  11.824  23.383  0.00  0.00    +0.000 NA
ATOM     33  C   UNL     1      -1.885  12.043  22.098  0.00  0.00    +0.000 A 
ATOM     34  N   UNL     1      -0.635  11.593  21.694  0.00  0.00    +0.000 N 
ATOM     35  N   UNL     1      -2.735  12.604  21.218  0.00  0.00    +0.000 NA
ATOM     36  H   UNL     1      -0.390  10.859  22.347  0.00  0.00    +0.000 HD
BRANCH  23  38
ATOM     37  C   UNL     1      -6.899  11.288  20.395  0.00  0.00    +0.000 C 
ATOM     38  C   UNL     1      -5.625  11.405  19.550  0.00  0.00    +0.000 C 
ATOM     39  C   UNL     1      -5.911  10.769  18.186  0.00  0.00    +0.000 C 
ENDBRANCH  23  38
ENDBRANCH  21  34
ENDBRANCH   1  21
TORSDOF 6
ENDMDL
