MODEL 1
REMARK VINA RESULT:     -10.0      0.000      0.000
REMARK  Name = 
REMARK  7 active torsions:
REMARK  status: ('A' for Active; 'I' for Inactive)
REMARK    1  A    between atoms: C_1  and  N_2
REMARK    2  A    between atoms: C_6  and  C_7
REMARK    3  A    between atoms: C_13  and  C_14
REMARK    4  A    between atoms: N_16  and  C_17
REMARK    5  A    between atoms: C_21  and  O_22
REMARK    6  A    between atoms: C_21  and  C_23
REMARK    7  A    between atoms: C_23  and  N_24
REMARK                            x       y       z     vdW  Elec       q    Type
REMARK                         _______ _______ _______ _____ _____    ______ ____
ROOT
ATOM      1  C   UNL     1       3.840   3.193  17.924  0.00  0.00    +0.000 A 
ATOM      2  N   UNL     1       3.577   1.867  17.969  0.00  0.00    +0.000 NA
ATOM      3  N   UNL     1       2.591   1.738  18.878  0.00  0.00    +0.000 N 
ATOM      4  C   UNL     1       2.166   2.939  19.403  0.00  0.00    +0.000 A 
ATOM      5  C   UNL     1       1.170   3.248  20.340  0.00  0.00    +0.000 A 
ATOM      6  C   UNL     1       0.977   4.603  20.660  0.00  0.00    +0.000 A 
ATOM      7  C   UNL     1       1.766   5.594  20.056  0.00  0.00    +0.000 A 
ATOM      8  C   UNL     1       2.750   5.239  19.124  0.00  0.00    +0.000 A 
ATOM      9  C   UNL     1       2.955   3.889  18.796  0.00  0.00    +0.000 A 
ATOM     10  H   UNL     1       2.257   0.831  19.087  0.00  0.00    +0.000 HD
ENDROOT
BRANCH   1  16
ATOM     11  C   UNL     1       7.838   5.265  12.238  0.00  0.00    +0.000 C 
ATOM     12  N   UNL     1       7.212   4.921  13.488  0.00  0.00    +0.000 N 
ATOM     13  C   UNL     1       6.048   4.222  13.658  0.00  0.00    +0.000 A 
ATOM     14  C   UNL     1       5.877   4.178  15.011  0.00  0.00    +0.000 A 
ATOM     15  C   UNL     1       4.810   3.587  15.671  0.00  0.00    +0.000 A 
ATOM     16  C   UNL     1       4.905   3.732  17.077  0.00  0.00    +0.000 A 
ATOM     17  C   UNL     1       6.012   4.408  17.705  0.00  0.00    +0.000 A 
ATOM     18  C   UNL     1       7.085   4.995  17.000  0.00  0.00    +0.000 A 
ATOM     19  C   UNL     1       6.984   4.859  15.608  0.00  0.00    +0.000 A 
ATOM     20  N   UNL     1       7.803   5.307  14.637  0.00  0.00    +0.000 NA
ENDBRANCH   1  16
BRANCH   7  21
ATOM     21  C   UNL     1       1.692   7.043  20.379  0.00  0.00    +0.000 C 
ATOM     22  O   UNL     1       2.460   7.827  19.783  0.00  0.00    +0.000 OA
ATOM     23  N   UNL     1       0.755   7.465  21.277  0.00  0.00    +0.000 N 
ATOM     24  H   UNL     1       0.117   6.790  21.687  0.00  0.00    +0.000 HD
BRANCH  23  25
ATOM     25  C   UNL     1       0.568   8.873  21.617  0.00  0.00    +0.000 C 
ATOM     26  C   UNL     1      -0.451   9.077  22.760  0.00  0.00    +0.000 C 
ATOM     27  C   UNL     1      -0.720  10.534  23.106  0.00  0.00    +0.000 C 
ATOM     28  C   UNL     1      -1.066  11.299  21.839  0.00  0.00    +0.000 C 
ATOM     29  C   UNL     1       0.043  11.207  20.763  0.00  0.00    +0.000 C 
ATOM     30  C   UNL     1       0.237   9.730  20.370  0.00  0.00    +0.000 C 
BRANCH  29  31
ATOM     31  O   UNL     1       1.303  11.684  21.274  0.00  0.00    +0.000 OA
ATOM     32  H   UNL     1       1.995  11.030  21.153  0.00  0.00    +0.000 HD
ENDBRANCH  29  31
BRANCH  29  33
ATOM     33  C   UNL     1      -0.334  12.140  19.595  0.00  0.00    +0.000 C 
BRANCH  33  34
ATOM     34  N   UNL     1       0.733  13.035  19.190  0.00  0.00    +0.000 N 
ATOM     35  C   UNL     1       0.630  14.396  18.995  0.00  0.00    +0.000 A 
ATOM     36  C   UNL     1       1.929  14.791  18.748  0.00  0.00    +0.000 A 
ATOM     37  C   UNL     1       2.432  13.639  18.113  0.00  0.00    +0.000 A 
ATOM     38  N   UNL     1       1.814  12.538  18.548  0.00  0.00    +0.000 NA
ENDBRANCH  33  34
ENDBRANCH  29  33
ENDBRANCH  23  25
ENDBRANCH   7  21
TORSDOF 6
ENDMDL
MODEL 2
REMARK VINA RESULT:      -9.9      1.504      2.176
REMARK  Name = 
REMARK  7 active torsions:
REMARK  status: ('A' for Active; 'I' for Inactive)
REMARK    1  A    between atoms: C_1  and  N_2
REMARK    2  A    between atoms: C_6  and  C_7
REMARK    3  A    between atoms: C_13  and  C_14
REMARK    4  A    between atoms: N_16  and  C_17
REMARK    5  A    between atoms: C_21  and  O_22
REMARK    6  A    between atoms: C_21  and  C_23
REMARK    7  A    between atoms: C_23  and  N_24
REMARK                            x       y       z     vdW  Elec       q    Type
REMARK                         _______ _______ _______ _____ _____    ______ ____
ROOT
ATOM      1  C   UNL     1       4.039   3.418  18.193  0.00  0.00    +0.000 A 
ATOM      2  N   UNL     1       3.877   2.088  18.382  0.00  0.00    +0.000 NA
ATOM      3  N   UNL     1       2.913   1.982  19.317  0.00  0.00    +0.000 N 
ATOM      4  C   UNL     1       2.405   3.197  19.723  0.00  0.00    +0.000 A 
ATOM      5  C   UNL     1       1.399   3.529  20.641  0.00  0.00    +0.000 A 
ATOM      6  C   UNL     1       1.107   4.892  20.822  0.00  0.00    +0.000 A 
ATOM      7  C   UNL     1       1.812   5.869  20.103  0.00  0.00    +0.000 A 
ATOM      8  C   UNL     1       2.810   5.492  19.194  0.00  0.00    +0.000 A 
ATOM      9  C   UNL     1       3.113   4.134  19.005  0.00  0.00    +0.000 A 
ATOM     10  H   UNL     1       2.652   1.080  19.626  0.00  0.00    +0.000 HD
ENDROOT
BRANCH   1  16
ATOM     11  C   UNL     1       7.805   5.169  12.247  0.00  0.00    +0.000 C 
ATOM     12  N   UNL     1       7.221   4.913  13.539  0.00  0.00    +0.000 N 
ATOM     13  C   UNL     1       6.115   4.152  13.802  0.00  0.00    +0.000 A 
ATOM     14  C   UNL     1       5.962   4.238  15.155  0.00  0.00    +0.000 A 
ATOM     15  C   UNL     1       4.951   3.642  15.894  0.00  0.00    +0.000 A 
ATOM     16  C   UNL     1       5.050   3.943  17.275  0.00  0.00    +0.000 A 
ATOM     17  C   UNL     1       6.109   4.762  17.808  0.00  0.00    +0.000 A 
ATOM     18  C   UNL     1       7.125   5.349  17.025  0.00  0.00    +0.000 A 
ATOM     19  C   UNL     1       7.021   5.060  15.657  0.00  0.00    +0.000 A 
ATOM     20  N   UNL     1       7.792   5.463  14.629  0.00  0.00    +0.000 NA
ENDBRANCH   1  16
BRANCH   7  21
ATOM     21  C   UNL     1       1.632   7.334  20.275  0.00  0.00    +0.000 C 
ATOM     22  O   UNL     1       2.215   8.104  19.484  0.00  0.00    +0.000 OA
ATOM     23  N   UNL     1       0.798   7.779  21.260  0.00  0.00    +0.000 N 
ATOM     24  H   UNL     1       0.304   7.106  21.837  0.00  0.00    +0.000 HD
BRANCH  23  25
ATOM     25  C   UNL     1       0.513   9.196  21.470  0.00  0.00    +0.000 C 
ATOM     26  C   UNL     1      -0.354   9.447  22.725  0.00  0.00    +0.000 C 
ATOM     27  C   UNL     1      -0.722  10.906  22.948  0.00  0.00    +0.000 C 
ATOM     28  C   UNL     1      -1.318  11.478  21.672  0.00  0.00    +0.000 C 
ATOM     29  C   UNL     1      -0.366  11.354  20.459  0.00  0.00    +0.000 C 
ATOM     30  C   UNL     1      -0.074   9.863  20.202  0.00  0.00    +0.000 C 
BRANCH  29  31
ATOM     31  O   UNL     1       0.897  11.998  20.722  0.00  0.00    +0.000 OA
ATOM     32  H   UNL     1       1.062  12.706  20.095  0.00  0.00    +0.000 HD
ENDBRANCH  29  31
BRANCH  29  33
ATOM     33  C   UNL     1      -0.995  12.101  19.267  0.00  0.00    +0.000 C 
BRANCH  33  34
ATOM     34  N   UNL     1      -2.063  11.370  18.613  0.00  0.00    +0.000 N 
ATOM     35  C   UNL     1      -1.959  10.632  17.453  0.00  0.00    +0.000 A 
ATOM     36  C   UNL     1      -3.201  10.043  17.327  0.00  0.00    +0.000 A 
ATOM     37  C   UNL     1      -4.015  11.030  17.915  0.00  0.00    +0.000 A 
ATOM     38  N   UNL     1      -3.350  11.711  18.852  0.00  0.00    +0.000 NA
ENDBRANCH  33  34
ENDBRANCH  29  33
ENDBRANCH  23  25
ENDBRANCH   7  21
TORSDOF 6
ENDMDL
MODEL 3
REMARK VINA RESULT:      -9.8      2.295      2.828
REMARK  Name = 
REMARK  7 active torsions:
REMARK  status: ('A' for Active; 'I' for Inactive)
REMARK    1  A    between atoms: C_1  and  N_2
REMARK    2  A    between atoms: C_6  and  C_7
REMARK    3  A    between atoms: C_13  and  C_14
REMARK    4  A    between atoms: N_16  and  C_17
REMARK    5  A    between atoms: C_21  and  O_22
REMARK    6  A    between atoms: C_21  and  C_23
REMARK    7  A    between atoms: C_23  and  N_24
REMARK                            x       y       z     vdW  Elec       q    Type
REMARK                         _______ _______ _______ _____ _____    ______ ____
ROOT
ATOM      1  C   UNL     1       4.465   4.077  18.585  0.00  0.00    +0.000 A 
ATOM      2  N   UNL     1       4.491   2.891  19.236  0.00  0.00    +0.000 NA
ATOM      3  N   UNL     1       3.611   3.028  20.247  0.00  0.00    +0.000 N 
ATOM      4  C   UNL     1       2.975   4.251  20.261  0.00  0.00    +0.000 A 
ATOM      5  C   UNL     1       1.996   4.785  21.109  0.00  0.00    +0.000 A 
ATOM      6  C   UNL     1       1.541   6.087  20.839  0.00  0.00    +0.000 A 
ATOM      7  C   UNL     1       2.064   6.811  19.757  0.00  0.00    +0.000 A 
ATOM      8  C   UNL     1       3.043   6.238  18.934  0.00  0.00    +0.000 A 
ATOM      9  C   UNL     1       3.508   4.939  19.193  0.00  0.00    +0.000 A 
ATOM     10  H   UNL     1       3.490   2.273  20.873  0.00  0.00    +0.000 HD
ENDROOT
BRANCH   1  16
ATOM     11  C   UNL     1       7.274   4.434  11.907  0.00  0.00    +0.000 C 
ATOM     12  N   UNL     1       6.902   4.456  13.298  0.00  0.00    +0.000 N 
ATOM     13  C   UNL     1       5.808   3.860  13.864  0.00  0.00    +0.000 A 
ATOM     14  C   UNL     1       5.894   4.186  15.187  0.00  0.00    +0.000 A 
ATOM     15  C   UNL     1       4.985   3.823  16.169  0.00  0.00    +0.000 A 
ATOM     16  C   UNL     1       5.338   4.339  17.440  0.00  0.00    +0.000 A 
ATOM     17  C   UNL     1       6.527   5.129  17.645  0.00  0.00    +0.000 A 
ATOM     18  C   UNL     1       7.433   5.475  16.620  0.00  0.00    +0.000 A 
ATOM     19  C   UNL     1       7.077   4.973  15.360  0.00  0.00    +0.000 A 
ATOM     20  N   UNL     1       7.687   5.121  14.168  0.00  0.00    +0.000 NA
ENDBRANCH   1  16
BRANCH   7  21
ATOM     21  C   UNL     1       1.707   8.216  19.432  0.00  0.00    +0.000 C 
ATOM     22  O   UNL     1       2.141   8.713  18.372  0.00  0.00    +0.000 OA
ATOM     23  N   UNL     1       0.877   8.892  20.279  0.00  0.00    +0.000 N 
ATOM     24  H   UNL     1       0.506   8.419  21.097  0.00  0.00    +0.000 HD
BRANCH  23  25
ATOM     25  C   UNL     1       0.424  10.256  20.016  0.00  0.00    +0.000 C 
ATOM     26  C   UNL     1       0.543  11.170  21.257  0.00  0.00    +0.000 C 
ATOM     27  C   UNL     1       0.026  12.584  21.042  0.00  0.00    +0.000 C 
ATOM     28  C   UNL     1      -1.377  12.528  20.459  0.00  0.00    +0.000 C 
ATOM     29  C   UNL     1      -1.442  11.735  19.132  0.00  0.00    +0.000 C 
ATOM     30  C   UNL     1      -0.994  10.285  19.393  0.00  0.00    +0.000 C 
BRANCH  29  31
ATOM     31  O   UNL     1      -0.544  12.291  18.151  0.00  0.00    +0.000 OA
ATOM     32  H   UNL     1      -0.850  13.149  17.848  0.00  0.00    +0.000 HD
ENDBRANCH  29  31
BRANCH  29  33
ATOM     33  C   UNL     1      -2.862  11.875  18.551  0.00  0.00    +0.000 C 
BRANCH  33  34
ATOM     34  N   UNL     1      -3.013  11.308  17.225  0.00  0.00    +0.000 N 
ATOM     35  C   UNL     1      -4.181  11.232  16.495  0.00  0.00    +0.000 A 
ATOM     36  C   UNL     1      -3.773  10.734  15.275  0.00  0.00    +0.000 A 
ATOM     37  C   UNL     1      -2.688   9.929  15.674  0.00  0.00    +0.000 A 
ATOM     38  N   UNL     1      -2.106  10.413  16.774  0.00  0.00    +0.000 NA
ENDBRANCH  33  34
ENDBRANCH  29  33
ENDBRANCH  23  25
ENDBRANCH   7  21
TORSDOF 6
ENDMDL
MODEL 4
REMARK VINA RESULT:      -9.1      2.710      3.468
REMARK  Name = 
REMARK  7 active torsions:
REMARK  status: ('A' for Active; 'I' for Inactive)
REMARK    1  A    between atoms: C_1  and  N_2
REMARK    2  A    between atoms: C_6  and  C_7
REMARK    3  A    between atoms: C_13  and  C_14
REMARK    4  A    between atoms: N_16  and  C_17
REMARK    5  A    between atoms: C_21  and  O_22
REMARK    6  A    between atoms: C_21  and  C_23
REMARK    7  A    between atoms: C_23  and  N_24
REMARK                            x       y       z     vdW  Elec       q    Type
REMARK                         _______ _______ _______ _____ _____    ______ ____
ROOT
ATOM      1  C   UNL     1       4.445   4.402  18.658  0.00  0.00    +0.000 A 
ATOM      2  N   UNL     1       4.535   3.254  19.370  0.00  0.00    +0.000 NA
ATOM      3  N   UNL     1       3.651   3.398  20.376  0.00  0.00    +0.000 N 
ATOM      4  C   UNL     1       2.951   4.584  20.330  0.00  0.00    +0.000 A 
ATOM      5  C   UNL     1       1.946   5.108  21.154  0.00  0.00    +0.000 A 
ATOM      6  C   UNL     1       1.422   6.368  20.819  0.00  0.00    +0.000 A 
ATOM      7  C   UNL     1       1.904   7.062  19.699  0.00  0.00    +0.000 A 
ATOM      8  C   UNL     1       2.910   6.499  18.902  0.00  0.00    +0.000 A 
ATOM      9  C   UNL     1       3.444   5.242  19.226  0.00  0.00    +0.000 A 
ATOM     10  H   UNL     1       3.572   2.671  21.042  0.00  0.00    +0.000 HD
ENDROOT
BRANCH   1  16
ATOM     11  C   UNL     1       7.325   4.392  12.002  0.00  0.00    +0.000 C 
ATOM     12  N   UNL     1       6.924   4.517  13.379  0.00  0.00    +0.000 N 
ATOM     13  C   UNL     1       5.906   3.847  14.001  0.00  0.00    +0.000 A 
ATOM     14  C   UNL     1       5.920   4.326  15.279  0.00  0.00    +0.000 A 
ATOM     15  C   UNL     1       5.045   3.956  16.290  0.00  0.00    +0.000 A 
ATOM     16  C   UNL     1       5.300   4.651  17.497  0.00  0.00    +0.000 A 
ATOM     17  C   UNL     1       6.370   5.609  17.620  0.00  0.00    +0.000 A 
ATOM     18  C   UNL     1       7.245   5.958  16.570  0.00  0.00    +0.000 A 
ATOM     19  C   UNL     1       6.985   5.277  15.371  0.00  0.00    +0.000 A 
ATOM     20  N   UNL     1       7.596   5.373  14.175  0.00  0.00    +0.000 NA
ENDBRANCH   1  16
BRANCH   7  21
ATOM     21  C   UNL     1       1.471   8.427  19.303  0.00  0.00    +0.000 C 
ATOM     22  O   UNL     1       2.106   9.018  18.404  0.00  0.00    +0.000 OA
ATOM     23  N   UNL     1       0.367   8.962  19.902  0.00  0.00    +0.000 N 
ATOM     24  H   UNL     1      -0.146   8.413  20.584  0.00  0.00    +0.000 HD
BRANCH  23  25
ATOM     25  C   UNL     1      -0.169  10.272  19.539  0.00  0.00    +0.000 C 
ATOM     26  C   UNL     1      -0.644  11.079  20.768  0.00  0.00    +0.000 C 
ATOM     27  C   UNL     1      -1.263  12.426  20.430  0.00  0.00    +0.000 C 
ATOM     28  C   UNL     1      -2.339  12.238  19.372  0.00  0.00    +0.000 C 
ATOM     29  C   UNL     1      -1.801  11.566  18.086  0.00  0.00    +0.000 C 
ATOM     30  C   UNL     1      -1.256  10.170  18.441  0.00  0.00    +0.000 C 
BRANCH  29  31
ATOM     31  O   UNL     1      -0.710  12.321  17.522  0.00  0.00    +0.000 OA
ATOM     32  H   UNL     1       0.026  12.375  18.135  0.00  0.00    +0.000 HD
ENDBRANCH  29  31
BRANCH  29  33
ATOM     33  C   UNL     1      -2.923  11.569  17.030  0.00  0.00    +0.000 C 
BRANCH  33  34
ATOM     34  N   UNL     1      -4.257  11.453  17.589  0.00  0.00    +0.000 N 
ATOM     35  C   UNL     1      -4.843  10.304  18.076  0.00  0.00    +0.000 A 
ATOM     36  C   UNL     1      -6.041  10.744  18.600  0.00  0.00    +0.000 A 
ATOM     37  C   UNL     1      -6.319  11.822  17.737  0.00  0.00    +0.000 A 
ATOM     38  N   UNL     1      -5.194  12.376  17.276  0.00  0.00    +0.000 NA
ENDBRANCH  33  34
ENDBRANCH  29  33
ENDBRANCH  23  25
ENDBRANCH   7  21
TORSDOF 6
ENDMDL
MODEL 5
REMARK VINA RESULT:      -9.1      2.005      3.310
REMARK  Name = 
REMARK  7 active torsions:
REMARK  status: ('A' for Active; 'I' for Inactive)
REMARK    1  A    between atoms: C_1  and  N_2
REMARK    2  A    between atoms: C_6  and  C_7
REMARK    3  A    between atoms: C_13  and  C_14
REMARK    4  A    between atoms: N_16  and  C_17
REMARK    5  A    between atoms: C_21  and  O_22
REMARK    6  A    between atoms: C_21  and  C_23
REMARK    7  A    between atoms: C_23  and  N_24
REMARK                            x       y       z     vdW  Elec       q    Type
REMARK                         _______ _______ _______ _____ _____    ______ ____
ROOT
ATOM      1  C   UNL     1       4.242   4.767  18.459  0.00  0.00    +0.000 A 
ATOM      2  N   UNL     1       4.195   3.673  19.253  0.00  0.00    +0.000 NA
ATOM      3  N   UNL     1       3.294   3.973  20.208  0.00  0.00    +0.000 N 
ATOM      4  C   UNL     1       2.714   5.212  20.048  0.00  0.00    +0.000 A 
ATOM      5  C   UNL     1       1.735   5.888  20.790  0.00  0.00    +0.000 A 
ATOM      6  C   UNL     1       1.347   7.164  20.345  0.00  0.00    +0.000 A 
ATOM      7  C   UNL     1       1.934   7.724  19.200  0.00  0.00    +0.000 A 
ATOM      8  C   UNL     1       2.909   7.012  18.488  0.00  0.00    +0.000 A 
ATOM      9  C   UNL     1       3.307   5.738  18.923  0.00  0.00    +0.000 A 
ATOM     10  H   UNL     1       3.121   3.308  20.919  0.00  0.00    +0.000 HD
ENDROOT
BRANCH   1  16
ATOM     11  C   UNL     1       7.235   4.205  11.877  0.00  0.00    +0.000 C 
ATOM     12  N   UNL     1       6.831   4.405  13.244  0.00  0.00    +0.000 N 
ATOM     13  C   UNL     1       5.688   3.942  13.837  0.00  0.00    +0.000 A 
ATOM     14  C   UNL     1       5.760   4.410  15.117  0.00  0.00    +0.000 A 
ATOM     15  C   UNL     1       4.806   4.214  16.105  0.00  0.00    +0.000 A 
ATOM     16  C   UNL     1       5.158   4.848  17.321  0.00  0.00    +0.000 A 
ATOM     17  C   UNL     1       6.387   5.585  17.474  0.00  0.00    +0.000 A 
ATOM     18  C   UNL     1       7.338   5.761  16.447  0.00  0.00    +0.000 A 
ATOM     19  C   UNL     1       6.984   5.141  15.240  0.00  0.00    +0.000 A 
ATOM     20  N   UNL     1       7.633   5.118  14.060  0.00  0.00    +0.000 NA
ENDBRANCH   1  16
BRANCH   7  21
ATOM     21  C   UNL     1       1.649   9.091  18.691  0.00  0.00    +0.000 C 
ATOM     22  O   UNL     1       1.921   9.353  17.500  0.00  0.00    +0.000 OA
ATOM     23  N   UNL     1       1.057   9.991  19.529  0.00  0.00    +0.000 N 
ATOM     24  H   UNL     1       0.805   9.705  20.470  0.00  0.00    +0.000 HD
BRANCH  23  25
ATOM     25  C   UNL     1       0.687  11.338  19.104  0.00  0.00    +0.000 C 
ATOM     26  C   UNL     1       1.887  12.312  19.106  0.00  0.00    +0.000 C 
ATOM     27  C   UNL     1       1.533  13.741  18.725  0.00  0.00    +0.000 C 
ATOM     28  C   UNL     1       0.363  14.215  19.571  0.00  0.00    +0.000 C 
ATOM     29  C   UNL     1      -0.883  13.308  19.432  0.00  0.00    +0.000 C 
ATOM     30  C   UNL     1      -0.521  11.886  19.903  0.00  0.00    +0.000 C 
BRANCH  29  31
ATOM     31  O   UNL     1      -1.303  13.210  18.057  0.00  0.00    +0.000 OA
ATOM     32  H   UNL     1      -0.830  12.511  17.599  0.00  0.00    +0.000 HD
ENDBRANCH  29  31
BRANCH  29  33
ATOM     33  C   UNL     1      -2.049  13.962  20.197  0.00  0.00    +0.000 C 
BRANCH  33  34
ATOM     34  N   UNL     1      -2.191  13.495  21.563  0.00  0.00    +0.000 N 
ATOM     35  C   UNL     1      -3.166  12.644  22.040  0.00  0.00    +0.000 A 
ATOM     36  C   UNL     1      -2.789  12.414  23.348  0.00  0.00    +0.000 A 
ATOM     37  C   UNL     1      -2.175  13.643  23.659  0.00  0.00    +0.000 A 
ATOM     38  N   UNL     1      -1.636  14.203  22.572  0.00  0.00    +0.000 NA
ENDBRANCH  33  34
ENDBRANCH  29  33
ENDBRANCH  23  25
ENDBRANCH   7  21
TORSDOF 6
ENDMDL
MODEL 6
REMARK VINA RESULT:      -9.0      2.933      9.714
REMARK  Name = 
REMARK  7 active torsions:
REMARK  status: ('A' for Active; 'I' for Inactive)
REMARK    1  A    between atoms: C_1  and  N_2
REMARK    2  A    between atoms: C_6  and  C_7
REMARK    3  A    between atoms: C_13  and  C_14
REMARK    4  A    between atoms: N_16  and  C_17
REMARK    5  A    between atoms: C_21  and  O_22
REMARK    6  A    between atoms: C_21  and  C_23
REMARK    7  A    between atoms: C_23  and  N_24
REMARK                            x       y       z     vdW  Elec       q    Type
REMARK                         _______ _______ _______ _____ _____    ______ ____
ROOT
ATOM      1  C   UNL     1       1.171  13.805  18.825  0.00  0.00    +0.000 A 
ATOM      2  N   UNL     1       0.060  14.546  18.608  0.00  0.00    +0.000 NA
ATOM      3  N   UNL     1      -0.920  13.648  18.388  0.00  0.00    +0.000 N 
ATOM      4  C   UNL     1      -0.502  12.339  18.493  0.00  0.00    +0.000 A 
ATOM      5  C   UNL     1      -1.190  11.125  18.363  0.00  0.00    +0.000 A 
ATOM      6  C   UNL     1      -0.458   9.940  18.543  0.00  0.00    +0.000 A 
ATOM      7  C   UNL     1       0.914   9.991  18.838  0.00  0.00    +0.000 A 
ATOM      8  C   UNL     1       1.561  11.228  18.960  0.00  0.00    +0.000 A 
ATOM      9  C   UNL     1       0.842  12.420  18.780  0.00  0.00    +0.000 A 
ATOM     10  H   UNL     1      -1.828  13.982  18.181  0.00  0.00    +0.000 HD
ENDROOT
BRANCH   1  16
ATOM     11  C   UNL     1       8.056  15.991  18.171  0.00  0.00    +0.000 C 
ATOM     12  N   UNL     1       6.692  15.660  18.493  0.00  0.00    +0.000 N 
ATOM     13  C   UNL     1       5.872  14.806  17.808  0.00  0.00    +0.000 A 
ATOM     14  C   UNL     1       4.693  14.848  18.494  0.00  0.00    +0.000 A 
ATOM     15  C   UNL     1       3.539  14.156  18.161  0.00  0.00    +0.000 A 
ATOM     16  C   UNL     1       2.474  14.431  19.054  0.00  0.00    +0.000 A 
ATOM     17  C   UNL     1       2.626  15.320  20.178  0.00  0.00    +0.000 A 
ATOM     18  C   UNL     1       3.820  16.005  20.490  0.00  0.00    +0.000 A 
ATOM     19  C   UNL     1       4.870  15.740  19.599  0.00  0.00    +0.000 A 
ATOM     20  N   UNL     1       6.126  16.228  19.577  0.00  0.00    +0.000 NA
ENDBRANCH   1  16
BRANCH   7  21
ATOM     21  C   UNL     1       1.791   8.799  18.973  0.00  0.00    +0.000 C 
ATOM     22  O   UNL     1       1.780   8.169  20.051  0.00  0.00    +0.000 OA
ATOM     23  N   UNL     1       2.537   8.412  17.898  0.00  0.00    +0.000 N 
ATOM     24  H   UNL     1       2.462   8.927  17.027  0.00  0.00    +0.000 HD
BRANCH  23  25
ATOM     25  C   UNL     1       3.385   7.222  17.915  0.00  0.00    +0.000 C 
ATOM     26  C   UNL     1       4.349   7.164  16.709  0.00  0.00    +0.000 C 
ATOM     27  C   UNL     1       5.210   5.911  16.657  0.00  0.00    +0.000 C 
ATOM     28  C   UNL     1       4.325   4.682  16.789  0.00  0.00    +0.000 C 
ATOM     29  C   UNL     1       3.480   4.689  18.086  0.00  0.00    +0.000 C 
ATOM     30  C   UNL     1       2.557   5.923  18.075  0.00  0.00    +0.000 C 
BRANCH  29  31
ATOM     31  O   UNL     1       4.321   4.794  19.252  0.00  0.00    +0.000 OA
ATOM     32  H   UNL     1       5.242   4.906  19.007  0.00  0.00    +0.000 HD
ENDBRANCH  29  31
BRANCH  29  33
ATOM     33  C   UNL     1       2.748   3.338  18.197  0.00  0.00    +0.000 C 
BRANCH  33  34
ATOM     34  N   UNL     1       2.335   3.003  19.546  0.00  0.00    +0.000 N 
ATOM     35  C   UNL     1       1.238   3.505  20.215  0.00  0.00    +0.000 A 
ATOM     36  C   UNL     1       1.216   2.787  21.394  0.00  0.00    +0.000 A 
ATOM     37  C   UNL     1       2.594   2.561  21.584  0.00  0.00    +0.000 A 
ATOM     38  N   UNL     1       3.240   2.500  20.416  0.00  0.00    +0.000 NA
ENDBRANCH  33  34
ENDBRANCH  29  33
ENDBRANCH  23  25
ENDBRANCH   7  21
TORSDOF 6
ENDMDL
MODEL 7
REMARK VINA RESULT:      -9.0      2.637      9.639
REMARK  Name = 
REMARK  7 active torsions:
REMARK  status: ('A' for Active; 'I' for Inactive)
REMARK    1  A    between atoms: C_1  and  N_2
REMARK    2  A    between atoms: C_6  and  C_7
REMARK    3  A    between atoms: C_13  and  C_14
REMARK    4  A    between atoms: N_16  and  C_17
REMARK    5  A    between atoms: C_21  and  O_22
REMARK    6  A    between atoms: C_21  and  C_23
REMARK    7  A    between atoms: C_23  and  N_24
REMARK                            x       y       z     vdW  Elec       q    Type
REMARK                         _______ _______ _______ _____ _____    ______ ____
ROOT
ATOM      1  C   UNL     1       0.472  12.393  21.102  0.00  0.00    +0.000 A 
ATOM      2  N   UNL     1      -0.228  12.624  22.237  0.00  0.00    +0.000 NA
ATOM      3  N   UNL     1      -0.537  11.401  22.711  0.00  0.00    +0.000 N 
ATOM      4  C   UNL     1      -0.029  10.371  21.950  0.00  0.00    +0.000 A 
ATOM      5  C   UNL     1      -0.098   8.979  22.098  0.00  0.00    +0.000 A 
ATOM      6  C   UNL     1       0.550   8.190  21.132  0.00  0.00    +0.000 A 
ATOM      7  C   UNL     1       1.230   8.793  20.063  0.00  0.00    +0.000 A 
ATOM      8  C   UNL     1       1.274  10.189  19.955  0.00  0.00    +0.000 A 
ATOM      9  C   UNL     1       0.630  10.990  20.911  0.00  0.00    +0.000 A 
ATOM     10  H   UNL     1      -1.078  11.338  23.536  0.00  0.00    +0.000 HD
ENDROOT
BRANCH   1  16
ATOM     11  C   UNL     1       0.889  18.476  17.174  0.00  0.00    +0.000 C 
ATOM     12  N   UNL     1       1.012  17.234  17.892  0.00  0.00    +0.000 N 
ATOM     13  C   UNL     1       0.009  16.547  18.521  0.00  0.00    +0.000 A 
ATOM     14  C   UNL     1       0.633  15.460  19.060  0.00  0.00    +0.000 A 
ATOM     15  C   UNL     1       0.024  14.472  19.820  0.00  0.00    +0.000 A 
ATOM     16  C   UNL     1       0.946  13.491  20.259  0.00  0.00    +0.000 A 
ATOM     17  C   UNL     1       2.345  13.543  19.914  0.00  0.00    +0.000 A 
ATOM     18  C   UNL     1       2.930  14.563  19.134  0.00  0.00    +0.000 A 
ATOM     19  C   UNL     1       2.018  15.540  18.709  0.00  0.00    +0.000 A 
ATOM     20  N   UNL     1       2.225  16.652  17.977  0.00  0.00    +0.000 NA
ENDBRANCH   1  16
BRANCH   7  21
ATOM     21  C   UNL     1       1.881   8.050  18.953  0.00  0.00    +0.000 C 
ATOM     22  O   UNL     1       2.195   8.677  17.919  0.00  0.00    +0.000 OA
ATOM     23  N   UNL     1       2.155   6.724  19.125  0.00  0.00    +0.000 N 
ATOM     24  H   UNL     1       1.931   6.280  20.010  0.00  0.00    +0.000 HD
BRANCH  23  25
ATOM     25  C   UNL     1       2.843   5.924  18.115  0.00  0.00    +0.000 C 
ATOM     26  C   UNL     1       2.223   4.518  17.949  0.00  0.00    +0.000 C 
ATOM     27  C   UNL     1       2.946   3.631  16.947  0.00  0.00    +0.000 C 
ATOM     28  C   UNL     1       4.431   3.607  17.272  0.00  0.00    +0.000 C 
ATOM     29  C   UNL     1       5.065   5.018  17.280  0.00  0.00    +0.000 C 
ATOM     30  C   UNL     1       4.372   5.872  18.360  0.00  0.00    +0.000 C 
BRANCH  29  31
ATOM     31  O   UNL     1       4.868   5.684  16.017  0.00  0.00    +0.000 OA
ATOM     32  H   UNL     1       5.705   5.946  15.629  0.00  0.00    +0.000 HD
ENDBRANCH  29  31
BRANCH  29  33
ATOM     33  C   UNL     1       6.588   4.868  17.459  0.00  0.00    +0.000 C 
BRANCH  33  34
ATOM     34  N   UNL     1       7.279   6.120  17.696  0.00  0.00    +0.000 N 
ATOM     35  C   UNL     1       7.810   6.548  18.895  0.00  0.00    +0.000 A 
ATOM     36  C   UNL     1       8.459   7.721  18.566  0.00  0.00    +0.000 A 
ATOM     37  C   UNL     1       7.642   8.182  17.515  0.00  0.00    +0.000 A 
ATOM     38  N   UNL     1       7.075   7.164  16.861  0.00  0.00    +0.000 NA
ENDBRANCH  33  34
ENDBRANCH  29  33
ENDBRANCH  23  25
ENDBRANCH   7  21
TORSDOF 6
ENDMDL
MODEL 8
REMARK VINA RESULT:      -8.9      1.601      2.037
REMARK  Name = 
REMARK  7 active torsions:
REMARK  status: ('A' for Active; 'I' for Inactive)
REMARK    1  A    between atoms: C_1  and  N_2
REMARK    2  A    between atoms: C_6  and  C_7
REMARK    3  A    between atoms: C_13  and  C_14
REMARK    4  A    between atoms: N_16  and  C_17
REMARK    5  A    between atoms: C_21  and  O_22
REMARK    6  A    between atoms: C_21  and  C_23
REMARK    7  A    between atoms: C_23  and  N_24
REMARK                            x       y       z     vdW  Elec       q    Type
REMARK                         _______ _______ _______ _____ _____    ______ ____
ROOT
ATOM      1  C   UNL     1       4.385   3.892  18.610  0.00  0.00    +0.000 A 
ATOM      2  N   UNL     1       4.403   2.637  19.117  0.00  0.00    +0.000 NA
ATOM      3  N   UNL     1       3.517   2.658  20.132  0.00  0.00    +0.000 N 
ATOM      4  C   UNL     1       2.884   3.872  20.286  0.00  0.00    +0.000 A 
ATOM      5  C   UNL     1       1.900   4.305  21.185  0.00  0.00    +0.000 A 
ATOM      6  C   UNL     1       1.451   5.632  21.067  0.00  0.00    +0.000 A 
ATOM      7  C   UNL     1       1.983   6.477  20.082  0.00  0.00    +0.000 A 
ATOM      8  C   UNL     1       2.966   6.001  19.203  0.00  0.00    +0.000 A 
ATOM      9  C   UNL     1       3.426   4.679  19.310  0.00  0.00    +0.000 A 
ATOM     10  H   UNL     1       3.390   1.834  20.664  0.00  0.00    +0.000 HD
ENDROOT
BRANCH   1  16
ATOM     11  C   UNL     1       7.433   4.699  12.079  0.00  0.00    +0.000 C 
ATOM     12  N   UNL     1       6.995   4.657  13.450  0.00  0.00    +0.000 N 
ATOM     13  C   UNL     1       5.970   3.908  13.961  0.00  0.00    +0.000 A 
ATOM     14  C   UNL     1       5.946   4.231  15.286  0.00  0.00    +0.000 A 
ATOM     15  C   UNL     1       5.051   3.736  16.223  0.00  0.00    +0.000 A 
ATOM     16  C   UNL     1       5.267   4.285  17.510  0.00  0.00    +0.000 A 
ATOM     17  C   UNL     1       6.320   5.232  17.774  0.00  0.00    +0.000 A 
ATOM     18  C   UNL     1       7.217   5.711  16.796  0.00  0.00    +0.000 A 
ATOM     19  C   UNL     1       6.996   5.175  15.519  0.00  0.00    +0.000 A 
ATOM     20  N   UNL     1       7.636   5.419  14.359  0.00  0.00    +0.000 NA
ENDBRANCH   1  16
BRANCH   7  21
ATOM     21  C   UNL     1       1.631   7.911  19.922  0.00  0.00    +0.000 C 
ATOM     22  O   UNL     1       2.049   8.520  18.915  0.00  0.00    +0.000 OA
ATOM     23  N   UNL     1       0.825   8.494  20.857  0.00  0.00    +0.000 N 
ATOM     24  H   UNL     1       0.466   7.935  21.624  0.00  0.00    +0.000 HD
BRANCH  23  25
ATOM     25  C   UNL     1       0.377   9.881  20.756  0.00  0.00    +0.000 C 
ATOM     26  C   UNL     1      -0.627  10.098  19.602  0.00  0.00    +0.000 C 
ATOM     27  C   UNL     1      -1.074  11.541  19.426  0.00  0.00    +0.000 C 
ATOM     28  C   UNL     1       0.148  12.444  19.348  0.00  0.00    +0.000 C 
ATOM     29  C   UNL     1       1.061  12.322  20.590  0.00  0.00    +0.000 C 
ATOM     30  C   UNL     1       1.567  10.871  20.700  0.00  0.00    +0.000 C 
BRANCH  29  31
ATOM     31  O   UNL     1       0.334  12.614  21.800  0.00  0.00    +0.000 OA
ATOM     32  H   UNL     1      -0.613  12.547  21.660  0.00  0.00    +0.000 HD
ENDBRANCH  29  31
BRANCH  29  33
ATOM     33  C   UNL     1       2.172  13.384  20.484  0.00  0.00    +0.000 C 
BRANCH  33  34
ATOM     34  N   UNL     1       1.823  14.661  21.076  0.00  0.00    +0.000 N 
ATOM     35  C   UNL     1       1.539  15.828  20.398  0.00  0.00    +0.000 A 
ATOM     36  C   UNL     1       1.151  16.700  21.394  0.00  0.00    +0.000 A 
ATOM     37  C   UNL     1       1.935  16.232  22.467  0.00  0.00    +0.000 A 
ATOM     38  N   UNL     1       2.174  14.922  22.355  0.00  0.00    +0.000 NA
ENDBRANCH  33  34
ENDBRANCH  29  33
ENDBRANCH  23  25
ENDBRANCH   7  21
TORSDOF 6
ENDMDL
MODEL 9
REMARK VINA RESULT:      -8.8      2.090      3.143
REMARK  Name = 
REMARK  7 active torsions:
REMARK  status: ('A' for Active; 'I' for Inactive)
REMARK    1  A    between atoms: C_1  and  N_2
REMARK    2  A    between atoms: C_6  and  C_7
REMARK    3  A    between atoms: C_13  and  C_14
REMARK    4  A    between atoms: N_16  and  C_17
REMARK    5  A    between atoms: C_21  and  O_22
REMARK    6  A    between atoms: C_21  and  C_23
REMARK    7  A    between atoms: C_23  and  N_24
REMARK                            x       y       z     vdW  Elec       q    Type
REMARK                         _______ _______ _______ _____ _____    ______ ____
ROOT
ATOM      1  C   UNL     1       4.469   4.124  18.596  0.00  0.00    +0.000 A 
ATOM      2  N   UNL     1       4.525   2.921  19.213  0.00  0.00    +0.000 NA
ATOM      3  N   UNL     1       3.642   3.008  20.227  0.00  0.00    +0.000 N 
ATOM      4  C   UNL     1       2.976   4.214  20.275  0.00  0.00    +0.000 A 
ATOM      5  C   UNL     1       1.983   4.698  21.138  0.00  0.00    +0.000 A 
ATOM      6  C   UNL     1       1.495   5.995  20.904  0.00  0.00    +0.000 A 
ATOM      7  C   UNL     1       2.000   6.763  19.843  0.00  0.00    +0.000 A 
ATOM      8  C   UNL     1       2.992   6.237  19.004  0.00  0.00    +0.000 A 
ATOM      9  C   UNL     1       3.490   4.944  19.227  0.00  0.00    +0.000 A 
ATOM     10  H   UNL     1       3.541   2.233  20.832  0.00  0.00    +0.000 HD
ENDROOT
BRANCH   1  16
ATOM     11  C   UNL     1       7.376   4.552  11.964  0.00  0.00    +0.000 C 
ATOM     12  N   UNL     1       6.972   4.582  13.346  0.00  0.00    +0.000 N 
ATOM     13  C   UNL     1       5.936   3.890  13.913  0.00  0.00    +0.000 A 
ATOM     14  C   UNL     1       5.956   4.270  15.224  0.00  0.00    +0.000 A 
ATOM     15  C   UNL     1       5.069   3.845  16.202  0.00  0.00    +0.000 A 
ATOM     16  C   UNL     1       5.334   4.441  17.459  0.00  0.00    +0.000 A 
ATOM     17  C   UNL     1       6.424   5.363  17.656  0.00  0.00    +0.000 A 
ATOM     18  C   UNL     1       7.310   5.770  16.637  0.00  0.00    +0.000 A 
ATOM     19  C   UNL     1       7.041   5.188  15.390  0.00  0.00    +0.000 A 
ATOM     20  N   UNL     1       7.659   5.360  14.206  0.00  0.00    +0.000 NA
ENDBRANCH   1  16
BRANCH   7  21
ATOM     21  C   UNL     1       1.606   8.167  19.557  0.00  0.00    +0.000 C 
ATOM     22  O   UNL     1       1.882   8.648  18.439  0.00  0.00    +0.000 OA
ATOM     23  N   UNL     1       0.914   8.858  20.509  0.00  0.00    +0.000 N 
ATOM     24  H   UNL     1       0.665   8.397  21.378  0.00  0.00    +0.000 HD
BRANCH  23  25
ATOM     25  C   UNL     1       0.435  10.222  20.299  0.00  0.00    +0.000 C 
ATOM     26  C   UNL     1       1.383  11.053  19.406  0.00  0.00    +0.000 C 
ATOM     27  C   UNL     1       0.951  12.498  19.209  0.00  0.00    +0.000 C 
ATOM     28  C   UNL     1       0.677  13.133  20.563  0.00  0.00    +0.000 C 
ATOM     29  C   UNL     1      -0.392  12.368  21.378  0.00  0.00    +0.000 C 
ATOM     30  C   UNL     1       0.107  10.933  21.635  0.00  0.00    +0.000 C 
BRANCH  29  31
ATOM     31  O   UNL     1      -1.629  12.266  20.645  0.00  0.00    +0.000 OA
ATOM     32  H   UNL     1      -2.339  11.947  21.207  0.00  0.00    +0.000 HD
ENDBRANCH  29  31
BRANCH  29  33
ATOM     33  C   UNL     1      -0.706  13.178  22.651  0.00  0.00    +0.000 C 
BRANCH  33  34
ATOM     34  N   UNL     1      -2.108  13.169  23.023  0.00  0.00    +0.000 N 
ATOM     35  C   UNL     1      -2.855  14.256  23.426  0.00  0.00    +0.000 A 
ATOM     36  C   UNL     1      -4.134  13.751  23.537  0.00  0.00    +0.000 A 
ATOM     37  C   UNL     1      -3.856  12.424  23.918  0.00  0.00    +0.000 A 
ATOM     38  N   UNL     1      -2.685  12.014  23.423  0.00  0.00    +0.000 NA
ENDBRANCH  33  34
ENDBRANCH  29  33
ENDBRANCH  23  25
ENDBRANCH   7  21
TORSDOF 6
ENDMDL
