MODEL 1
REMARK VINA RESULT:      -6.7      0.000      0.000
REMARK  Name = 
REMARK  6 active torsions:
REMARK  status: ('A' for Active; 'I' for Inactive)
REMARK    1  A    between atoms: C_1  and  O_2
REMARK    2  A    between atoms: O_2  and  C_3
REMARK    3  A    between atoms: C_5  and  S_6
REMARK    4  A    between atoms: S_6  and  C_7
REMARK    5  A    between atoms: C_10  and  C_11
REMARK    6  A    between atoms: N_13  and  C_14
REMARK                            x       y       z     vdW  Elec       q    Type
REMARK                         _______ _______ _______ _____ _____    ______ ____
ROOT
ATOM      1  C   UNL     1       5.169   4.364  17.983  0.00  0.00    +0.000 C 
ATOM      2  O   UNL     1       5.888   4.208  18.973  0.00  0.00    +0.000 OA
ATOM      3  N   UNL     1       3.787   4.343  18.041  0.00  0.00    +0.000 N 
ATOM      4  H   UNL     1       3.343   4.058  17.169  0.00  0.00    +0.000 HD
ENDROOT
BRANCH   3   5
ATOM      5  C   UNL     1       3.075   4.061  19.238  0.00  0.00    +0.000 A 
ATOM      6  C   UNL     1       2.584   5.058  20.098  0.00  0.00    +0.000 A 
ATOM      7 CL   UNL     1       2.586   6.740  19.706  0.00  0.00    +0.000 Cl
ATOM      8  C   UNL     1       1.918   4.663  21.254  0.00  0.00    +0.000 A 
ATOM      9  N   UNL     1       1.703   3.373  21.614  0.00  0.00    +0.000 NA
ATOM     10  C   UNL     1       2.159   2.434  20.758  0.00  0.00    +0.000 A 
ATOM     11  C   UNL     1       2.822   2.721  19.568  0.00  0.00    +0.000 A 
ATOM     12 CL   UNL     1       3.355   1.421  18.565  0.00  0.00    +0.000 Cl
ENDBRANCH   3   5
BRANCH   1  18
ATOM     13  C   UNL     1       7.006   5.165  16.349  0.00  0.00    +0.000 A 
ATOM     14  C   UNL     1       7.469   5.227  15.023  0.00  0.00    +0.000 A 
ATOM     15  C   UNL     1       6.780   4.610  13.970  0.00  0.00    +0.000 A 
ATOM     16  C   UNL     1       5.620   3.899  14.257  0.00  0.00    +0.000 A 
ATOM     17  C   UNL     1       5.138   3.839  15.568  0.00  0.00    +0.000 A 
ATOM     18  C   UNL     1       5.808   4.479  16.628  0.00  0.00    +0.000 A 
BRANCH  13  20
ATOM     19  C   UNL     1       7.435   7.206  17.495  0.00  0.00    +0.000 C 
ATOM     20  O   UNL     1       7.659   5.800  17.380  0.00  0.00    +0.000 OA
ENDBRANCH  13  20
BRANCH  15  21
ATOM     21  S   UNL     1       7.480   4.760  12.332  0.00  0.00    +0.000 S 
ATOM     22  C   UNL     1       6.991   3.193  11.564  0.00  0.00    +0.000 C 
ENDBRANCH  15  21
ENDBRANCH   1  18
TORSDOF 4
ENDMDL
MODEL 2
REMARK VINA RESULT:      -6.6      0.294      2.003
REMARK  Name = 
REMARK  6 active torsions:
REMARK  status: ('A' for Active; 'I' for Inactive)
REMARK    1  A    between atoms: C_1  and  O_2
REMARK    2  A    between atoms: O_2  and  C_3
REMARK    3  A    between atoms: C_5  and  S_6
REMARK    4  A    between atoms: S_6  and  C_7
REMARK    5  A    between atoms: C_10  and  C_11
REMARK    6  A    between atoms: N_13  and  C_14
REMARK                            x       y       z     vdW  Elec       q    Type
REMARK                         _______ _______ _______ _____ _____    ______ ____
ROOT
ATOM      1  C   UNL     1       5.083   4.279  18.004  0.00  0.00    +0.000 C 
ATOM      2  O   UNL     1       5.739   4.002  19.011  0.00  0.00    +0.000 OA
ATOM      3  N   UNL     1       3.700   4.316  17.988  0.00  0.00    +0.000 N 
ATOM      4  H   UNL     1       3.295   4.131  17.072  0.00  0.00    +0.000 HD
ENDROOT
BRANCH   3   5
ATOM      5  C   UNL     1       2.912   3.960  19.116  0.00  0.00    +0.000 A 
ATOM      6  C   UNL     1       2.636   2.631  19.478  0.00  0.00    +0.000 A 
ATOM      7 CL   UNL     1       3.393   1.265  18.738  0.00  0.00    +0.000 Cl
ATOM      8  C   UNL     1       1.835   2.403  20.593  0.00  0.00    +0.000 A 
ATOM      9  N   UNL     1       1.299   3.380  21.365  0.00  0.00    +0.000 NA
ATOM     10  C   UNL     1       1.600   4.648  21.014  0.00  0.00    +0.000 A 
ATOM     11  C   UNL     1       2.405   4.985  19.929  0.00  0.00    +0.000 A 
ATOM     12 CL   UNL     1       2.710   6.650  19.590  0.00  0.00    +0.000 Cl
ENDBRANCH   3   5
BRANCH   1  18
ATOM     13  C   UNL     1       7.029   5.158  16.545  0.00  0.00    +0.000 A 
ATOM     14  C   UNL     1       7.568   5.315  15.256  0.00  0.00    +0.000 A 
ATOM     15  C   UNL     1       6.925   4.806  14.119  0.00  0.00    +0.000 A 
ATOM     16  C   UNL     1       5.733   4.107  14.282  0.00  0.00    +0.000 A 
ATOM     17  C   UNL     1       5.177   3.954  15.556  0.00  0.00    +0.000 A 
ATOM     18  C   UNL     1       5.801   4.486  16.700  0.00  0.00    +0.000 A 
BRANCH  13  20
ATOM     19  C   UNL     1       7.606   7.110  17.777  0.00  0.00    +0.000 C 
ATOM     20  O   UNL     1       7.637   5.687  17.659  0.00  0.00    +0.000 OA
ENDBRANCH  13  20
BRANCH  15  21
ATOM     21  S   UNL     1       7.720   5.069  12.540  0.00  0.00    +0.000 S 
ATOM     22  C   UNL     1       7.057   3.705  11.548  0.00  0.00    +0.000 C 
ENDBRANCH  15  21
ENDBRANCH   1  18
TORSDOF 4
ENDMDL
MODEL 3
REMARK VINA RESULT:      -6.5      4.984      6.956
REMARK  Name = 
REMARK  6 active torsions:
REMARK  status: ('A' for Active; 'I' for Inactive)
REMARK    1  A    between atoms: C_1  and  O_2
REMARK    2  A    between atoms: O_2  and  C_3
REMARK    3  A    between atoms: C_5  and  S_6
REMARK    4  A    between atoms: S_6  and  C_7
REMARK    5  A    between atoms: C_10  and  C_11
REMARK    6  A    between atoms: N_13  and  C_14
REMARK                            x       y       z     vdW  Elec       q    Type
REMARK                         _______ _______ _______ _____ _____    ______ ____
ROOT
ATOM      1  C   UNL     1       2.412   6.941  18.735  0.00  0.00    +0.000 C 
ATOM      2  O   UNL     1       2.117   6.349  17.695  0.00  0.00    +0.000 OA
ATOM      3  N   UNL     1       3.056   6.331  19.798  0.00  0.00    +0.000 N 
ATOM      4  H   UNL     1       2.862   6.764  20.699  0.00  0.00    +0.000 HD
ENDROOT
BRANCH   3   5
ATOM      5  C   UNL     1       3.363   4.943  19.812  0.00  0.00    +0.000 A 
ATOM      6  C   UNL     1       2.459   3.956  20.240  0.00  0.00    +0.000 A 
ATOM      7 CL   UNL     1       0.797   4.274  20.591  0.00  0.00    +0.000 Cl
ATOM      8  C   UNL     1       2.876   2.629  20.228  0.00  0.00    +0.000 A 
ATOM      9  N   UNL     1       4.103   2.214  19.827  0.00  0.00    +0.000 NA
ATOM     10  C   UNL     1       4.944   3.177  19.395  0.00  0.00    +0.000 A 
ATOM     11  C   UNL     1       4.621   4.530  19.350  0.00  0.00    +0.000 A 
ATOM     12 CL   UNL     1       5.794   5.659  18.774  0.00  0.00    +0.000 Cl
ENDBRANCH   3   5
BRANCH   1  18
ATOM     13  C   UNL     1       1.263   8.864  20.027  0.00  0.00    +0.000 A 
ATOM     14  C   UNL     1       0.874  10.214  20.045  0.00  0.00    +0.000 A 
ATOM     15  C   UNL     1       1.182  11.086  18.992  0.00  0.00    +0.000 A 
ATOM     16  C   UNL     1       1.914  10.599  17.914  0.00  0.00    +0.000 A 
ATOM     17  C   UNL     1       2.297   9.255  17.874  0.00  0.00    +0.000 A 
ATOM     18  C   UNL     1       1.968   8.365  18.915  0.00  0.00    +0.000 A 
BRANCH  13  20
ATOM     19  C   UNL     1      -0.250   8.312  21.779  0.00  0.00    +0.000 C 
ATOM     20  O   UNL     1       0.931   7.996  21.042  0.00  0.00    +0.000 OA
ENDBRANCH  13  20
BRANCH  15  21
ATOM     21  S   UNL     1       0.633  12.781  19.141  0.00  0.00    +0.000 S 
ATOM     22  C   UNL     1      -1.028  12.709  18.421  0.00  0.00    +0.000 C 
ENDBRANCH  15  21
ENDBRANCH   1  18
TORSDOF 4
ENDMDL
MODEL 4
REMARK VINA RESULT:      -6.4      4.997      6.915
REMARK  Name = 
REMARK  6 active torsions:
REMARK  status: ('A' for Active; 'I' for Inactive)
REMARK    1  A    between atoms: C_1  and  O_2
REMARK    2  A    between atoms: O_2  and  C_3
REMARK    3  A    between atoms: C_5  and  S_6
REMARK    4  A    between atoms: S_6  and  C_7
REMARK    5  A    between atoms: C_10  and  C_11
REMARK    6  A    between atoms: N_13  and  C_14
REMARK                            x       y       z     vdW  Elec       q    Type
REMARK                         _______ _______ _______ _____ _____    ______ ____
ROOT
ATOM      1  C   UNL     1       2.451   6.986  18.710  0.00  0.00    +0.000 C 
ATOM      2  O   UNL     1       2.252   6.439  17.623  0.00  0.00    +0.000 OA
ATOM      3  N   UNL     1       3.019   6.336  19.792  0.00  0.00    +0.000 N 
ATOM      4  H   UNL     1       2.744   6.723  20.694  0.00  0.00    +0.000 HD
ENDROOT
BRANCH   3   5
ATOM      5  C   UNL     1       3.351   4.955  19.766  0.00  0.00    +0.000 A 
ATOM      6  C   UNL     1       4.626   4.473  19.425  0.00  0.00    +0.000 A 
ATOM      7 CL   UNL     1       6.004   5.493  19.209  0.00  0.00    +0.000 Cl
ATOM      8  C   UNL     1       4.831   3.097  19.415  0.00  0.00    +0.000 A 
ATOM      9  N   UNL     1       3.881   2.177  19.717  0.00  0.00    +0.000 NA
ATOM     10  C   UNL     1       2.673   2.665  20.069  0.00  0.00    +0.000 A 
ATOM     11  C   UNL     1       2.368   4.022  20.127  0.00  0.00    +0.000 A 
ATOM     12 CL   UNL     1       0.778   4.510  20.592  0.00  0.00    +0.000 Cl
ENDBRANCH   3   5
BRANCH   1  18
ATOM     13  C   UNL     1       1.258   8.850  20.047  0.00  0.00    +0.000 A 
ATOM     14  C   UNL     1       0.827  10.188  20.092  0.00  0.00    +0.000 A 
ATOM     15  C   UNL     1       1.096  11.086  19.050  0.00  0.00    +0.000 A 
ATOM     16  C   UNL     1       1.830  10.640  17.956  0.00  0.00    +0.000 A 
ATOM     17  C   UNL     1       2.254   9.309  17.889  0.00  0.00    +0.000 A 
ATOM     18  C   UNL     1       1.964   8.393  18.919  0.00  0.00    +0.000 A 
BRANCH  13  20
ATOM     19  C   UNL     1      -0.217   8.222  21.805  0.00  0.00    +0.000 C 
ATOM     20  O   UNL     1       0.965   7.956  21.050  0.00  0.00    +0.000 OA
ENDBRANCH  13  20
BRANCH  15  21
ATOM     21  S   UNL     1       0.497  12.760  19.234  0.00  0.00    +0.000 S 
ATOM     22  C   UNL     1       1.858  13.731  18.537  0.00  0.00    +0.000 C 
ENDBRANCH  15  21
ENDBRANCH   1  18
TORSDOF 4
ENDMDL
MODEL 5
REMARK VINA RESULT:      -6.3      4.348      7.404
REMARK  Name = 
REMARK  6 active torsions:
REMARK  status: ('A' for Active; 'I' for Inactive)
REMARK    1  A    between atoms: C_1  and  O_2
REMARK    2  A    between atoms: O_2  and  C_3
REMARK    3  A    between atoms: C_5  and  S_6
REMARK    4  A    between atoms: S_6  and  C_7
REMARK    5  A    between atoms: C_10  and  C_11
REMARK    6  A    between atoms: N_13  and  C_14
REMARK                            x       y       z     vdW  Elec       q    Type
REMARK                         _______ _______ _______ _____ _____    ______ ____
ROOT
ATOM      1  C   UNL     1       3.404   6.448  17.982  0.00  0.00    +0.000 C 
ATOM      2  O   UNL     1       2.963   5.369  17.581  0.00  0.00    +0.000 OA
ATOM      3  N   UNL     1       4.707   6.861  17.766  0.00  0.00    +0.000 N 
ATOM      4  H   UNL     1       5.055   7.511  18.470  0.00  0.00    +0.000 HD
ENDROOT
BRANCH   3   5
ATOM      5  C   UNL     1       5.674   6.039  17.126  0.00  0.00    +0.000 A 
ATOM      6  C   UNL     1       5.773   5.905  15.731  0.00  0.00    +0.000 A 
ATOM      7 CL   UNL     1       4.888   6.882  14.615  0.00  0.00    +0.000 Cl
ATOM      8  C   UNL     1       6.748   5.055  15.217  0.00  0.00    +0.000 A 
ATOM      9  N   UNL     1       7.620   4.342  15.972  0.00  0.00    +0.000 NA
ATOM     10  C   UNL     1       7.524   4.509  17.308  0.00  0.00    +0.000 A 
ATOM     11  C   UNL     1       6.597   5.345  17.923  0.00  0.00    +0.000 A 
ATOM     12 CL   UNL     1       6.581   5.464  19.646  0.00  0.00    +0.000 Cl
ENDBRANCH   3   5
BRANCH   1  18
ATOM     13  C   UNL     1       2.079   7.001  20.133  0.00  0.00    +0.000 A 
ATOM     14  C   UNL     1       1.229   7.896  20.805  0.00  0.00    +0.000 A 
ATOM     15  C   UNL     1       0.829   9.110  20.229  0.00  0.00    +0.000 A 
ATOM     16  C   UNL     1       1.310   9.440  18.967  0.00  0.00    +0.000 A 
ATOM     17  C   UNL     1       2.145   8.554  18.278  0.00  0.00    +0.000 A 
ATOM     18  C   UNL     1       2.530   7.320  18.838  0.00  0.00    +0.000 A 
BRANCH  13  20
ATOM     19  C   UNL     1       1.448   4.770  20.669  0.00  0.00    +0.000 C 
ATOM     20  O   UNL     1       2.445   5.792  20.680  0.00  0.00    +0.000 OA
ENDBRANCH  13  20
BRANCH  15  21
ATOM     21  S   UNL     1      -0.249  10.160  21.193  0.00  0.00    +0.000 S 
ATOM     22  C   UNL     1      -0.147   9.405  22.837  0.00  0.00    +0.000 C 
ENDBRANCH  15  21
ENDBRANCH   1  18
TORSDOF 4
ENDMDL
MODEL 6
REMARK VINA RESULT:      -6.3      4.478      7.337
REMARK  Name = 
REMARK  6 active torsions:
REMARK  status: ('A' for Active; 'I' for Inactive)
REMARK    1  A    between atoms: C_1  and  O_2
REMARK    2  A    between atoms: O_2  and  C_3
REMARK    3  A    between atoms: C_5  and  S_6
REMARK    4  A    between atoms: S_6  and  C_7
REMARK    5  A    between atoms: C_10  and  C_11
REMARK    6  A    between atoms: N_13  and  C_14
REMARK                            x       y       z     vdW  Elec       q    Type
REMARK                         _______ _______ _______ _____ _____    ______ ____
ROOT
ATOM      1  C   UNL     1       3.417   7.429  17.624  0.00  0.00    +0.000 C 
ATOM      2  O   UNL     1       3.338   7.739  16.434  0.00  0.00    +0.000 OA
ATOM      3  N   UNL     1       4.256   6.434  18.094  0.00  0.00    +0.000 N 
ATOM      4  H   UNL     1       3.935   5.998  18.957  0.00  0.00    +0.000 HD
ENDROOT
BRANCH   3   5
ATOM      5  C   UNL     1       5.045   5.628  17.230  0.00  0.00    +0.000 A 
ATOM      6  C   UNL     1       6.335   5.986  16.803  0.00  0.00    +0.000 A 
ATOM      7 CL   UNL     1       7.211   7.331  17.442  0.00  0.00    +0.000 Cl
ATOM      8  C   UNL     1       7.008   5.126  15.940  0.00  0.00    +0.000 A 
ATOM      9  N   UNL     1       6.505   3.954  15.478  0.00  0.00    +0.000 NA
ATOM     10  C   UNL     1       5.275   3.619  15.924  0.00  0.00    +0.000 A 
ATOM     11  C   UNL     1       4.526   4.398  16.800  0.00  0.00    +0.000 A 
ATOM     12 CL   UNL     1       2.963   3.850  17.290  0.00  0.00    +0.000 Cl
ENDBRANCH   3   5
BRANCH   1  18
ATOM     13  C   UNL     1       2.124   7.546  19.861  0.00  0.00    +0.000 A 
ATOM     14  C   UNL     1       1.212   8.248  20.668  0.00  0.00    +0.000 A 
ATOM     15  C   UNL     1       0.666   9.477  20.271  0.00  0.00    +0.000 A 
ATOM     16  C   UNL     1       1.062  10.021  19.054  0.00  0.00    +0.000 A 
ATOM     17  C   UNL     1       1.958   9.330  18.232  0.00  0.00    +0.000 A 
ATOM     18  C   UNL     1       2.489   8.082  18.611  0.00  0.00    +0.000 A 
BRANCH  13  20
ATOM     19  C   UNL     1       1.677   5.327  20.591  0.00  0.00    +0.000 C 
ATOM     20  O   UNL     1       2.633   6.323  20.229  0.00  0.00    +0.000 OA
ENDBRANCH  13  20
BRANCH  15  21
ATOM     21  S   UNL     1      -0.478  10.268  21.393  0.00  0.00    +0.000 S 
ATOM     22  C   UNL     1      -0.159   9.388  22.945  0.00  0.00    +0.000 C 
ENDBRANCH  15  21
ENDBRANCH   1  18
TORSDOF 4
ENDMDL
MODEL 7
REMARK VINA RESULT:      -6.2      4.785      6.863
REMARK  Name = 
REMARK  6 active torsions:
REMARK  status: ('A' for Active; 'I' for Inactive)
REMARK    1  A    between atoms: C_1  and  O_2
REMARK    2  A    between atoms: O_2  and  C_3
REMARK    3  A    between atoms: C_5  and  S_6
REMARK    4  A    between atoms: S_6  and  C_7
REMARK    5  A    between atoms: C_10  and  C_11
REMARK    6  A    between atoms: N_13  and  C_14
REMARK                            x       y       z     vdW  Elec       q    Type
REMARK                         _______ _______ _______ _____ _____    ______ ____
ROOT
ATOM      1  C   UNL     1       2.519   6.611  19.249  0.00  0.00    +0.000 C 
ATOM      2  O   UNL     1       3.402   6.333  20.062  0.00  0.00    +0.000 OA
ATOM      3  N   UNL     1       2.019   5.702  18.332  0.00  0.00    +0.000 N 
ATOM      4  H   UNL     1       1.645   6.132  17.488  0.00  0.00    +0.000 HD
ENDROOT
BRANCH   3   5
ATOM      5  C   UNL     1       2.541   4.386  18.198  0.00  0.00    +0.000 A 
ATOM      6  C   UNL     1       3.622   4.066  17.360  0.00  0.00    +0.000 A 
ATOM      7 CL   UNL     1       4.594   5.251  16.562  0.00  0.00    +0.000 Cl
ATOM      8  C   UNL     1       4.035   2.738  17.294  0.00  0.00    +0.000 A 
ATOM      9  N   UNL     1       3.465   1.722  17.987  0.00  0.00    +0.000 NA
ATOM     10  C   UNL     1       2.446   2.059  18.806  0.00  0.00    +0.000 A 
ATOM     11  C   UNL     1       1.967   3.357  18.959  0.00  0.00    +0.000 A 
ATOM     12 CL   UNL     1       0.653   3.649  20.040  0.00  0.00    +0.000 Cl
ENDBRANCH   3   5
BRANCH   1  18
ATOM     13  C   UNL     1       1.234   8.671  20.139  0.00  0.00    +0.000 A 
ATOM     14  C   UNL     1       0.805   9.990  19.912  0.00  0.00    +0.000 A 
ATOM     15  C   UNL     1       1.154  10.692  18.750  0.00  0.00    +0.000 A 
ATOM     16  C   UNL     1       1.967  10.066  17.811  0.00  0.00    +0.000 A 
ATOM     17  C   UNL     1       2.391   8.748  18.014  0.00  0.00    +0.000 A 
ATOM     18  C   UNL     1       2.022   8.027  19.166  0.00  0.00    +0.000 A 
BRANCH  13  20
ATOM     19  C   UNL     1      -0.242   8.490  21.996  0.00  0.00    +0.000 C 
ATOM     20  O   UNL     1       0.864   7.966  21.261  0.00  0.00    +0.000 OA
ENDBRANCH  13  20
BRANCH  15  21
ATOM     21  S   UNL     1       0.548  12.365  18.588  0.00  0.00    +0.000 S 
ATOM     22  C   UNL     1      -1.244  12.138  18.739  0.00  0.00    +0.000 C 
ENDBRANCH  15  21
ENDBRANCH   1  18
TORSDOF 4
ENDMDL
MODEL 8
REMARK VINA RESULT:      -6.2      1.314      2.204
REMARK  Name = 
REMARK  6 active torsions:
REMARK  status: ('A' for Active; 'I' for Inactive)
REMARK    1  A    between atoms: C_1  and  O_2
REMARK    2  A    between atoms: O_2  and  C_3
REMARK    3  A    between atoms: C_5  and  S_6
REMARK    4  A    between atoms: S_6  and  C_7
REMARK    5  A    between atoms: C_10  and  C_11
REMARK    6  A    between atoms: N_13  and  C_14
REMARK                            x       y       z     vdW  Elec       q    Type
REMARK                         _______ _______ _______ _____ _____    ______ ____
ROOT
ATOM      1  C   UNL     1       4.476   3.428  17.568  0.00  0.00    +0.000 C 
ATOM      2  O   UNL     1       3.716   2.497  17.296  0.00  0.00    +0.000 OA
ATOM      3  N   UNL     1       4.436   4.111  18.771  0.00  0.00    +0.000 N 
ATOM      4  H   UNL     1       4.780   5.068  18.713  0.00  0.00    +0.000 HD
ENDROOT
BRANCH   3   5
ATOM      5  C   UNL     1       3.459   3.846  19.770  0.00  0.00    +0.000 A 
ATOM      6  C   UNL     1       3.507   2.729  20.620  0.00  0.00    +0.000 A 
ATOM      7 CL   UNL     1       4.862   1.661  20.715  0.00  0.00    +0.000 Cl
ATOM      8  C   UNL     1       2.484   2.562  21.548  0.00  0.00    +0.000 A 
ATOM      9  N   UNL     1       1.435   3.408  21.695  0.00  0.00    +0.000 NA
ATOM     10  C   UNL     1       1.425   4.488  20.885  0.00  0.00    +0.000 A 
ATOM     11  C   UNL     1       2.407   4.758  19.936  0.00  0.00    +0.000 A 
ATOM     12 CL   UNL     1       2.271   6.178  18.963  0.00  0.00    +0.000 Cl
ENDBRANCH   3   5
BRANCH   1  18
ATOM     13  C   UNL     1       6.720   4.426  16.759  0.00  0.00    +0.000 A 
ATOM     14  C   UNL     1       7.488   4.897  15.680  0.00  0.00    +0.000 A 
ATOM     15  C   UNL     1       7.009   4.869  14.363  0.00  0.00    +0.000 A 
ATOM     16  C   UNL     1       5.747   4.336  14.123  0.00  0.00    +0.000 A 
ATOM     17  C   UNL     1       4.964   3.876  15.187  0.00  0.00    +0.000 A 
ATOM     18  C   UNL     1       5.426   3.926  16.516  0.00  0.00    +0.000 A 
BRANCH  13  20
ATOM     19  C   UNL     1       7.610   5.765  18.513  0.00  0.00    +0.000 C 
ATOM     20  O   UNL     1       7.172   4.485  18.057  0.00  0.00    +0.000 OA
ENDBRANCH  13  20
BRANCH  15  21
ATOM     21  S   UNL     1       8.089   5.493  13.083  0.00  0.00    +0.000 S 
ATOM     22  C   UNL     1       7.448   4.663  11.606  0.00  0.00    +0.000 C 
ENDBRANCH  15  21
ENDBRANCH   1  18
TORSDOF 4
ENDMDL
MODEL 9
REMARK VINA RESULT:      -6.2      4.445      7.491
REMARK  Name = 
REMARK  6 active torsions:
REMARK  status: ('A' for Active; 'I' for Inactive)
REMARK    1  A    between atoms: C_1  and  O_2
REMARK    2  A    between atoms: O_2  and  C_3
REMARK    3  A    between atoms: C_5  and  S_6
REMARK    4  A    between atoms: S_6  and  C_7
REMARK    5  A    between atoms: C_10  and  C_11
REMARK    6  A    between atoms: N_13  and  C_14
REMARK                            x       y       z     vdW  Elec       q    Type
REMARK                         _______ _______ _______ _____ _____    ______ ____
ROOT
ATOM      1  C   UNL     1       3.395   7.339  17.665  0.00  0.00    +0.000 C 
ATOM      2  O   UNL     1       3.275   7.619  16.471  0.00  0.00    +0.000 OA
ATOM      3  N   UNL     1       4.265   6.370  18.133  0.00  0.00    +0.000 N 
ATOM      4  H   UNL     1       3.976   5.949  19.015  0.00  0.00    +0.000 HD
ENDROOT
BRANCH   3   5
ATOM      5  C   UNL     1       5.043   5.557  17.265  0.00  0.00    +0.000 A 
ATOM      6  C   UNL     1       4.613   4.308  16.785  0.00  0.00    +0.000 A 
ATOM      7 CL   UNL     1       3.009   3.703  17.003  0.00  0.00    +0.000 Cl
ATOM      8  C   UNL     1       5.469   3.590  15.955  0.00  0.00    +0.000 A 
ATOM      9  N   UNL     1       6.699   4.013  15.570  0.00  0.00    +0.000 NA
ATOM     10  C   UNL     1       7.078   5.227  16.022  0.00  0.00    +0.000 A 
ATOM     11  C   UNL     1       6.293   6.033  16.842  0.00  0.00    +0.000 A 
ATOM     12 CL   UNL     1       6.901   7.567  17.350  0.00  0.00    +0.000 Cl
ENDBRANCH   3   5
BRANCH   1  18
ATOM     13  C   UNL     1       2.119   7.460  19.912  0.00  0.00    +0.000 A 
ATOM     14  C   UNL     1       1.224   8.170  20.731  0.00  0.00    +0.000 A 
ATOM     15  C   UNL     1       0.696   9.410  20.347  0.00  0.00    +0.000 A 
ATOM     16  C   UNL     1       1.092   9.957  19.131  0.00  0.00    +0.000 A 
ATOM     17  C   UNL     1       1.970   9.257  18.298  0.00  0.00    +0.000 A 
ATOM     18  C   UNL     1       2.485   7.998  18.663  0.00  0.00    +0.000 A 
BRANCH  13  20
ATOM     19  C   UNL     1       1.645   5.193  20.455  0.00  0.00    +0.000 C 
ATOM     20  O   UNL     1       2.612   6.226  20.268  0.00  0.00    +0.000 OA
ENDBRANCH  13  20
BRANCH  15  21
ATOM     21  S   UNL     1      -0.427  10.211  21.483  0.00  0.00    +0.000 S 
ATOM     22  C   UNL     1       0.010   9.436  23.061  0.00  0.00    +0.000 C 
ENDBRANCH  15  21
ENDBRANCH   1  18
TORSDOF 4
ENDMDL
