MODEL 1
REMARK VINA RESULT:      -6.8      0.000      0.000
REMARK  Name = 
REMARK  9 active torsions:
REMARK  status: ('A' for Active; 'I' for Inactive)
REMARK    1  A    between atoms: C_1  and  C_2
REMARK    2  A    between atoms: N_5  and  C_6
REMARK    3  A    between atoms: C_6  and  C_7
REMARK    4  A    between atoms: C_7  and  N_8
REMARK    5  A    between atoms: N_8  and  C_9
REMARK    6  A    between atoms: C_9  and  C_10
REMARK    7  A    between atoms: C_13  and  O_14
REMARK    8  A    between atoms: O_14  and  C_15
REMARK    9  A    between atoms: C_15  and  C_16
REMARK                            x       y       z     vdW  Elec       q    Type
REMARK                         _______ _______ _______ _____ _____    ______ ____
ROOT
ATOM      1  C   UNL     1       5.646   5.044  17.583  0.00  0.00    +0.000 A 
ATOM      2  C   UNL     1       6.549   4.817  18.630  0.00  0.00    +0.000 A 
ATOM      3  C   UNL     1       7.478   5.788  18.984  0.00  0.00    +0.000 A 
ATOM      4  C   UNL     1       7.555   6.977  18.258  0.00  0.00    +0.000 A 
ATOM      5  C   UNL     1       6.652   7.219  17.225  0.00  0.00    +0.000 A 
ATOM      6  C   UNL     1       5.701   6.256  16.884  0.00  0.00    +0.000 A 
ENDROOT
BRANCH   1   7
ATOM      7  C   UNL     1       4.658   3.975  17.205  0.00  0.00    +0.000 C 
BRANCH   7   8
ATOM      8  N   UNL     1       4.503   2.999  18.285  0.00  0.00    +0.000 NA
ATOM      9  H   UNL     1       5.403   2.584  18.508  0.00  0.00    +0.000 HD
BRANCH   8  10
ATOM     10  C   UNL     1       3.535   1.952  17.949  0.00  0.00    +0.000 C 
BRANCH  10  11
ATOM     11  C   UNL     1       2.096   2.268  18.358  0.00  0.00    +0.000 C 
BRANCH  11  16
ATOM     12  C   UNL     1       1.559   6.619  20.759  0.00  0.00    +0.000 C 
ATOM     13  C   UNL     1       1.821   5.207  20.419  0.00  0.00    +0.000 A 
ATOM     14  C   UNL     1       2.242   4.167  21.276  0.00  0.00    +0.000 A 
ATOM     15  N   UNL     1       2.381   3.005  20.634  0.00  0.00    +0.000 NA
ATOM     16  N   UNL     1       2.050   3.301  19.369  0.00  0.00    +0.000 N 
ATOM     17  C   UNL     1       1.710   4.605  19.185  0.00  0.00    +0.000 A 
ENDBRANCH  11  16
ENDBRANCH  10  11
ENDBRANCH   8  10
ENDBRANCH   7   8
ENDBRANCH   1   7
BRANCH   4  18
ATOM     18  O   UNL     1       8.488   7.955  18.479  0.00  0.00    +0.000 OA
BRANCH  18  19
ATOM     19  C   UNL     1       8.183   9.205  17.846  0.00  0.00    +0.000 C 
BRANCH  19  20
ATOM     20  C   UNL     1       8.871  10.360  18.496  0.00  0.00    +0.000 A 
ATOM     21  C   UNL     1       9.185  11.580  17.927  0.00  0.00    +0.000 A 
ATOM     22  S   UNL     1      10.019  12.561  19.058  0.00  0.00    +0.000 S 
ATOM     23  C   UNL     1       9.898  11.300  20.211  0.00  0.00    +0.000 A 
ATOM     24  N   UNL     1       9.280  10.211  19.816  0.00  0.00    +0.000 NA
ENDBRANCH  19  20
ENDBRANCH  18  19
ENDBRANCH   4  18
TORSDOF 8
ENDMDL
MODEL 2
REMARK VINA RESULT:      -6.6      4.140      6.814
REMARK  Name = 
REMARK  9 active torsions:
REMARK  status: ('A' for Active; 'I' for Inactive)
REMARK    1  A    between atoms: C_1  and  C_2
REMARK    2  A    between atoms: N_5  and  C_6
REMARK    3  A    between atoms: C_6  and  C_7
REMARK    4  A    between atoms: C_7  and  N_8
REMARK    5  A    between atoms: N_8  and  C_9
REMARK    6  A    between atoms: C_9  and  C_10
REMARK    7  A    between atoms: C_13  and  O_14
REMARK    8  A    between atoms: O_14  and  C_15
REMARK    9  A    between atoms: C_15  and  C_16
REMARK                            x       y       z     vdW  Elec       q    Type
REMARK                         _______ _______ _______ _____ _____    ______ ____
ROOT
ATOM      1  C   UNL     1       2.953   5.032  18.475  0.00  0.00    +0.000 A 
ATOM      2  C   UNL     1       3.105   6.342  18.003  0.00  0.00    +0.000 A 
ATOM      3  C   UNL     1       2.708   7.423  18.780  0.00  0.00    +0.000 A 
ATOM      4  C   UNL     1       2.100   7.207  20.017  0.00  0.00    +0.000 A 
ATOM      5  C   UNL     1       1.959   5.908  20.503  0.00  0.00    +0.000 A 
ATOM      6  C   UNL     1       2.381   4.821  19.735  0.00  0.00    +0.000 A 
ENDROOT
BRANCH   1   7
ATOM      7  C   UNL     1       3.376   3.874  17.612  0.00  0.00    +0.000 C 
BRANCH   7   8
ATOM      8  N   UNL     1       4.835   3.746  17.585  0.00  0.00    +0.000 NA
ATOM      9  H   UNL     1       5.257   4.489  18.134  0.00  0.00    +0.000 HD
BRANCH   8  10
ATOM     10  C   UNL     1       5.365   3.764  16.220  0.00  0.00    +0.000 C 
BRANCH  10  11
ATOM     11  C   UNL     1       6.859   4.077  16.128  0.00  0.00    +0.000 C 
BRANCH  11  16
ATOM     12  C   UNL     1       7.916   8.592  17.992  0.00  0.00    +0.000 C 
ATOM     13  C   UNL     1       7.693   7.143  17.818  0.00  0.00    +0.000 A 
ATOM     14  C   UNL     1       7.841   6.117  18.776  0.00  0.00    +0.000 A 
ATOM     15  N   UNL     1       7.555   4.912  18.278  0.00  0.00    +0.000 NA
ATOM     16  N   UNL     1       7.225   5.167  17.004  0.00  0.00    +0.000 N 
ATOM     17  C   UNL     1       7.294   6.485  16.675  0.00  0.00    +0.000 A 
ENDBRANCH  11  16
ENDBRANCH  10  11
ENDBRANCH   8  10
ENDBRANCH   7   8
ENDBRANCH   1   7
BRANCH   4  18
ATOM     18  O   UNL     1       1.602   8.201  20.815  0.00  0.00    +0.000 OA
BRANCH  18  19
ATOM     19  C   UNL     1       0.824   9.180  20.113  0.00  0.00    +0.000 C 
BRANCH  19  20
ATOM     20  C   UNL     1       0.207  10.186  21.026  0.00  0.00    +0.000 A 
ATOM     21  C   UNL     1      -0.509   9.944  22.183  0.00  0.00    +0.000 A 
ATOM     22  S   UNL     1      -1.059  11.421  22.857  0.00  0.00    +0.000 S 
ATOM     23  C   UNL     1      -0.305  12.265  21.571  0.00  0.00    +0.000 A 
ATOM     24  N   UNL     1       0.325  11.529  20.685  0.00  0.00    +0.000 NA
ENDBRANCH  19  20
ENDBRANCH  18  19
ENDBRANCH   4  18
TORSDOF 8
ENDMDL
MODEL 3
REMARK VINA RESULT:      -6.6      5.079      7.886
REMARK  Name = 
REMARK  9 active torsions:
REMARK  status: ('A' for Active; 'I' for Inactive)
REMARK    1  A    between atoms: C_1  and  C_2
REMARK    2  A    between atoms: N_5  and  C_6
REMARK    3  A    between atoms: C_6  and  C_7
REMARK    4  A    between atoms: C_7  and  N_8
REMARK    5  A    between atoms: N_8  and  C_9
REMARK    6  A    between atoms: C_9  and  C_10
REMARK    7  A    between atoms: C_13  and  O_14
REMARK    8  A    between atoms: O_14  and  C_15
REMARK    9  A    between atoms: C_15  and  C_16
REMARK                            x       y       z     vdW  Elec       q    Type
REMARK                         _______ _______ _______ _____ _____    ______ ____
ROOT
ATOM      1  C   UNL     1       2.724   6.874  18.488  0.00  0.00    +0.000 A 
ATOM      2  C   UNL     1       2.381   7.921  17.622  0.00  0.00    +0.000 A 
ATOM      3  C   UNL     1       1.701   9.035  18.098  0.00  0.00    +0.000 A 
ATOM      4  C   UNL     1       1.303   9.092  19.434  0.00  0.00    +0.000 A 
ATOM      5  C   UNL     1       1.652   8.063  20.306  0.00  0.00    +0.000 A 
ATOM      6  C   UNL     1       2.358   6.954  19.836  0.00  0.00    +0.000 A 
ENDROOT
BRANCH   1   7
ATOM      7  C   UNL     1       3.447   5.669  17.951  0.00  0.00    +0.000 C 
BRANCH   7   8
ATOM      8  N   UNL     1       4.657   5.394  18.728  0.00  0.00    +0.000 NA
ATOM      9  H   UNL     1       4.598   5.853  19.633  0.00  0.00    +0.000 HD
BRANCH   8  10
ATOM     10  C   UNL     1       5.872   5.817  18.027  0.00  0.00    +0.000 C 
BRANCH  10  11
ATOM     11  C   UNL     1       6.733   4.664  17.508  0.00  0.00    +0.000 C 
BRANCH  11  16
ATOM     12  C   UNL     1       5.691   3.444  12.774  0.00  0.00    +0.000 C 
ATOM     13  C   UNL     1       6.256   4.057  13.992  0.00  0.00    +0.000 A 
ATOM     14  C   UNL     1       7.253   5.053  14.084  0.00  0.00    +0.000 A 
ATOM     15  N   UNL     1       7.527   5.380  15.349  0.00  0.00    +0.000 NA
ATOM     16  N   UNL     1       6.708   4.596  16.064  0.00  0.00    +0.000 N 
ATOM     17  C   UNL     1       5.929   3.783  15.302  0.00  0.00    +0.000 A 
ENDBRANCH  11  16
ENDBRANCH  10  11
ENDBRANCH   8  10
ENDBRANCH   7   8
ENDBRANCH   1   7
BRANCH   4  18
ATOM     18  O   UNL     1       0.560  10.108  19.974  0.00  0.00    +0.000 OA
BRANCH  18  19
ATOM     19  C   UNL     1       0.187   9.895  21.342  0.00  0.00    +0.000 C 
BRANCH  19  20
ATOM     20  C   UNL     1      -0.802  10.900  21.831  0.00  0.00    +0.000 A 
ATOM     21  C   UNL     1      -1.323  11.015  23.107  0.00  0.00    +0.000 A 
ATOM     22  S   UNL     1      -2.464  12.292  23.165  0.00  0.00    +0.000 S 
ATOM     23  C   UNL     1      -2.178  12.596  21.503  0.00  0.00    +0.000 A 
ATOM     24  N   UNL     1      -1.296  11.821  20.915  0.00  0.00    +0.000 NA
ENDBRANCH  19  20
ENDBRANCH  18  19
ENDBRANCH   4  18
TORSDOF 8
ENDMDL
MODEL 4
REMARK VINA RESULT:      -6.5      4.473      6.633
REMARK  Name = 
REMARK  9 active torsions:
REMARK  status: ('A' for Active; 'I' for Inactive)
REMARK    1  A    between atoms: C_1  and  C_2
REMARK    2  A    between atoms: N_5  and  C_6
REMARK    3  A    between atoms: C_6  and  C_7
REMARK    4  A    between atoms: C_7  and  N_8
REMARK    5  A    between atoms: N_8  and  C_9
REMARK    6  A    between atoms: C_9  and  C_10
REMARK    7  A    between atoms: C_13  and  O_14
REMARK    8  A    between atoms: O_14  and  C_15
REMARK    9  A    between atoms: C_15  and  C_16
REMARK                            x       y       z     vdW  Elec       q    Type
REMARK                         _______ _______ _______ _____ _____    ______ ____
ROOT
ATOM      1  C   UNL     1       2.665   6.448  18.484  0.00  0.00    +0.000 A 
ATOM      2  C   UNL     1       2.465   7.611  17.729  0.00  0.00    +0.000 A 
ATOM      3  C   UNL     1       1.946   8.756  18.321  0.00  0.00    +0.000 A 
ATOM      4  C   UNL     1       1.565   8.736  19.662  0.00  0.00    +0.000 A 
ATOM      5  C   UNL     1       1.774   7.589  20.426  0.00  0.00    +0.000 A 
ATOM      6  C   UNL     1       2.319   6.445  19.841  0.00  0.00    +0.000 A 
ENDROOT
BRANCH   1   7
ATOM      7  C   UNL     1       3.214   5.214  17.822  0.00  0.00    +0.000 C 
BRANCH   7   8
ATOM      8  N   UNL     1       4.462   4.788  18.460  0.00  0.00    +0.000 NA
ATOM      9  H   UNL     1       4.384   4.881  19.469  0.00  0.00    +0.000 HD
BRANCH   8  10
ATOM     10  C   UNL     1       5.618   5.543  17.971  0.00  0.00    +0.000 C 
BRANCH  10  11
ATOM     11  C   UNL     1       6.764   4.675  17.451  0.00  0.00    +0.000 C 
BRANCH  11  16
ATOM     12  C   UNL     1       5.790   3.441  12.706  0.00  0.00    +0.000 C 
ATOM     13  C   UNL     1       6.337   4.059  13.930  0.00  0.00    +0.000 A 
ATOM     14  C   UNL     1       7.330   5.057  14.034  0.00  0.00    +0.000 A 
ATOM     15  N   UNL     1       7.587   5.388  15.302  0.00  0.00    +0.000 NA
ATOM     16  N   UNL     1       6.760   4.603  16.007  0.00  0.00    +0.000 N 
ATOM     17  C   UNL     1       5.992   3.787  15.236  0.00  0.00    +0.000 A 
ENDBRANCH  11  16
ENDBRANCH  10  11
ENDBRANCH   8  10
ENDBRANCH   7   8
ENDBRANCH   1   7
BRANCH   4  18
ATOM     18  O   UNL     1       0.970   9.786  20.310  0.00  0.00    +0.000 OA
BRANCH  18  19
ATOM     19  C   UNL     1       0.570  10.856  19.443  0.00  0.00    +0.000 C 
BRANCH  19  20
ATOM     20  C   UNL     1       1.409  12.079  19.614  0.00  0.00    +0.000 A 
ATOM     21  C   UNL     1       2.112  12.759  18.638  0.00  0.00    +0.000 A 
ATOM     22  S   UNL     1       2.967  14.072  19.333  0.00  0.00    +0.000 S 
ATOM     23  C   UNL     1       2.339  13.641  20.868  0.00  0.00    +0.000 A 
ATOM     24  N   UNL     1       1.541  12.599  20.896  0.00  0.00    +0.000 NA
ENDBRANCH  19  20
ENDBRANCH  18  19
ENDBRANCH   4  18
TORSDOF 8
ENDMDL
MODEL 5
REMARK VINA RESULT:      -6.4      5.537      8.110
REMARK  Name = 
REMARK  9 active torsions:
REMARK  status: ('A' for Active; 'I' for Inactive)
REMARK    1  A    between atoms: C_1  and  C_2
REMARK    2  A    between atoms: N_5  and  C_6
REMARK    3  A    between atoms: C_6  and  C_7
REMARK    4  A    between atoms: C_7  and  N_8
REMARK    5  A    between atoms: N_8  and  C_9
REMARK    6  A    between atoms: C_9  and  C_10
REMARK    7  A    between atoms: C_13  and  O_14
REMARK    8  A    between atoms: O_14  and  C_15
REMARK    9  A    between atoms: C_15  and  C_16
REMARK                            x       y       z     vdW  Elec       q    Type
REMARK                         _______ _______ _______ _____ _____    ______ ____
ROOT
ATOM      1  C   UNL     1       2.203   7.844  19.132  0.00  0.00    +0.000 A 
ATOM      2  C   UNL     1       1.875   8.633  18.021  0.00  0.00    +0.000 A 
ATOM      3  C   UNL     1       0.977   9.686  18.144  0.00  0.00    +0.000 A 
ATOM      4  C   UNL     1       0.351   9.930  19.367  0.00  0.00    +0.000 A 
ATOM      5  C   UNL     1       0.683   9.162  20.482  0.00  0.00    +0.000 A 
ATOM      6  C   UNL     1       1.604   8.118  20.366  0.00  0.00    +0.000 A 
ENDROOT
BRANCH   1   7
ATOM      7  C   UNL     1       3.165   6.698  18.975  0.00  0.00    +0.000 C 
BRANCH   7   8
ATOM      8  N   UNL     1       2.985   5.712  20.042  0.00  0.00    +0.000 NA
ATOM      9  H   UNL     1       3.782   5.736  20.673  0.00  0.00    +0.000 HD
BRANCH   8  10
ATOM     10  C   UNL     1       2.799   4.358  19.517  0.00  0.00    +0.000 C 
BRANCH  10  11
ATOM     11  C   UNL     1       4.067   3.503  19.511  0.00  0.00    +0.000 C 
BRANCH  11  16
ATOM     12  C   UNL     1       6.075   4.367  15.015  0.00  0.00    +0.000 C 
ATOM     13  C   UNL     1       5.837   4.258  16.468  0.00  0.00    +0.000 A 
ATOM     14  C   UNL     1       6.708   4.604  17.523  0.00  0.00    +0.000 A 
ATOM     15  N   UNL     1       6.170   4.377  18.723  0.00  0.00    +0.000 NA
ATOM     16  N   UNL     1       4.955   3.886  18.436  0.00  0.00    +0.000 N 
ATOM     17  C   UNL     1       4.706   3.791  17.103  0.00  0.00    +0.000 A 
ENDBRANCH  11  16
ENDBRANCH  10  11
ENDBRANCH   8  10
ENDBRANCH   7   8
ENDBRANCH   1   7
BRANCH   4  18
ATOM     18  O   UNL     1      -0.605  10.890  19.565  0.00  0.00    +0.000 OA
BRANCH  18  19
ATOM     19  C   UNL     1      -0.878  11.690  18.407  0.00  0.00    +0.000 C 
BRANCH  19  20
ATOM     20  C   UNL     1      -2.283  11.540  17.924  0.00  0.00    +0.000 A 
ATOM     21  C   UNL     1      -3.445  11.693  18.658  0.00  0.00    +0.000 A 
ATOM     22  S   UNL     1      -4.810  11.368  17.675  0.00  0.00    +0.000 S 
ATOM     23  C   UNL     1      -3.762  11.055  16.357  0.00  0.00    +0.000 A 
ATOM     24  N   UNL     1      -2.476  11.179  16.596  0.00  0.00    +0.000 NA
ENDBRANCH  19  20
ENDBRANCH  18  19
ENDBRANCH   4  18
TORSDOF 8
ENDMDL
MODEL 6
REMARK VINA RESULT:      -6.4      4.336      7.003
REMARK  Name = 
REMARK  9 active torsions:
REMARK  status: ('A' for Active; 'I' for Inactive)
REMARK    1  A    between atoms: C_1  and  C_2
REMARK    2  A    between atoms: N_5  and  C_6
REMARK    3  A    between atoms: C_6  and  C_7
REMARK    4  A    between atoms: C_7  and  N_8
REMARK    5  A    between atoms: N_8  and  C_9
REMARK    6  A    between atoms: C_9  and  C_10
REMARK    7  A    between atoms: C_13  and  O_14
REMARK    8  A    between atoms: O_14  and  C_15
REMARK    9  A    between atoms: C_15  and  C_16
REMARK                            x       y       z     vdW  Elec       q    Type
REMARK                         _______ _______ _______ _____ _____    ______ ____
ROOT
ATOM      1  C   UNL     1       2.556   5.593  19.334  0.00  0.00    +0.000 A 
ATOM      2  C   UNL     1       2.765   6.611  18.394  0.00  0.00    +0.000 A 
ATOM      3  C   UNL     1       2.331   7.906  18.648  0.00  0.00    +0.000 A 
ATOM      4  C   UNL     1       1.631   8.190  19.820  0.00  0.00    +0.000 A 
ATOM      5  C   UNL     1       1.431   7.189  20.769  0.00  0.00    +0.000 A 
ATOM      6  C   UNL     1       1.889   5.892  20.527  0.00  0.00    +0.000 A 
ENDROOT
BRANCH   1   7
ATOM      7  C   UNL     1       3.020   4.194  19.034  0.00  0.00    +0.000 C 
BRANCH   7   8
ATOM      8  N   UNL     1       3.081   3.960  17.590  0.00  0.00    +0.000 NA
ATOM      9  H   UNL     1       2.338   3.325  17.311  0.00  0.00    +0.000 HD
BRANCH   8  10
ATOM     10  C   UNL     1       4.381   3.432  17.171  0.00  0.00    +0.000 C 
BRANCH  10  11
ATOM     11  C   UNL     1       5.187   4.375  16.276  0.00  0.00    +0.000 C 
BRANCH  11  16
ATOM     12  C   UNL     1       8.048   8.117  17.948  0.00  0.00    +0.000 C 
ATOM     13  C   UNL     1       7.353   6.826  17.780  0.00  0.00    +0.000 A 
ATOM     14  C   UNL     1       7.435   5.678  18.597  0.00  0.00    +0.000 A 
ATOM     15  N   UNL     1       6.667   4.681  18.152  0.00  0.00    +0.000 NA
ATOM     16  N   UNL     1       6.095   5.190  17.052  0.00  0.00    +0.000 N 
ATOM     17  C   UNL     1       6.473   6.468  16.782  0.00  0.00    +0.000 A 
ENDBRANCH  11  16
ENDBRANCH  10  11
ENDBRANCH   8  10
ENDBRANCH   7   8
ENDBRANCH   1   7
BRANCH   4  18
ATOM     18  O   UNL     1       1.094   9.414  20.120  0.00  0.00    +0.000 OA
BRANCH  18  19
ATOM     19  C   UNL     1       0.507   9.489  21.426  0.00  0.00    +0.000 C 
BRANCH  19  20
ATOM     20  C   UNL     1      -0.315  10.721  21.616  0.00  0.00    +0.000 A 
ATOM     21  C   UNL     1      -0.942  11.472  20.640  0.00  0.00    +0.000 A 
ATOM     22  S   UNL     1      -1.722  12.825  21.347  0.00  0.00    +0.000 S 
ATOM     23  C   UNL     1      -1.174  12.311  22.886  0.00  0.00    +0.000 A 
ATOM     24  N   UNL     1      -0.460  11.209  22.910  0.00  0.00    +0.000 NA
ENDBRANCH  19  20
ENDBRANCH  18  19
ENDBRANCH   4  18
TORSDOF 8
ENDMDL
MODEL 7
REMARK VINA RESULT:      -6.4      5.461      7.216
REMARK  Name = 
REMARK  9 active torsions:
REMARK  status: ('A' for Active; 'I' for Inactive)
REMARK    1  A    between atoms: C_1  and  C_2
REMARK    2  A    between atoms: N_5  and  C_6
REMARK    3  A    between atoms: C_6  and  C_7
REMARK    4  A    between atoms: C_7  and  N_8
REMARK    5  A    between atoms: N_8  and  C_9
REMARK    6  A    between atoms: C_9  and  C_10
REMARK    7  A    between atoms: C_13  and  O_14
REMARK    8  A    between atoms: O_14  and  C_15
REMARK    9  A    between atoms: C_15  and  C_16
REMARK                            x       y       z     vdW  Elec       q    Type
REMARK                         _______ _______ _______ _____ _____    ______ ____
ROOT
ATOM      1  C   UNL     1       2.786   7.248  18.087  0.00  0.00    +0.000 A 
ATOM      2  C   UNL     1       2.397   5.906  18.193  0.00  0.00    +0.000 A 
ATOM      3  C   UNL     1       3.228   4.892  17.731  0.00  0.00    +0.000 A 
ATOM      4  C   UNL     1       4.434   5.209  17.107  0.00  0.00    +0.000 A 
ATOM      5  C   UNL     1       4.837   6.540  17.011  0.00  0.00    +0.000 A 
ATOM      6  C   UNL     1       4.016   7.559  17.497  0.00  0.00    +0.000 A 
ENDROOT
BRANCH   1   7
ATOM      7  C   UNL     1       1.866   8.332  18.579  0.00  0.00    +0.000 C 
BRANCH   7   8
ATOM      8  N   UNL     1       1.808   9.443  17.626  0.00  0.00    +0.000 NA
ATOM      9  H   UNL     1       2.717   9.572  17.190  0.00  0.00    +0.000 HD
BRANCH   8  10
ATOM     10  C   UNL     1       1.370  10.689  18.258  0.00  0.00    +0.000 C 
BRANCH  10  11
ATOM     11  C   UNL     1       0.113  10.552  19.119  0.00  0.00    +0.000 C 
BRANCH  11  16
ATOM     12  C   UNL     1      -4.402  11.600  17.248  0.00  0.00    +0.000 C 
ATOM     13  C   UNL     1      -3.064  11.027  17.495  0.00  0.00    +0.000 A 
ATOM     14  C   UNL     1      -2.404  10.012  16.770  0.00  0.00    +0.000 A 
ATOM     15  N   UNL     1      -1.197   9.736  17.269  0.00  0.00    +0.000 NA
ATOM     16  N   UNL     1      -1.085  10.573  18.310  0.00  0.00    +0.000 N 
ATOM     17  C   UNL     1      -2.175  11.365  18.491  0.00  0.00    +0.000 A 
ENDBRANCH  11  16
ENDBRANCH  10  11
ENDBRANCH   8  10
ENDBRANCH   7   8
ENDBRANCH   1   7
BRANCH   4  18
ATOM     18  O   UNL     1       5.278   4.287  16.549  0.00  0.00    +0.000 OA
BRANCH  18  19
ATOM     19  C   UNL     1       6.532   4.831  16.114  0.00  0.00    +0.000 C 
BRANCH  19  20
ATOM     20  C   UNL     1       6.759   4.651  14.649  0.00  0.00    +0.000 A 
ATOM     21  C   UNL     1       6.144   3.742  13.809  0.00  0.00    +0.000 A 
ATOM     22  S   UNL     1       6.776   3.885  12.222  0.00  0.00    +0.000 S 
ATOM     23  C   UNL     1       7.810   5.137  12.768  0.00  0.00    +0.000 A 
ATOM     24  N   UNL     1       7.714   5.456  14.039  0.00  0.00    +0.000 NA
ENDBRANCH  19  20
ENDBRANCH  18  19
ENDBRANCH   4  18
TORSDOF 8
ENDMDL
MODEL 8
REMARK VINA RESULT:      -6.4      5.197      8.059
REMARK  Name = 
REMARK  9 active torsions:
REMARK  status: ('A' for Active; 'I' for Inactive)
REMARK    1  A    between atoms: C_1  and  C_2
REMARK    2  A    between atoms: N_5  and  C_6
REMARK    3  A    between atoms: C_6  and  C_7
REMARK    4  A    between atoms: C_7  and  N_8
REMARK    5  A    between atoms: N_8  and  C_9
REMARK    6  A    between atoms: C_9  and  C_10
REMARK    7  A    between atoms: C_13  and  O_14
REMARK    8  A    between atoms: O_14  and  C_15
REMARK    9  A    between atoms: C_15  and  C_16
REMARK                            x       y       z     vdW  Elec       q    Type
REMARK                         _______ _______ _______ _____ _____    ______ ____
ROOT
ATOM      1  C   UNL     1       2.794   6.789  19.250  0.00  0.00    +0.000 A 
ATOM      2  C   UNL     1       2.655   7.716  18.209  0.00  0.00    +0.000 A 
ATOM      3  C   UNL     1       1.867   8.848  18.373  0.00  0.00    +0.000 A 
ATOM      4  C   UNL     1       1.161   9.041  19.560  0.00  0.00    +0.000 A 
ATOM      5  C   UNL     1       1.305   8.133  20.608  0.00  0.00    +0.000 A 
ATOM      6  C   UNL     1       2.116   7.007  20.455  0.00  0.00    +0.000 A 
ENDROOT
BRANCH   1   7
ATOM      7  C   UNL     1       3.639   5.561  19.048  0.00  0.00    +0.000 C 
BRANCH   7   8
ATOM      8  N   UNL     1       3.469   5.023  17.697  0.00  0.00    +0.000 NA
ATOM      9  H   UNL     1       2.543   4.614  17.602  0.00  0.00    +0.000 HD
BRANCH   8  10
ATOM     10  C   UNL     1       4.495   4.033  17.363  0.00  0.00    +0.000 C 
BRANCH  10  11
ATOM     11  C   UNL     1       5.884   4.623  17.117  0.00  0.00    +0.000 C 
BRANCH  11  16
ATOM     12  C   UNL     1       6.138   3.391  12.280  0.00  0.00    +0.000 C 
ATOM     13  C   UNL     1       6.367   3.999  13.605  0.00  0.00    +0.000 A 
ATOM     14  C   UNL     1       7.328   4.968  13.965  0.00  0.00    +0.000 A 
ATOM     15  N   UNL     1       7.257   5.299  15.256  0.00  0.00    +0.000 NA
ATOM     16  N   UNL     1       6.252   4.544  15.721  0.00  0.00    +0.000 N 
ATOM     17  C   UNL     1       5.687   3.745  14.776  0.00  0.00    +0.000 A 
ENDBRANCH  11  16
ENDBRANCH  10  11
ENDBRANCH   8  10
ENDBRANCH   7   8
ENDBRANCH   1   7
BRANCH   4  18
ATOM     18  O   UNL     1       0.298  10.080  19.784  0.00  0.00    +0.000 OA
BRANCH  18  19
ATOM     19  C   UNL     1       0.060  10.900  18.631  0.00  0.00    +0.000 C 
BRANCH  19  20
ATOM     20  C   UNL     1      -1.351  10.817  18.149  0.00  0.00    +0.000 A 
ATOM     21  C   UNL     1      -2.428  11.573  18.571  0.00  0.00    +0.000 A 
ATOM     22  S   UNL     1      -3.853  11.074  17.759  0.00  0.00    +0.000 S 
ATOM     23  C   UNL     1      -2.935   9.902  16.911  0.00  0.00    +0.000 A 
ATOM     24  N   UNL     1      -1.651   9.861  17.186  0.00  0.00    +0.000 NA
ENDBRANCH  19  20
ENDBRANCH  18  19
ENDBRANCH   4  18
TORSDOF 8
ENDMDL
MODEL 9
REMARK VINA RESULT:      -6.4      4.750      6.543
REMARK  Name = 
REMARK  9 active torsions:
REMARK  status: ('A' for Active; 'I' for Inactive)
REMARK    1  A    between atoms: C_1  and  C_2
REMARK    2  A    between atoms: N_5  and  C_6
REMARK    3  A    between atoms: C_6  and  C_7
REMARK    4  A    between atoms: C_7  and  N_8
REMARK    5  A    between atoms: N_8  and  C_9
REMARK    6  A    between atoms: C_9  and  C_10
REMARK    7  A    between atoms: C_13  and  O_14
REMARK    8  A    between atoms: O_14  and  C_15
REMARK    9  A    between atoms: C_15  and  C_16
REMARK                            x       y       z     vdW  Elec       q    Type
REMARK                         _______ _______ _______ _____ _____    ______ ____
ROOT
ATOM      1  C   UNL     1       2.954   7.471  18.214  0.00  0.00    +0.000 A 
ATOM      2  C   UNL     1       2.651   7.006  19.500  0.00  0.00    +0.000 A 
ATOM      3  C   UNL     1       1.732   7.678  20.295  0.00  0.00    +0.000 A 
ATOM      4  C   UNL     1       1.144   8.857  19.837  0.00  0.00    +0.000 A 
ATOM      5  C   UNL     1       1.426   9.320  18.552  0.00  0.00    +0.000 A 
ATOM      6  C   UNL     1       2.331   8.632  17.742  0.00  0.00    +0.000 A 
ENDROOT
BRANCH   1   7
ATOM      7  C   UNL     1       3.964   6.737  17.374  0.00  0.00    +0.000 C 
BRANCH   7   8
ATOM      8  N   UNL     1       4.342   5.467  17.998  0.00  0.00    +0.000 NA
ATOM      9  H   UNL     1       5.165   5.598  18.578  0.00  0.00    +0.000 HD
BRANCH   8  10
ATOM     10  C   UNL     1       4.585   4.416  17.007  0.00  0.00    +0.000 C 
BRANCH  10  11
ATOM     11  C   UNL     1       4.009   3.050  17.383  0.00  0.00    +0.000 C 
BRANCH  11  16
ATOM     12  C   UNL     1       1.478   2.768  21.684  0.00  0.00    +0.000 C 
ATOM     13  C   UNL     1       1.889   3.038  20.292  0.00  0.00    +0.000 A 
ATOM     14  C   UNL     1       1.152   3.682  19.275  0.00  0.00    +0.000 A 
ATOM     15  N   UNL     1       1.831   3.760  18.128  0.00  0.00    +0.000 NA
ATOM     16  N   UNL     1       2.999   3.167  18.411  0.00  0.00    +0.000 N 
ATOM     17  C   UNL     1       3.086   2.715  19.691  0.00  0.00    +0.000 A 
ENDBRANCH  11  16
ENDBRANCH  10  11
ENDBRANCH   8  10
ENDBRANCH   7   8
ENDBRANCH   1   7
BRANCH   4  18
ATOM     18  O   UNL     1       0.291   9.632  20.577  0.00  0.00    +0.000 OA
BRANCH  18  19
ATOM     19  C   UNL     1       0.751  10.974  20.783  0.00  0.00    +0.000 C 
BRANCH  19  20
ATOM     20  C   UNL     1      -0.149  11.759  21.679  0.00  0.00    +0.000 A 
ATOM     21  C   UNL     1      -0.165  13.129  21.864  0.00  0.00    +0.000 A 
ATOM     22  S   UNL     1      -1.344  13.552  23.033  0.00  0.00    +0.000 S 
ATOM     23  C   UNL     1      -1.743  11.895  23.202  0.00  0.00    +0.000 A 
ATOM     24  N   UNL     1      -1.068  11.056  22.450  0.00  0.00    +0.000 NA
ENDBRANCH  19  20
ENDBRANCH  18  19
ENDBRANCH   4  18
TORSDOF 8
ENDMDL
