MODEL 1
REMARK VINA RESULT:      -6.6      0.000      0.000
REMARK  Name = 
REMARK  8 active torsions:
REMARK  status: ('A' for Active; 'I' for Inactive)
REMARK    1  A    between atoms: C_1  and  C_2
REMARK    2  A    between atoms: C_2  and  C_3
REMARK    3  A    between atoms: N_5  and  C_6
REMARK    4  A    between atoms: C_6  and  C_7
REMARK    5  A    between atoms: C_11  and  O_12
REMARK    6  A    between atoms: O_12  and  C_13
REMARK    7  A    between atoms: C_14  and  O_15
REMARK    8  A    between atoms: O_15  and  C_16
REMARK                            x       y       z     vdW  Elec       q    Type
REMARK                         _______ _______ _______ _____ _____    ______ ____
ROOT
ATOM      1  C   UNL     1       6.080   4.348  16.071  0.00  0.00    +0.000 A 
ATOM      2  C   UNL     1       4.755   3.927  16.184  0.00  0.00    +0.000 A 
ATOM      3  C   UNL     1       4.078   3.941  17.416  0.00  0.00    +0.000 A 
ATOM      4 BR   UNL     1       2.292   3.292  17.289  0.00  0.00    +0.000 Br
ATOM      5  C   UNL     1       4.734   4.399  18.573  0.00  0.00    +0.000 A 
ATOM      6  C   UNL     1       6.083   4.842  18.449  0.00  0.00    +0.000 A 
ATOM      7  C   UNL     1       6.736   4.816  17.210  0.00  0.00    +0.000 A 
ENDROOT
BRANCH   5   8
ATOM      8  O   UNL     1       4.272   4.497  19.857  0.00  0.00    +0.000 OA
ATOM      9  C   UNL     1       3.057   5.147  20.175  0.00  0.00    +0.000 C 
ENDBRANCH   5   8
BRANCH   6  10
ATOM     10  O   UNL     1       6.684   5.287  19.608  0.00  0.00    +0.000 OA
ATOM     11  C   UNL     1       8.033   5.731  19.529  0.00  0.00    +0.000 C 
ENDBRANCH   6  10
BRANCH   1  12
ATOM     12  C   UNL     1       6.777   4.319  14.740  0.00  0.00    +0.000 C 
BRANCH  12  15
ATOM     13  C   UNL     1       6.406   3.542  12.462  0.00  0.00    +0.000 C 
ATOM     14  O   UNL     1       7.250   4.314  12.021  0.00  0.00    +0.000 OA
ATOM     15  N   UNL     1       6.093   3.466  13.801  0.00  0.00    +0.000 N 
ATOM     16  H   UNL     1       5.390   2.816  14.129  0.00  0.00    +0.000 HD
BRANCH  13  18
ATOM     17  C   UNL     1       4.227   3.123  11.290  0.00  0.00    +0.000 C 
ATOM     18  C   UNL     1       5.613   2.580  11.600  0.00  0.00    +0.000 C 
ENDBRANCH  13  18
ENDBRANCH  12  15
ENDBRANCH   1  12
TORSDOF 5
ENDMDL
MODEL 2
REMARK VINA RESULT:      -6.5      2.459      2.994
REMARK  Name = 
REMARK  8 active torsions:
REMARK  status: ('A' for Active; 'I' for Inactive)
REMARK    1  A    between atoms: C_1  and  C_2
REMARK    2  A    between atoms: C_2  and  C_3
REMARK    3  A    between atoms: N_5  and  C_6
REMARK    4  A    between atoms: C_6  and  C_7
REMARK    5  A    between atoms: C_11  and  O_12
REMARK    6  A    between atoms: O_12  and  C_13
REMARK    7  A    between atoms: C_14  and  O_15
REMARK    8  A    between atoms: O_15  and  C_16
REMARK                            x       y       z     vdW  Elec       q    Type
REMARK                         _______ _______ _______ _____ _____    ______ ____
ROOT
ATOM      1  C   UNL     1       5.089   4.974  16.546  0.00  0.00    +0.000 A 
ATOM      2  C   UNL     1       4.424   6.090  17.054  0.00  0.00    +0.000 A 
ATOM      3  C   UNL     1       3.226   5.968  17.779  0.00  0.00    +0.000 A 
ATOM      4 BR   UNL     1       2.520   7.648  18.334  0.00  0.00    +0.000 Br
ATOM      5  C   UNL     1       2.675   4.696  18.019  0.00  0.00    +0.000 A 
ATOM      6  C   UNL     1       3.367   3.559  17.510  0.00  0.00    +0.000 A 
ATOM      7  C   UNL     1       4.559   3.707  16.789  0.00  0.00    +0.000 A 
ENDROOT
BRANCH   5   8
ATOM      8  O   UNL     1       1.535   4.351  18.692  0.00  0.00    +0.000 OA
ATOM      9  C   UNL     1       1.436   4.427  20.100  0.00  0.00    +0.000 C 
ENDBRANCH   5   8
BRANCH   6  10
ATOM     10  O   UNL     1       2.794   2.332  17.773  0.00  0.00    +0.000 OA
ATOM     11  C   UNL     1       3.533   1.408  18.562  0.00  0.00    +0.000 C 
ENDBRANCH   6  10
BRANCH   1  12
ATOM     12  C   UNL     1       6.367   5.137  15.772  0.00  0.00    +0.000 C 
BRANCH  12  15
ATOM     13  C   UNL     1       7.218   4.846  13.508  0.00  0.00    +0.000 C 
ATOM     14  O   UNL     1       8.141   5.626  13.715  0.00  0.00    +0.000 OA
ATOM     15  N   UNL     1       6.277   4.535  14.465  0.00  0.00    +0.000 N 
ATOM     16  H   UNL     1       5.528   3.887  14.259  0.00  0.00    +0.000 HD
BRANCH  13  18
ATOM     17  C   UNL     1       5.777   3.227  12.243  0.00  0.00    +0.000 C 
ATOM     18  C   UNL     1       6.999   4.130  12.191  0.00  0.00    +0.000 C 
ENDBRANCH  13  18
ENDBRANCH  12  15
ENDBRANCH   1  12
TORSDOF 5
ENDMDL
MODEL 3
REMARK VINA RESULT:      -6.5      3.615      5.198
REMARK  Name = 
REMARK  8 active torsions:
REMARK  status: ('A' for Active; 'I' for Inactive)
REMARK    1  A    between atoms: C_1  and  C_2
REMARK    2  A    between atoms: C_2  and  C_3
REMARK    3  A    between atoms: N_5  and  C_6
REMARK    4  A    between atoms: C_6  and  C_7
REMARK    5  A    between atoms: C_11  and  O_12
REMARK    6  A    between atoms: O_12  and  C_13
REMARK    7  A    between atoms: C_14  and  O_15
REMARK    8  A    between atoms: O_15  and  C_16
REMARK                            x       y       z     vdW  Elec       q    Type
REMARK                         _______ _______ _______ _____ _____    ______ ____
ROOT
ATOM      1  C   UNL     1       5.253   5.396  17.020  0.00  0.00    +0.000 A 
ATOM      2  C   UNL     1       4.445   6.405  17.545  0.00  0.00    +0.000 A 
ATOM      3  C   UNL     1       3.160   6.135  18.049  0.00  0.00    +0.000 A 
ATOM      4 BR   UNL     1       2.267   7.695  18.679  0.00  0.00    +0.000 Br
ATOM      5  C   UNL     1       2.666   4.818  18.043  0.00  0.00    +0.000 A 
ATOM      6  C   UNL     1       3.502   3.790  17.520  0.00  0.00    +0.000 A 
ATOM      7  C   UNL     1       4.777   4.085  17.022  0.00  0.00    +0.000 A 
ENDROOT
BRANCH   5   8
ATOM      8  O   UNL     1       1.462   4.336  18.478  0.00  0.00    +0.000 OA
ATOM      9  C   UNL     1       1.152   4.203  19.851  0.00  0.00    +0.000 C 
ENDBRANCH   5   8
BRANCH   6  10
ATOM     10  O   UNL     1       2.978   2.514  17.539  0.00  0.00    +0.000 OA
ATOM     11  C   UNL     1       3.578   1.561  18.409  0.00  0.00    +0.000 C 
ENDBRANCH   6  10
BRANCH   1  12
ATOM     12  C   UNL     1       6.621   5.718  16.487  0.00  0.00    +0.000 C 
BRANCH  12  15
ATOM     13  C   UNL     1       7.680   7.539  17.710  0.00  0.00    +0.000 C 
ATOM     14  O   UNL     1       8.098   6.769  18.568  0.00  0.00    +0.000 OA
ATOM     15  N   UNL     1       6.932   7.118  16.633  0.00  0.00    +0.000 N 
ATOM     16  H   UNL     1       6.603   7.781  15.943  0.00  0.00    +0.000 HD
BRANCH  13  18
ATOM     17  C   UNL     1       8.880   9.427  18.845  0.00  0.00    +0.000 C 
ATOM     18  C   UNL     1       7.934   9.032  17.723  0.00  0.00    +0.000 C 
ENDBRANCH  13  18
ENDBRANCH  12  15
ENDBRANCH   1  12
TORSDOF 5
ENDMDL
MODEL 4
REMARK VINA RESULT:      -6.4      1.831      2.830
REMARK  Name = 
REMARK  8 active torsions:
REMARK  status: ('A' for Active; 'I' for Inactive)
REMARK    1  A    between atoms: C_1  and  C_2
REMARK    2  A    between atoms: C_2  and  C_3
REMARK    3  A    between atoms: N_5  and  C_6
REMARK    4  A    between atoms: C_6  and  C_7
REMARK    5  A    between atoms: C_11  and  O_12
REMARK    6  A    between atoms: O_12  and  C_13
REMARK    7  A    between atoms: C_14  and  O_15
REMARK    8  A    between atoms: O_15  and  C_16
REMARK                            x       y       z     vdW  Elec       q    Type
REMARK                         _______ _______ _______ _____ _____    ______ ____
ROOT
ATOM      1  C   UNL     1       6.242   4.411  15.730  0.00  0.00    +0.000 A 
ATOM      2  C   UNL     1       6.994   4.910  16.793  0.00  0.00    +0.000 A 
ATOM      3  C   UNL     1       6.467   4.998  18.094  0.00  0.00    +0.000 A 
ATOM      4 BR   UNL     1       7.698   5.736  19.346  0.00  0.00    +0.000 Br
ATOM      5  C   UNL     1       5.153   4.565  18.350  0.00  0.00    +0.000 A 
ATOM      6  C   UNL     1       4.395   4.042  17.263  0.00  0.00    +0.000 A 
ATOM      7  C   UNL     1       4.942   3.967  15.976  0.00  0.00    +0.000 A 
ENDROOT
BRANCH   5   8
ATOM      8  O   UNL     1       4.450   4.559  19.524  0.00  0.00    +0.000 OA
ATOM      9  C   UNL     1       3.517   5.569  19.852  0.00  0.00    +0.000 C 
ENDBRANCH   5   8
BRANCH   6  10
ATOM     10  O   UNL     1       3.114   3.625  17.562  0.00  0.00    +0.000 OA
ATOM     11  C   UNL     1       2.884   2.228  17.698  0.00  0.00    +0.000 C 
ENDBRANCH   6  10
BRANCH   1  12
ATOM     12  C   UNL     1       6.833   4.332  14.351  0.00  0.00    +0.000 C 
BRANCH  12  15
ATOM     13  C   UNL     1       6.397   3.325  12.176  0.00  0.00    +0.000 C 
ATOM     14  O   UNL     1       7.209   4.064  11.630  0.00  0.00    +0.000 OA
ATOM     15  N   UNL     1       6.133   3.379  13.526  0.00  0.00    +0.000 N 
ATOM     16  H   UNL     1       5.455   2.754  13.944  0.00  0.00    +0.000 HD
BRANCH  13  18
ATOM     17  C   UNL     1       6.454   1.074  11.070  0.00  0.00    +0.000 C 
ATOM     18  C   UNL     1       5.593   2.270  11.444  0.00  0.00    +0.000 C 
ENDBRANCH  13  18
ENDBRANCH  12  15
ENDBRANCH   1  12
TORSDOF 5
ENDMDL
MODEL 5
REMARK VINA RESULT:      -6.3      2.617      3.862
REMARK  Name = 
REMARK  8 active torsions:
REMARK  status: ('A' for Active; 'I' for Inactive)
REMARK    1  A    between atoms: C_1  and  C_2
REMARK    2  A    between atoms: C_2  and  C_3
REMARK    3  A    between atoms: N_5  and  C_6
REMARK    4  A    between atoms: C_6  and  C_7
REMARK    5  A    between atoms: C_11  and  O_12
REMARK    6  A    between atoms: O_12  and  C_13
REMARK    7  A    between atoms: C_14  and  O_15
REMARK    8  A    between atoms: O_15  and  C_16
REMARK                            x       y       z     vdW  Elec       q    Type
REMARK                         _______ _______ _______ _____ _____    ______ ____
ROOT
ATOM      1  C   UNL     1       3.857   5.893  17.937  0.00  0.00    +0.000 A 
ATOM      2  C   UNL     1       3.676   4.517  17.799  0.00  0.00    +0.000 A 
ATOM      3  C   UNL     1       2.813   3.797  18.644  0.00  0.00    +0.000 A 
ATOM      4 BR   UNL     1       2.773   1.933  18.252  0.00  0.00    +0.000 Br
ATOM      5  C   UNL     1       2.095   4.468  19.651  0.00  0.00    +0.000 A 
ATOM      6  C   UNL     1       2.272   5.876  19.777  0.00  0.00    +0.000 A 
ATOM      7  C   UNL     1       3.140   6.569  18.924  0.00  0.00    +0.000 A 
ENDROOT
BRANCH   5   8
ATOM      8  O   UNL     1       1.212   3.971  20.571  0.00  0.00    +0.000 OA
ATOM      9  C   UNL     1       1.603   3.063  21.580  0.00  0.00    +0.000 C 
ENDBRANCH   5   8
BRANCH   6  10
ATOM     10  O   UNL     1       1.545   6.492  20.774  0.00  0.00    +0.000 OA
ATOM     11  C   UNL     1       1.487   7.913  20.774  0.00  0.00    +0.000 C 
ENDBRANCH   6  10
BRANCH   1  12
ATOM     12  C   UNL     1       4.789   6.633  17.020  0.00  0.00    +0.000 C 
BRANCH  12  15
ATOM     13  C   UNL     1       6.649   5.676  15.772  0.00  0.00    +0.000 C 
ATOM     14  O   UNL     1       7.467   6.285  16.452  0.00  0.00    +0.000 OA
ATOM     15  N   UNL     1       5.290   5.781  15.971  0.00  0.00    +0.000 N 
ATOM     16  H   UNL     1       4.643   5.264  15.390  0.00  0.00    +0.000 HD
BRANCH  13  18
ATOM     17  C   UNL     1       5.793   4.110  14.008  0.00  0.00    +0.000 C 
ATOM     18  C   UNL     1       7.024   4.738  14.642  0.00  0.00    +0.000 C 
ENDBRANCH  13  18
ENDBRANCH  12  15
ENDBRANCH   1  12
TORSDOF 5
ENDMDL
MODEL 6
REMARK VINA RESULT:      -6.3      2.666      3.528
REMARK  Name = 
REMARK  8 active torsions:
REMARK  status: ('A' for Active; 'I' for Inactive)
REMARK    1  A    between atoms: C_1  and  C_2
REMARK    2  A    between atoms: C_2  and  C_3
REMARK    3  A    between atoms: N_5  and  C_6
REMARK    4  A    between atoms: C_6  and  C_7
REMARK    5  A    between atoms: C_11  and  O_12
REMARK    6  A    between atoms: O_12  and  C_13
REMARK    7  A    between atoms: C_14  and  O_15
REMARK    8  A    between atoms: O_15  and  C_16
REMARK                            x       y       z     vdW  Elec       q    Type
REMARK                         _______ _______ _______ _____ _____    ______ ____
ROOT
ATOM      1  C   UNL     1       4.357   5.842  17.159  0.00  0.00    +0.000 A 
ATOM      2  C   UNL     1       3.693   6.656  18.077  0.00  0.00    +0.000 A 
ATOM      3  C   UNL     1       2.632   6.170  18.862  0.00  0.00    +0.000 A 
ATOM      4 BR   UNL     1       1.891   7.495  20.011  0.00  0.00    +0.000 Br
ATOM      5  C   UNL     1       2.226   4.828  18.740  0.00  0.00    +0.000 A 
ATOM      6  C   UNL     1       2.918   3.999  17.812  0.00  0.00    +0.000 A 
ATOM      7  C   UNL     1       3.970   4.508  17.040  0.00  0.00    +0.000 A 
ENDROOT
BRANCH   5   8
ATOM      8  O   UNL     1       1.232   4.155  19.397  0.00  0.00    +0.000 OA
ATOM      9  C   UNL     1       1.320   3.826  20.769  0.00  0.00    +0.000 C 
ENDBRANCH   5   8
BRANCH   6  10
ATOM     10  O   UNL     1       2.489   2.690  17.730  0.00  0.00    +0.000 OA
ATOM     11  C   UNL     1       3.351   1.675  18.227  0.00  0.00    +0.000 C 
ENDBRANCH   6  10
BRANCH   1  12
ATOM     12  C   UNL     1       5.486   6.392  16.333  0.00  0.00    +0.000 C 
BRANCH  12  15
ATOM     13  C   UNL     1       6.801   4.931  14.895  0.00  0.00    +0.000 C 
ATOM     14  O   UNL     1       7.710   4.880  15.716  0.00  0.00    +0.000 OA
ATOM     15  N   UNL     1       5.650   5.658  15.103  0.00  0.00    +0.000 N 
ATOM     16  H   UNL     1       4.920   5.679  14.403  0.00  0.00    +0.000 HD
BRANCH  13  18
ATOM     17  C   UNL     1       5.431   3.782  13.135  0.00  0.00    +0.000 C 
ATOM     18  C   UNL     1       6.826   4.207  13.564  0.00  0.00    +0.000 C 
ENDBRANCH  13  18
ENDBRANCH  12  15
ENDBRANCH   1  12
TORSDOF 5
ENDMDL
MODEL 7
REMARK VINA RESULT:      -6.3      1.991      2.484
REMARK  Name = 
REMARK  8 active torsions:
REMARK  status: ('A' for Active; 'I' for Inactive)
REMARK    1  A    between atoms: C_1  and  C_2
REMARK    2  A    between atoms: C_2  and  C_3
REMARK    3  A    between atoms: N_5  and  C_6
REMARK    4  A    between atoms: C_6  and  C_7
REMARK    5  A    between atoms: C_11  and  O_12
REMARK    6  A    between atoms: O_12  and  C_13
REMARK    7  A    between atoms: C_14  and  O_15
REMARK    8  A    between atoms: O_15  and  C_16
REMARK                            x       y       z     vdW  Elec       q    Type
REMARK                         _______ _______ _______ _____ _____    ______ ____
ROOT
ATOM      1  C   UNL     1       5.092   4.990  16.691  0.00  0.00    +0.000 A 
ATOM      2  C   UNL     1       4.498   3.777  17.041  0.00  0.00    +0.000 A 
ATOM      3  C   UNL     1       3.396   3.719  17.913  0.00  0.00    +0.000 A 
ATOM      4 BR   UNL     1       2.800   1.939  18.238  0.00  0.00    +0.000 Br
ATOM      5  C   UNL     1       2.858   4.904  18.446  0.00  0.00    +0.000 A 
ATOM      6  C   UNL     1       3.460   6.141  18.073  0.00  0.00    +0.000 A 
ATOM      7  C   UNL     1       4.558   6.172  17.204  0.00  0.00    +0.000 A 
ENDROOT
BRANCH   5   8
ATOM      8  O   UNL     1       1.804   5.077  19.300  0.00  0.00    +0.000 OA
ATOM      9  C   UNL     1       1.871   4.720  20.666  0.00  0.00    +0.000 C 
ENDBRANCH   5   8
BRANCH   6  10
ATOM     10  O   UNL     1       2.897   7.277  18.615  0.00  0.00    +0.000 OA
ATOM     11  C   UNL     1       2.489   8.308  17.724  0.00  0.00    +0.000 C 
ENDBRANCH   6  10
BRANCH   1  12
ATOM     12  C   UNL     1       6.270   5.019  15.759  0.00  0.00    +0.000 C 
BRANCH  12  15
ATOM     13  C   UNL     1       6.754   4.444  13.442  0.00  0.00    +0.000 C 
ATOM     14  O   UNL     1       7.572   5.353  13.349  0.00  0.00    +0.000 OA
ATOM     15  N   UNL     1       6.048   4.194  14.597  0.00  0.00    +0.000 N 
ATOM     16  H   UNL     1       5.380   3.435  14.639  0.00  0.00    +0.000 HD
BRANCH  13  18
ATOM     17  C   UNL     1       4.923   3.414  12.070  0.00  0.00    +0.000 C 
ATOM     18  C   UNL     1       6.422   3.491  12.312  0.00  0.00    +0.000 C 
ENDBRANCH  13  18
ENDBRANCH  12  15
ENDBRANCH   1  12
TORSDOF 5
ENDMDL
MODEL 8
REMARK VINA RESULT:      -6.2      3.222      5.898
REMARK  Name = 
REMARK  8 active torsions:
REMARK  status: ('A' for Active; 'I' for Inactive)
REMARK    1  A    between atoms: C_1  and  C_2
REMARK    2  A    between atoms: C_2  and  C_3
REMARK    3  A    between atoms: N_5  and  C_6
REMARK    4  A    between atoms: C_6  and  C_7
REMARK    5  A    between atoms: C_11  and  O_12
REMARK    6  A    between atoms: O_12  and  C_13
REMARK    7  A    between atoms: C_14  and  O_15
REMARK    8  A    between atoms: O_15  and  C_16
REMARK                            x       y       z     vdW  Elec       q    Type
REMARK                         _______ _______ _______ _____ _____    ______ ____
ROOT
ATOM      1  C   UNL     1       3.996   3.779  17.343  0.00  0.00    +0.000 A 
ATOM      2  C   UNL     1       3.468   5.033  17.649  0.00  0.00    +0.000 A 
ATOM      3  C   UNL     1       4.166   6.219  17.361  0.00  0.00    +0.000 A 
ATOM      4 BR   UNL     1       3.228   7.785  17.906  0.00  0.00    +0.000 Br
ATOM      5  C   UNL     1       5.426   6.159  16.737  0.00  0.00    +0.000 A 
ATOM      6  C   UNL     1       5.953   4.876  16.413  0.00  0.00    +0.000 A 
ATOM      7  C   UNL     1       5.238   3.709  16.712  0.00  0.00    +0.000 A 
ENDROOT
BRANCH   5   8
ATOM      8  O   UNL     1       6.267   7.173  16.371  0.00  0.00    +0.000 OA
ATOM      9  C   UNL     1       7.168   7.774  17.279  0.00  0.00    +0.000 C 
ENDBRANCH   5   8
BRANCH   6  10
ATOM     10  O   UNL     1       7.188   4.865  15.798  0.00  0.00    +0.000 OA
ATOM     11  C   UNL     1       7.225   4.738  14.382  0.00  0.00    +0.000 C 
ENDBRANCH   6  10
BRANCH   1  12
ATOM     12  C   UNL     1       3.226   2.530  17.665  0.00  0.00    +0.000 C 
BRANCH  12  15
ATOM     13  C   UNL     1       1.429   2.579  19.310  0.00  0.00    +0.000 C 
ATOM     14  O   UNL     1       0.576   2.643  18.431  0.00  0.00    +0.000 OA
ATOM     15  N   UNL     1       2.777   2.521  19.036  0.00  0.00    +0.000 N 
ATOM     16  H   UNL     1       3.454   2.469  19.786  0.00  0.00    +0.000 HD
BRANCH  13  18
ATOM     17  C   UNL     1       2.213   3.205  21.609  0.00  0.00    +0.000 C 
ATOM     18  C   UNL     1       1.111   2.552  20.791  0.00  0.00    +0.000 C 
ENDBRANCH  13  18
ENDBRANCH  12  15
ENDBRANCH   1  12
TORSDOF 5
ENDMDL
MODEL 9
REMARK VINA RESULT:      -6.2      2.372      3.053
REMARK  Name = 
REMARK  8 active torsions:
REMARK  status: ('A' for Active; 'I' for Inactive)
REMARK    1  A    between atoms: C_1  and  C_2
REMARK    2  A    between atoms: C_2  and  C_3
REMARK    3  A    between atoms: N_5  and  C_6
REMARK    4  A    between atoms: C_6  and  C_7
REMARK    5  A    between atoms: C_11  and  O_12
REMARK    6  A    between atoms: O_12  and  C_13
REMARK    7  A    between atoms: C_14  and  O_15
REMARK    8  A    between atoms: O_15  and  C_16
REMARK                            x       y       z     vdW  Elec       q    Type
REMARK                         _______ _______ _______ _____ _____    ______ ____
ROOT
ATOM      1  C   UNL     1       4.404   5.546  17.198  0.00  0.00    +0.000 A 
ATOM      2  C   UNL     1       4.102   4.198  17.392  0.00  0.00    +0.000 A 
ATOM      3  C   UNL     1       3.223   3.776  18.405  0.00  0.00    +0.000 A 
ATOM      4 BR   UNL     1       3.009   1.884  18.461  0.00  0.00    +0.000 Br
ATOM      5  C   UNL     1       2.614   4.725  19.246  0.00  0.00    +0.000 A 
ATOM      6  C   UNL     1       2.914   6.101  19.034  0.00  0.00    +0.000 A 
ATOM      7  C   UNL     1       3.795   6.495  18.019  0.00  0.00    +0.000 A 
ENDROOT
BRANCH   5   8
ATOM      8  O   UNL     1       1.738   4.538  20.281  0.00  0.00    +0.000 OA
ATOM      9  C   UNL     1       2.100   3.854  21.464  0.00  0.00    +0.000 C 
ENDBRANCH   5   8
BRANCH   6  10
ATOM     10  O   UNL     1       2.291   6.995  19.879  0.00  0.00    +0.000 OA
ATOM     11  C   UNL     1       1.858   8.236  19.334  0.00  0.00    +0.000 C 
ENDBRANCH   6  10
BRANCH   1  12
ATOM     12  C   UNL     1       5.349   5.965  16.108  0.00  0.00    +0.000 C 
BRANCH  12  15
ATOM     13  C   UNL     1       6.519   4.770  14.336  0.00  0.00    +0.000 C 
ATOM     14  O   UNL     1       7.581   5.314  14.620  0.00  0.00    +0.000 OA
ATOM     15  N   UNL     1       5.347   5.027  15.013  0.00  0.00    +0.000 N 
ATOM     16  H   UNL     1       4.488   4.560  14.752  0.00  0.00    +0.000 HD
BRANCH  13  18
ATOM     17  C   UNL     1       7.140   4.171  11.981  0.00  0.00    +0.000 C 
ATOM     18  C   UNL     1       6.363   3.758  13.220  0.00  0.00    +0.000 C 
ENDBRANCH  13  18
ENDBRANCH  12  15
ENDBRANCH   1  12
TORSDOF 5
ENDMDL
