MODEL 1
REMARK VINA RESULT:      -8.3      0.000      0.000
REMARK  Name = 
REMARK  5 active torsions:
REMARK  status: ('A' for Active; 'I' for Inactive)
REMARK    1  A    between atoms: N_3  and  C_4
REMARK    2  A    between atoms: C_4  and  C_5
REMARK    3  A    between atoms: N_7  and  C_8
REMARK    4  A    between atoms: C_11  and  C_12
REMARK    5  A    between atoms: C_14  and  C_15
REMARK                            x       y       z     vdW  Elec       q    Type
REMARK                         _______ _______ _______ _____ _____    ______ ____
ROOT
ATOM      1  C   UNL     1       0.607  10.582  18.819  0.00  0.00    +0.000 A 
ATOM      2  C   UNL     1       0.546   9.917  20.041  0.00  0.00    +0.000 A 
ATOM      3  C   UNL     1       1.156   8.668  20.209  0.00  0.00    +0.000 A 
ATOM      4  C   UNL     1       1.850   8.038  19.163  0.00  0.00    +0.000 A 
ATOM      5  C   UNL     1       1.916   8.732  17.939  0.00  0.00    +0.000 A 
ATOM      6  C   UNL     1       1.297   9.980  17.764  0.00  0.00    +0.000 A 
ENDROOT
BRANCH   4   7
ATOM      7  C   UNL     1       2.459   6.702  19.344  0.00  0.00    +0.000 A 
ATOM      8  N   UNL     1       3.521   6.400  18.571  0.00  0.00    +0.000 NA
ATOM      9  C   UNL     1       4.117   5.205  18.732  0.00  0.00    +0.000 A 
ATOM     10  C   UNL     1       3.630   4.310  19.675  0.00  0.00    +0.000 A 
ATOM     11  S   UNL     1       4.148   2.730  20.123  0.00  0.00    +0.000 S 
ATOM     12  C   UNL     1       2.913   2.574  21.290  0.00  0.00    +0.000 A 
ATOM     13  C   UNL     1       2.120   3.696  21.352  0.00  0.00    +0.000 A 
ATOM     14  C   UNL     1       2.526   4.701  20.427  0.00  0.00    +0.000 A 
ATOM     15  N   UNL     1       1.921   5.903  20.277  0.00  0.00    +0.000 NA
BRANCH   9  16
ATOM     16  C   UNL     1       5.254   4.874  17.880  0.00  0.00    +0.000 C 
ATOM     17  C   UNL     1       5.091   4.327  16.663  0.00  0.00    +0.000 C 
ATOM     18  C   UNL     1       6.252   4.042  15.755  0.00  0.00    +0.000 C 
ATOM     19  O   UNL     1       7.445   4.709  16.181  0.00  0.00    +0.000 OA
ATOM     20  C   UNL     1       7.705   4.493  17.570  0.00  0.00    +0.000 C 
ATOM     21  C   UNL     1       6.626   5.165  18.421  0.00  0.00    +0.000 C 
ENDBRANCH   9  16
ENDBRANCH   4   7
BRANCH   1  25
ATOM     22  O   UNL     1       1.680  13.303  19.151  0.00  0.00    +0.000 OA
ATOM     23  C   UNL     1       0.524  13.063  18.821  0.00  0.00    +0.000 C 
ATOM     24  N   UNL     1      -0.392  14.068  18.599  0.00  0.00    +0.000 N 
ATOM     25  N   UNL     1      -0.021  11.822  18.586  0.00  0.00    +0.000 N 
ATOM     26  H   UNL     1      -1.354  13.835  18.806  0.00  0.00    +0.000 HD
ATOM     27  H   UNL     1      -0.874  11.813  18.046  0.00  0.00    +0.000 HD
BRANCH  24  28
ATOM     28  C   UNL     1      -0.013  15.449  18.862  0.00  0.00    +0.000 C 
BRANCH  28  29
ATOM     29  C   UNL     1      -0.525  15.926  20.210  0.00  0.00    +0.000 C 
ATOM     30  F   UNL     1       0.330  15.505  21.183  0.00  0.00    +0.000 F 
ENDBRANCH  28  29
ENDBRANCH  24  28
ENDBRANCH   1  25
TORSDOF 5
ENDMDL
MODEL 2
REMARK VINA RESULT:      -8.2      0.761      1.224
REMARK  Name = 
REMARK  5 active torsions:
REMARK  status: ('A' for Active; 'I' for Inactive)
REMARK    1  A    between atoms: N_3  and  C_4
REMARK    2  A    between atoms: C_4  and  C_5
REMARK    3  A    between atoms: N_7  and  C_8
REMARK    4  A    between atoms: C_11  and  C_12
REMARK    5  A    between atoms: C_14  and  C_15
REMARK                            x       y       z     vdW  Elec       q    Type
REMARK                         _______ _______ _______ _____ _____    ______ ____
ROOT
ATOM      1  C   UNL     1       0.824  10.652  18.845  0.00  0.00    +0.000 A 
ATOM      2  C   UNL     1       1.529  10.038  17.813  0.00  0.00    +0.000 A 
ATOM      3  C   UNL     1       2.058   8.751  17.973  0.00  0.00    +0.000 A 
ATOM      4  C   UNL     1       1.903   8.032  19.169  0.00  0.00    +0.000 A 
ATOM      5  C   UNL     1       1.172   8.660  20.196  0.00  0.00    +0.000 A 
ATOM      6  C   UNL     1       0.648   9.954  20.043  0.00  0.00    +0.000 A 
ENDROOT
BRANCH   4   7
ATOM      7  C   UNL     1       2.497   6.687  19.336  0.00  0.00    +0.000 A 
ATOM      8  N   UNL     1       3.551   6.378  18.555  0.00  0.00    +0.000 NA
ATOM      9  C   UNL     1       4.134   5.175  18.704  0.00  0.00    +0.000 A 
ATOM     10  C   UNL     1       3.641   4.279  19.643  0.00  0.00    +0.000 A 
ATOM     11  S   UNL     1       4.143   2.690  20.076  0.00  0.00    +0.000 S 
ATOM     12  C   UNL     1       2.913   2.540  21.250  0.00  0.00    +0.000 A 
ATOM     13  C   UNL     1       2.134   3.671  21.325  0.00  0.00    +0.000 A 
ATOM     14  C   UNL     1       2.547   4.678  20.404  0.00  0.00    +0.000 A 
ATOM     15  N   UNL     1       1.955   5.888  20.267  0.00  0.00    +0.000 NA
BRANCH   9  16
ATOM     16  C   UNL     1       5.261   4.837  17.842  0.00  0.00    +0.000 C 
ATOM     17  C   UNL     1       5.085   4.279  16.632  0.00  0.00    +0.000 C 
ATOM     18  C   UNL     1       6.236   3.985  15.714  0.00  0.00    +0.000 C 
ATOM     19  O   UNL     1       7.433   4.657  16.121  0.00  0.00    +0.000 OA
ATOM     20  C   UNL     1       7.709   4.454  17.509  0.00  0.00    +0.000 C 
ATOM     21  C   UNL     1       6.638   5.133  18.365  0.00  0.00    +0.000 C 
ENDBRANCH   9  16
ENDBRANCH   4   7
BRANCH   1  25
ATOM     22  O   UNL     1       2.065  13.208  19.610  0.00  0.00    +0.000 OA
ATOM     23  C   UNL     1       0.920  13.109  19.186  0.00  0.00    +0.000 C 
ATOM     24  N   UNL     1       0.096  14.205  19.054  0.00  0.00    +0.000 N 
ATOM     25  N   UNL     1       0.304  11.959  18.751  0.00  0.00    +0.000 N 
ATOM     26  H   UNL     1      -0.892  14.025  19.171  0.00  0.00    +0.000 HD
ATOM     27  H   UNL     1      -0.509  12.091  18.167  0.00  0.00    +0.000 HD
BRANCH  24  28
ATOM     28  C   UNL     1       0.555  15.504  19.526  0.00  0.00    +0.000 C 
BRANCH  28  29
ATOM     29  C   UNL     1       0.494  16.555  18.433  0.00  0.00    +0.000 C 
ATOM     30  F   UNL     1      -0.811  16.846  18.170  0.00  0.00    +0.000 F 
ENDBRANCH  28  29
ENDBRANCH  24  28
ENDBRANCH   1  25
TORSDOF 5
ENDMDL
MODEL 3
REMARK VINA RESULT:      -8.0      1.059      1.439
REMARK  Name = 
REMARK  5 active torsions:
REMARK  status: ('A' for Active; 'I' for Inactive)
REMARK    1  A    between atoms: N_3  and  C_4
REMARK    2  A    between atoms: C_4  and  C_5
REMARK    3  A    between atoms: N_7  and  C_8
REMARK    4  A    between atoms: C_11  and  C_12
REMARK    5  A    between atoms: C_14  and  C_15
REMARK                            x       y       z     vdW  Elec       q    Type
REMARK                         _______ _______ _______ _____ _____    ______ ____
ROOT
ATOM      1  C   UNL     1       0.661  10.590  19.713  0.00  0.00    +0.000 A 
ATOM      2  C   UNL     1       1.289  10.072  18.583  0.00  0.00    +0.000 A 
ATOM      3  C   UNL     1       1.832   8.782  18.592  0.00  0.00    +0.000 A 
ATOM      4  C   UNL     1       1.769   7.962  19.730  0.00  0.00    +0.000 A 
ATOM      5  C   UNL     1       1.116   8.494  20.859  0.00  0.00    +0.000 A 
ATOM      6  C   UNL     1       0.578   9.791  20.856  0.00  0.00    +0.000 A 
ENDROOT
BRANCH   4   7
ATOM      7  C   UNL     1       2.378   6.613  19.737  0.00  0.00    +0.000 A 
ATOM      8  N   UNL     1       3.430   6.409  18.920  0.00  0.00    +0.000 NA
ATOM      9  C   UNL     1       4.026   5.203  18.926  0.00  0.00    +0.000 A 
ATOM     10  C   UNL     1       3.548   4.199  19.757  0.00  0.00    +0.000 A 
ATOM     11  S   UNL     1       4.069   2.575  20.000  0.00  0.00    +0.000 S 
ATOM     12  C   UNL     1       2.848   2.277  21.154  0.00  0.00    +0.000 A 
ATOM     13  C   UNL     1       2.058   3.383  21.363  0.00  0.00    +0.000 A 
ATOM     14  C   UNL     1       2.454   4.494  20.564  0.00  0.00    +0.000 A 
ATOM     15  N   UNL     1       1.850   5.705  20.571  0.00  0.00    +0.000 NA
BRANCH   9  16
ATOM     16  C   UNL     1       5.152   4.979  18.025  0.00  0.00    +0.000 C 
ATOM     17  C   UNL     1       4.973   4.606  16.746  0.00  0.00    +0.000 C 
ATOM     18  C   UNL     1       6.123   4.435  15.798  0.00  0.00    +0.000 C 
ATOM     19  O   UNL     1       7.327   5.024  16.299  0.00  0.00    +0.000 OA
ATOM     20  C   UNL     1       7.596   4.618  17.643  0.00  0.00    +0.000 C 
ATOM     21  C   UNL     1       6.531   5.179  18.588  0.00  0.00    +0.000 C 
ENDBRANCH   9  16
ENDBRANCH   4   7
BRANCH   1  25
ATOM     22  O   UNL     1       1.639  12.932  21.203  0.00  0.00    +0.000 OA
ATOM     23  C   UNL     1       0.610  12.930  20.539  0.00  0.00    +0.000 C 
ATOM     24  N   UNL     1      -0.203  14.039  20.455  0.00  0.00    +0.000 N 
ATOM     25  N   UNL     1       0.131  11.895  19.769  0.00  0.00    +0.000 N 
ATOM     26  H   UNL     1      -1.188  13.850  20.327  0.00  0.00    +0.000 HD
ATOM     27  H   UNL     1      -0.548  12.148  19.067  0.00  0.00    +0.000 HD
BRANCH  24  28
ATOM     28  C   UNL     1       0.109  15.215  21.257  0.00  0.00    +0.000 C 
BRANCH  28  29
ATOM     29  C   UNL     1      -0.797  15.325  22.470  0.00  0.00    +0.000 C 
ATOM     30  F   UNL     1      -0.539  14.284  23.312  0.00  0.00    +0.000 F 
ENDBRANCH  28  29
ENDBRANCH  24  28
ENDBRANCH   1  25
TORSDOF 5
ENDMDL
MODEL 4
REMARK VINA RESULT:      -8.0      0.884      1.301
REMARK  Name = 
REMARK  5 active torsions:
REMARK  status: ('A' for Active; 'I' for Inactive)
REMARK    1  A    between atoms: N_3  and  C_4
REMARK    2  A    between atoms: C_4  and  C_5
REMARK    3  A    between atoms: N_7  and  C_8
REMARK    4  A    between atoms: C_11  and  C_12
REMARK    5  A    between atoms: C_14  and  C_15
REMARK                            x       y       z     vdW  Elec       q    Type
REMARK                         _______ _______ _______ _____ _____    ______ ____
ROOT
ATOM      1  C   UNL     1       0.601  10.632  18.873  0.00  0.00    +0.000 A 
ATOM      2  C   UNL     1       0.458   9.924  20.064  0.00  0.00    +0.000 A 
ATOM      3  C   UNL     1       1.076   8.680  20.237  0.00  0.00    +0.000 A 
ATOM      4  C   UNL     1       1.860   8.097  19.229  0.00  0.00    +0.000 A 
ATOM      5  C   UNL     1       2.009   8.833  18.037  0.00  0.00    +0.000 A 
ATOM      6  C   UNL     1       1.382  10.077  17.856  0.00  0.00    +0.000 A 
ENDROOT
BRANCH   4   7
ATOM      7  C   UNL     1       2.478   6.766  19.412  0.00  0.00    +0.000 A 
ATOM      8  N   UNL     1       3.647   6.537  18.782  0.00  0.00    +0.000 NA
ATOM      9  C   UNL     1       4.250   5.347  18.954  0.00  0.00    +0.000 A 
ATOM     10  C   UNL     1       3.661   4.383  19.760  0.00  0.00    +0.000 A 
ATOM     11  S   UNL     1       4.159   2.788  20.179  0.00  0.00    +0.000 S 
ATOM     12  C   UNL     1       2.776   2.530  21.146  0.00  0.00    +0.000 A 
ATOM     13  C   UNL     1       1.949   3.629  21.163  0.00  0.00    +0.000 A 
ATOM     14  C   UNL     1       2.451   4.700  20.369  0.00  0.00    +0.000 A 
ATOM     15  N   UNL     1       1.838   5.896  20.208  0.00  0.00    +0.000 NA
BRANCH   9  16
ATOM     16  C   UNL     1       5.506   5.097  18.254  0.00  0.00    +0.000 C 
ATOM     17  C   UNL     1       6.696   5.234  18.864  0.00  0.00    +0.000 C 
ATOM     18  C   UNL     1       7.988   4.918  18.169  0.00  0.00    +0.000 C 
ATOM     19  O   UNL     1       7.785   4.165  16.969  0.00  0.00    +0.000 OA
ATOM     20  C   UNL     1       6.787   4.757  16.135  0.00  0.00    +0.000 C 
ATOM     21  C   UNL     1       5.417   4.682  16.812  0.00  0.00    +0.000 C 
ENDBRANCH   9  16
ENDBRANCH   4   7
BRANCH   1  25
ATOM     22  O   UNL     1       1.196  13.277  20.018  0.00  0.00    +0.000 OA
ATOM     23  C   UNL     1       0.264  13.062  19.252  0.00  0.00    +0.000 C 
ATOM     24  N   UNL     1      -0.614  14.056  18.877  0.00  0.00    +0.000 N 
ATOM     25  N   UNL     1      -0.030  11.870  18.632  0.00  0.00    +0.000 N 
ATOM     26  H   UNL     1      -1.556  13.751  18.674  0.00  0.00    +0.000 HD
ATOM     27  H   UNL     1      -0.629  11.932  17.823  0.00  0.00    +0.000 HD
BRANCH  24  28
ATOM     28  C   UNL     1      -0.500  15.374  19.485  0.00  0.00    +0.000 C 
BRANCH  28  29
ATOM     29  C   UNL     1       0.158  16.371  18.547  0.00  0.00    +0.000 C 
ATOM     30  F   UNL     1      -0.791  16.896  17.722  0.00  0.00    +0.000 F 
ENDBRANCH  28  29
ENDBRANCH  24  28
ENDBRANCH   1  25
TORSDOF 5
ENDMDL
MODEL 5
REMARK VINA RESULT:      -7.9      1.000      1.036
REMARK  Name = 
REMARK  5 active torsions:
REMARK  status: ('A' for Active; 'I' for Inactive)
REMARK    1  A    between atoms: N_3  and  C_4
REMARK    2  A    between atoms: C_4  and  C_5
REMARK    3  A    between atoms: N_7  and  C_8
REMARK    4  A    between atoms: C_11  and  C_12
REMARK    5  A    between atoms: C_14  and  C_15
REMARK                            x       y       z     vdW  Elec       q    Type
REMARK                         _______ _______ _______ _____ _____    ______ ____
ROOT
ATOM      1  C   UNL     1       0.650  10.524  19.699  0.00  0.00    +0.000 A 
ATOM      2  C   UNL     1       0.580   9.722  20.835  0.00  0.00    +0.000 A 
ATOM      3  C   UNL     1       1.165   8.451  20.853  0.00  0.00    +0.000 A 
ATOM      4  C   UNL     1       1.843   7.933  19.737  0.00  0.00    +0.000 A 
ATOM      5  C   UNL     1       1.920   8.764  18.602  0.00  0.00    +0.000 A 
ATOM      6  C   UNL     1       1.325  10.036  18.577  0.00  0.00    +0.000 A 
ENDROOT
BRANCH   4   7
ATOM      7  C   UNL     1       2.427   6.574  19.758  0.00  0.00    +0.000 A 
ATOM      8  N   UNL     1       3.475   6.341  18.944  0.00  0.00    +0.000 NA
ATOM      9  C   UNL     1       4.048   5.124  18.962  0.00  0.00    +0.000 A 
ATOM     10  C   UNL     1       3.551   4.138  19.802  0.00  0.00    +0.000 A 
ATOM     11  S   UNL     1       4.040   2.507  20.061  0.00  0.00    +0.000 S 
ATOM     12  C   UNL     1       2.812   2.243  21.217  0.00  0.00    +0.000 A 
ATOM     13  C   UNL     1       2.043   3.366  21.416  0.00  0.00    +0.000 A 
ATOM     14  C   UNL     1       2.462   4.462  20.606  0.00  0.00    +0.000 A 
ATOM     15  N   UNL     1       1.881   5.684  20.600  0.00  0.00    +0.000 NA
BRANCH   9  16
ATOM     16  C   UNL     1       5.170   4.871  18.064  0.00  0.00    +0.000 C 
ATOM     17  C   UNL     1       4.990   4.368  16.831  0.00  0.00    +0.000 C 
ATOM     18  C   UNL     1       6.133   4.162  15.880  0.00  0.00    +0.000 C 
ATOM     19  O   UNL     1       7.313   4.856  16.298  0.00  0.00    +0.000 OA
ATOM     20  C   UNL     1       7.622   4.594  17.669  0.00  0.00    +0.000 C 
ATOM     21  C   UNL     1       6.545   5.191  18.577  0.00  0.00    +0.000 C 
ENDBRANCH   9  16
ENDBRANCH   4   7
BRANCH   1  25
ATOM     22  O   UNL     1       1.281  12.986  21.182  0.00  0.00    +0.000 OA
ATOM     23  C   UNL     1       0.355  12.891  20.386  0.00  0.00    +0.000 C 
ATOM     24  N   UNL     1      -0.500  13.942  20.136  0.00  0.00    +0.000 N 
ATOM     25  N   UNL     1       0.046  11.795  19.614  0.00  0.00    +0.000 N 
ATOM     26  H   UNL     1      -1.445  13.686  19.886  0.00  0.00    +0.000 HD
ATOM     27  H   UNL     1      -0.543  11.974  18.815  0.00  0.00    +0.000 HD
BRANCH  24  28
ATOM     28  C   UNL     1      -0.367  15.169  20.910  0.00  0.00    +0.000 C 
BRANCH  28  29
ATOM     29  C   UNL     1      -1.707  15.646  21.442  0.00  0.00    +0.000 C 
ATOM     30  F   UNL     1      -2.018  14.934  22.561  0.00  0.00    +0.000 F 
ENDBRANCH  28  29
ENDBRANCH  24  28
ENDBRANCH   1  25
TORSDOF 5
ENDMDL
MODEL 6
REMARK VINA RESULT:      -7.8      0.917      1.579
REMARK  Name = 
REMARK  5 active torsions:
REMARK  status: ('A' for Active; 'I' for Inactive)
REMARK    1  A    between atoms: N_3  and  C_4
REMARK    2  A    between atoms: C_4  and  C_5
REMARK    3  A    between atoms: N_7  and  C_8
REMARK    4  A    between atoms: C_11  and  C_12
REMARK    5  A    between atoms: C_14  and  C_15
REMARK                            x       y       z     vdW  Elec       q    Type
REMARK                         _______ _______ _______ _____ _____    ______ ____
ROOT
ATOM      1  C   UNL     1       0.744  10.575  18.958  0.00  0.00    +0.000 A 
ATOM      2  C   UNL     1       1.356   9.927  17.888  0.00  0.00    +0.000 A 
ATOM      3  C   UNL     1       1.914   8.653  18.046  0.00  0.00    +0.000 A 
ATOM      4  C   UNL     1       1.882   7.979  19.278  0.00  0.00    +0.000 A 
ATOM      5  C   UNL     1       1.244   8.641  20.345  0.00  0.00    +0.000 A 
ATOM      6  C   UNL     1       0.691   9.924  20.193  0.00  0.00    +0.000 A 
ENDROOT
BRANCH   4   7
ATOM      7  C   UNL     1       2.507   6.648  19.439  0.00  0.00    +0.000 A 
ATOM      8  N   UNL     1       3.676   6.435  18.803  0.00  0.00    +0.000 NA
ATOM      9  C   UNL     1       4.285   5.245  18.954  0.00  0.00    +0.000 A 
ATOM     10  C   UNL     1       3.703   4.266  19.747  0.00  0.00    +0.000 A 
ATOM     11  S   UNL     1       4.209   2.667  20.140  0.00  0.00    +0.000 S 
ATOM     12  C   UNL     1       2.830   2.388  21.106  0.00  0.00    +0.000 A 
ATOM     13  C   UNL     1       1.997   3.482  21.142  0.00  0.00    +0.000 A 
ATOM     14  C   UNL     1       2.492   4.568  20.363  0.00  0.00    +0.000 A 
ATOM     15  N   UNL     1       1.873   5.763  20.223  0.00  0.00    +0.000 NA
BRANCH   9  16
ATOM     16  C   UNL     1       5.540   5.012  18.248  0.00  0.00    +0.000 C 
ATOM     17  C   UNL     1       6.731   5.247  18.824  0.00  0.00    +0.000 C 
ATOM     18  C   UNL     1       8.026   4.951  18.127  0.00  0.00    +0.000 C 
ATOM     19  O   UNL     1       7.842   4.112  16.982  0.00  0.00    +0.000 OA
ATOM     20  C   UNL     1       6.802   4.599  16.130  0.00  0.00    +0.000 C 
ATOM     21  C   UNL     1       5.449   4.500  16.838  0.00  0.00    +0.000 C 
ENDBRANCH   9  16
ENDBRANCH   4   7
BRANCH   1  25
ATOM     22  O   UNL     1       2.129  13.157  18.677  0.00  0.00    +0.000 OA
ATOM     23  C   UNL     1       0.915  13.046  18.794  0.00  0.00    +0.000 C 
ATOM     24  N   UNL     1       0.085  14.145  18.829  0.00  0.00    +0.000 N 
ATOM     25  N   UNL     1       0.200  11.873  18.863  0.00  0.00    +0.000 N 
ATOM     26  H   UNL     1      -0.758  14.039  19.378  0.00  0.00    +0.000 HD
ATOM     27  H   UNL     1      -0.785  11.946  18.660  0.00  0.00    +0.000 HD
BRANCH  24  28
ATOM     28  C   UNL     1       0.668  15.480  18.833  0.00  0.00    +0.000 C 
BRANCH  28  29
ATOM     29  C   UNL     1      -0.347  16.539  18.443  0.00  0.00    +0.000 C 
ATOM     30  F   UNL     1       0.314  17.636  17.977  0.00  0.00    +0.000 F 
ENDBRANCH  28  29
ENDBRANCH  24  28
ENDBRANCH   1  25
TORSDOF 5
ENDMDL
MODEL 7
REMARK VINA RESULT:      -7.8      1.031      1.042
REMARK  Name = 
REMARK  5 active torsions:
REMARK  status: ('A' for Active; 'I' for Inactive)
REMARK    1  A    between atoms: N_3  and  C_4
REMARK    2  A    between atoms: C_4  and  C_5
REMARK    3  A    between atoms: N_7  and  C_8
REMARK    4  A    between atoms: C_11  and  C_12
REMARK    5  A    between atoms: C_14  and  C_15
REMARK                            x       y       z     vdW  Elec       q    Type
REMARK                         _______ _______ _______ _____ _____    ______ ____
ROOT
ATOM      1  C   UNL     1       0.955  10.600  19.480  0.00  0.00    +0.000 A 
ATOM      2  C   UNL     1       0.913   9.736  20.571  0.00  0.00    +0.000 A 
ATOM      3  C   UNL     1       1.377   8.420  20.463  0.00  0.00    +0.000 A 
ATOM      4  C   UNL     1       1.900   7.917  19.260  0.00  0.00    +0.000 A 
ATOM      5  C   UNL     1       1.951   8.809  18.170  0.00  0.00    +0.000 A 
ATOM      6  C   UNL     1       1.478  10.127  18.273  0.00  0.00    +0.000 A 
ENDROOT
BRANCH   4   7
ATOM      7  C   UNL     1       2.354   6.513  19.149  0.00  0.00    +0.000 A 
ATOM      8  N   UNL     1       3.497   6.287  18.473  0.00  0.00    +0.000 NA
ATOM      9  C   UNL     1       3.953   5.025  18.380  0.00  0.00    +0.000 A 
ATOM     10  C   UNL     1       3.242   3.988  18.969  0.00  0.00    +0.000 A 
ATOM     11  S   UNL     1       3.541   2.293  19.033  0.00  0.00    +0.000 S 
ATOM     12  C   UNL     1       2.123   2.001  19.937  0.00  0.00    +0.000 A 
ATOM     13  C   UNL     1       1.431   3.161  20.196  0.00  0.00    +0.000 A 
ATOM     14  C   UNL     1       2.069   4.310  19.643  0.00  0.00    +0.000 A 
ATOM     15  N   UNL     1       1.603   5.577  19.748  0.00  0.00    +0.000 NA
BRANCH   9  16
ATOM     16  C   UNL     1       5.181   4.782  17.630  0.00  0.00    +0.000 C 
ATOM     17  C   UNL     1       5.161   4.275  16.385  0.00  0.00    +0.000 C 
ATOM     18  C   UNL     1       6.415   4.081  15.584  0.00  0.00    +0.000 C 
ATOM     19  O   UNL     1       7.527   4.788  16.144  0.00  0.00    +0.000 OA
ATOM     20  C   UNL     1       7.666   4.532  17.544  0.00  0.00    +0.000 C 
ATOM     21  C   UNL     1       6.478   5.118  18.309  0.00  0.00    +0.000 C 
ENDBRANCH   9  16
ENDBRANCH   4   7
BRANCH   1  25
ATOM     22  O   UNL     1       2.428  13.136  19.241  0.00  0.00    +0.000 OA
ATOM     23  C   UNL     1       1.226  13.067  19.466  0.00  0.00    +0.000 C 
ATOM     24  N   UNL     1       0.456  14.194  19.654  0.00  0.00    +0.000 N 
ATOM     25  N   UNL     1       0.467  11.921  19.525  0.00  0.00    +0.000 N 
ATOM     26  H   UNL     1      -0.336  14.082  20.273  0.00  0.00    +0.000 HD
ATOM     27  H   UNL     1      -0.529  12.049  19.422  0.00  0.00    +0.000 HD
BRANCH  24  28
ATOM     28  C   UNL     1       1.099  15.500  19.692  0.00  0.00    +0.000 C 
BRANCH  28  29
ATOM     29  C   UNL     1       0.289  16.547  18.950  0.00  0.00    +0.000 C 
ATOM     30  F   UNL     1      -0.601  15.921  18.130  0.00  0.00    +0.000 F 
ENDBRANCH  28  29
ENDBRANCH  24  28
ENDBRANCH   1  25
TORSDOF 5
ENDMDL
MODEL 8
REMARK VINA RESULT:      -7.8      1.015      1.660
REMARK  Name = 
REMARK  5 active torsions:
REMARK  status: ('A' for Active; 'I' for Inactive)
REMARK    1  A    between atoms: N_3  and  C_4
REMARK    2  A    between atoms: C_4  and  C_5
REMARK    3  A    between atoms: N_7  and  C_8
REMARK    4  A    between atoms: C_11  and  C_12
REMARK    5  A    between atoms: C_14  and  C_15
REMARK                            x       y       z     vdW  Elec       q    Type
REMARK                         _______ _______ _______ _____ _____    ______ ____
ROOT
ATOM      1  C   UNL     1       0.692  10.653  19.727  0.00  0.00    +0.000 A 
ATOM      2  C   UNL     1       1.292  10.117  18.590  0.00  0.00    +0.000 A 
ATOM      3  C   UNL     1       1.814   8.818  18.600  0.00  0.00    +0.000 A 
ATOM      4  C   UNL     1       1.755   8.007  19.744  0.00  0.00    +0.000 A 
ATOM      5  C   UNL     1       1.130   8.557  20.880  0.00  0.00    +0.000 A 
ATOM      6  C   UNL     1       0.614   9.863  20.877  0.00  0.00    +0.000 A 
ENDROOT
BRANCH   4   7
ATOM      7  C   UNL     1       2.343   6.649  19.751  0.00  0.00    +0.000 A 
ATOM      8  N   UNL     1       3.339   6.404  18.877  0.00  0.00    +0.000 NA
ATOM      9  C   UNL     1       3.915   5.188  18.878  0.00  0.00    +0.000 A 
ATOM     10  C   UNL     1       3.473   4.215  19.765  0.00  0.00    +0.000 A 
ATOM     11  S   UNL     1       3.981   2.590  20.019  0.00  0.00    +0.000 S 
ATOM     12  C   UNL     1       2.829   2.343  21.253  0.00  0.00    +0.000 A 
ATOM     13  C   UNL     1       2.071   3.468  21.481  0.00  0.00    +0.000 A 
ATOM     14  C   UNL     1       2.436   4.551  20.629  0.00  0.00    +0.000 A 
ATOM     15  N   UNL     1       1.852   5.772  20.640  0.00  0.00    +0.000 NA
BRANCH   9  16
ATOM     16  C   UNL     1       4.979   4.921  17.917  0.00  0.00    +0.000 C 
ATOM     17  C   UNL     1       6.277   5.062  18.240  0.00  0.00    +0.000 C 
ATOM     18  C   UNL     1       7.378   4.730  17.277  0.00  0.00    +0.000 C 
ATOM     19  O   UNL     1       6.908   3.959  16.166  0.00  0.00    +0.000 OA
ATOM     20  C   UNL     1       5.748   4.545  15.569  0.00  0.00    +0.000 C 
ATOM     21  C   UNL     1       4.567   4.486  16.539  0.00  0.00    +0.000 C 
ENDBRANCH   9  16
ENDBRANCH   4   7
BRANCH   1  25
ATOM     22  O   UNL     1       1.806  13.021  21.074  0.00  0.00    +0.000 OA
ATOM     23  C   UNL     1       0.731  13.016  20.485  0.00  0.00    +0.000 C 
ATOM     24  N   UNL     1      -0.071  14.135  20.427  0.00  0.00    +0.000 N 
ATOM     25  N   UNL     1       0.185  11.967  19.783  0.00  0.00    +0.000 N 
ATOM     26  H   UNL     1      -1.065  13.957  20.376  0.00  0.00    +0.000 HD
ATOM     27  H   UNL     1      -0.540  12.211  19.124  0.00  0.00    +0.000 HD
BRANCH  24  28
ATOM     28  C   UNL     1       0.313  15.327  21.170  0.00  0.00    +0.000 C 
BRANCH  28  29
ATOM     29  C   UNL     1       0.854  16.411  20.255  0.00  0.00    +0.000 C 
ATOM     30  F   UNL     1       2.000  15.964  19.667  0.00  0.00    +0.000 F 
ENDBRANCH  28  29
ENDBRANCH  24  28
ENDBRANCH   1  25
TORSDOF 5
ENDMDL
MODEL 9
REMARK VINA RESULT:      -7.7      1.150      1.257
REMARK  Name = 
REMARK  5 active torsions:
REMARK  status: ('A' for Active; 'I' for Inactive)
REMARK    1  A    between atoms: N_3  and  C_4
REMARK    2  A    between atoms: C_4  and  C_5
REMARK    3  A    between atoms: N_7  and  C_8
REMARK    4  A    between atoms: C_11  and  C_12
REMARK    5  A    between atoms: C_14  and  C_15
REMARK                            x       y       z     vdW  Elec       q    Type
REMARK                         _______ _______ _______ _____ _____    ______ ____
ROOT
ATOM      1  C   UNL     1       0.536  10.662  20.331  0.00  0.00    +0.000 A 
ATOM      2  C   UNL     1       0.606   9.811  21.431  0.00  0.00    +0.000 A 
ATOM      3  C   UNL     1       1.180   8.539  21.319  0.00  0.00    +0.000 A 
ATOM      4  C   UNL     1       1.706   8.070  20.104  0.00  0.00    +0.000 A 
ATOM      5  C   UNL     1       1.643   8.950  19.005  0.00  0.00    +0.000 A 
ATOM      6  C   UNL     1       1.060  10.223  19.112  0.00  0.00    +0.000 A 
ENDROOT
BRANCH   4   7
ATOM      7  C   UNL     1       2.278   6.711  19.991  0.00  0.00    +0.000 A 
ATOM      8  N   UNL     1       3.345   6.557  19.183  0.00  0.00    +0.000 NA
ATOM      9  C   UNL     1       3.908   5.339  19.082  0.00  0.00    +0.000 A 
ATOM     10  C   UNL     1       3.381   4.272  19.798  0.00  0.00    +0.000 A 
ATOM     11  S   UNL     1       3.850   2.618  19.889  0.00  0.00    +0.000 S 
ATOM     12  C   UNL     1       2.591   2.243  20.978  0.00  0.00    +0.000 A 
ATOM     13  C   UNL     1       1.826   3.346  21.279  0.00  0.00    +0.000 A 
ATOM     14  C   UNL     1       2.274   4.518  20.604  0.00  0.00    +0.000 A 
ATOM     15  N   UNL     1       1.703   5.740  20.718  0.00  0.00    +0.000 NA
BRANCH   9  16
ATOM     16  C   UNL     1       5.051   5.172  18.190  0.00  0.00    +0.000 C 
ATOM     17  C   UNL     1       4.895   4.942  16.875  0.00  0.00    +0.000 C 
ATOM     18  C   UNL     1       6.065   4.832  15.942  0.00  0.00    +0.000 C 
ATOM     19  O   UNL     1       7.273   5.323  16.532  0.00  0.00    +0.000 OA
ATOM     20  C   UNL     1       7.491   4.767  17.832  0.00  0.00    +0.000 C 
ATOM     21  C   UNL     1       6.419   5.263  18.805  0.00  0.00    +0.000 C 
ENDBRANCH   9  16
ENDBRANCH   4   7
BRANCH   1  25
ATOM     22  O   UNL     1       1.607  13.184  21.406  0.00  0.00    +0.000 OA
ATOM     23  C   UNL     1       0.474  13.064  20.955  0.00  0.00    +0.000 C 
ATOM     24  N   UNL     1      -0.417  14.114  20.938  0.00  0.00    +0.000 N 
ATOM     25  N   UNL     1      -0.065  11.936  20.380  0.00  0.00    +0.000 N 
ATOM     26  H   UNL     1      -1.393  13.861  21.018  0.00  0.00    +0.000 HD
ATOM     27  H   UNL     1      -0.880  12.084  19.803  0.00  0.00    +0.000 HD
BRANCH  24  28
ATOM     28  C   UNL     1      -0.045  15.375  21.565  0.00  0.00    +0.000 C 
BRANCH  28  29
ATOM     29  C   UNL     1       0.368  16.414  20.538  0.00  0.00    +0.000 C 
ATOM     30  F   UNL     1       1.712  16.323  20.332  0.00  0.00    +0.000 F 
ENDBRANCH  28  29
ENDBRANCH  24  28
ENDBRANCH   1  25
TORSDOF 5
ENDMDL
