MODEL 1
REMARK VINA RESULT:      -7.4      0.000      0.000
REMARK  Name = 
REMARK  7 active torsions:
REMARK  status: ('A' for Active; 'I' for Inactive)
REMARK    1  A    between atoms: C_1  and  C_2
REMARK    2  A    between atoms: C_4  and  C_5
REMARK    3  A    between atoms: C_4  and  C_6
REMARK    4  A    between atoms: C_11  and  C_12
REMARK    5  A    between atoms: C_14  and  N_15
REMARK    6  A    between atoms: C_25  and  C_26
REMARK    7  A    between atoms: C_27  and  C_28
REMARK                            x       y       z     vdW  Elec       q    Type
REMARK                         _______ _______ _______ _____ _____    ______ ____
ROOT
ATOM      1  C   UNL     1       8.704   9.653  18.575  0.00  0.00    +0.000 C 
ATOM      2  C   UNL     1       9.468  10.739  19.273  0.00  0.00    +0.000 C 
ATOM      3  C   UNL     1      10.355  11.389  18.463  0.00  0.00    +0.000 C 
ATOM      4  C   UNL     1      10.973  12.659  18.939  0.00  0.00    +0.000 C 
ATOM      5  C   UNL     1      11.958  12.183  20.075  0.00  0.00    +0.000 C 
ATOM      6  C   UNL     1      11.848  13.499  18.009  0.00  0.00    +0.000 C 
ATOM      7  N   UNL     1       9.797  13.414  19.395  0.00  0.00    +0.000 N 
ATOM      8  C   UNL     1       8.944  14.313  18.783  0.00  0.00    +0.000 C 
ATOM      9  O   UNL     1       8.983  14.708  17.646  0.00  0.00    +0.000 OA
ATOM     10  C   UNL     1       7.992  14.794  19.956  0.00  0.00    +0.000 C 
ATOM     11  C   UNL     1       8.663  16.100  20.130  0.00  0.00    +0.000 C 
ATOM     12  C   UNL     1       7.915  17.202  19.777  0.00  0.00    +0.000 C 
ATOM     13  O   UNL     1       6.848  17.109  18.878  0.00  0.00    +0.000 OA
ATOM     14  C   UNL     1       6.258  15.879  18.622  0.00  0.00    +0.000 C 
ATOM     15  C   UNL     1       6.502  14.917  19.517  0.00  0.00    +0.000 C 
ATOM     16  C   UNL     1       5.236  14.881  20.402  0.00  0.00    +0.000 C 
ATOM     17  O   UNL     1       5.267  14.430  21.544  0.00  0.00    +0.000 OA
ATOM     18  C   UNL     1       3.859  15.440  19.905  0.00  0.00    +0.000 C 
ATOM     19  C   UNL     1       3.930  16.436  18.767  0.00  0.00    +0.000 C 
ATOM     20  C   UNL     1       4.993  15.949  17.825  0.00  0.00    +0.000 C 
ATOM     21  C   UNL     1       8.247  13.749  21.003  0.00  0.00    +0.000 A 
ATOM     22  C   UNL     1       8.011  13.544  22.332  0.00  0.00    +0.000 A 
ATOM     23  C   UNL     1       7.487  14.658  23.196  0.00  0.00    +0.000 C 
ATOM     24  C   UNL     1       8.413  12.283  22.836  0.00  0.00    +0.000 A 
ATOM     25  C   UNL     1       8.624  12.155  24.325  0.00  0.00    +0.000 C 
ATOM     26  C   UNL     1       8.817  11.194  21.927  0.00  0.00    +0.000 A 
ATOM     27  C   UNL     1       9.068  11.454  20.579  0.00  0.00    +0.000 A 
ATOM     28  C   UNL     1       9.022  12.806  20.369  0.00  0.00    +0.000 A 
ENDROOT
BRANCH  12  29
ATOM     29  N   UNL     1       8.189  18.517  20.080  0.00  0.00    +0.000 N 
ATOM     30  H   UNL     1       9.098  18.893  19.828  0.00  0.00    +0.000 HD
ATOM     31  H   UNL     1       7.413  19.148  19.898  0.00  0.00    +0.000 HD
ENDBRANCH  12  29
BRANCH  11  32
ATOM     32  C   UNL     1      10.102  16.588  20.094  0.00  0.00    +0.000 C 
ATOM     33  N   UNL     1      11.297  16.992  20.065  0.00  0.00    +0.000 NA
ENDBRANCH  11  32
TORSDOF 2
ENDMDL
MODEL 2
REMARK VINA RESULT:      -6.9      9.015     12.709
REMARK  Name = 
REMARK  7 active torsions:
REMARK  status: ('A' for Active; 'I' for Inactive)
REMARK    1  A    between atoms: C_1  and  C_2
REMARK    2  A    between atoms: C_4  and  C_5
REMARK    3  A    between atoms: C_4  and  C_6
REMARK    4  A    between atoms: C_11  and  C_12
REMARK    5  A    between atoms: C_14  and  N_15
REMARK    6  A    between atoms: C_25  and  C_26
REMARK    7  A    between atoms: C_27  and  C_28
REMARK                            x       y       z     vdW  Elec       q    Type
REMARK                         _______ _______ _______ _____ _____    ______ ____
ROOT
ATOM      1  C   UNL     1      -7.281  10.271  20.406  0.00  0.00    +0.000 C 
ATOM      2  C   UNL     1      -6.541  11.474  19.902  0.00  0.00    +0.000 C 
ATOM      3  C   UNL     1      -6.671  12.572  20.704  0.00  0.00    +0.000 C 
ATOM      4  C   UNL     1      -5.776  13.742  20.481  0.00  0.00    +0.000 C 
ATOM      5  C   UNL     1      -6.300  14.349  19.123  0.00  0.00    +0.000 C 
ATOM      6  C   UNL     1      -5.781  14.925  21.449  0.00  0.00    +0.000 C 
ATOM      7  N   UNL     1      -4.454  13.103  20.422  0.00  0.00    +0.000 N 
ATOM      8  C   UNL     1      -3.487  12.821  21.369  0.00  0.00    +0.000 C 
ATOM      9  O   UNL     1      -3.521  13.058  22.549  0.00  0.00    +0.000 OA
ATOM     10  C   UNL     1      -2.283  12.234  20.521  0.00  0.00    +0.000 C 
ATOM     11  C   UNL     1      -1.474  13.470  20.587  0.00  0.00    +0.000 C 
ATOM     12  C   UNL     1      -0.313  13.378  21.323  0.00  0.00    +0.000 C 
ATOM     13  O   UNL     1      -0.148  12.413  22.322  0.00  0.00    +0.000 OA
ATOM     14  C   UNL     1      -0.959  11.286  22.341  0.00  0.00    +0.000 C 
ATOM     15  C   UNL     1      -1.601  11.010  21.202  0.00  0.00    +0.000 C 
ATOM     16  C   UNL     1      -0.759   9.893  20.544  0.00  0.00    +0.000 C 
ATOM     17  O   UNL     1      -0.803   9.688  19.334  0.00  0.00    +0.000 OA
ATOM     18  C   UNL     1       0.211   8.986  21.375  0.00  0.00    +0.000 C 
ATOM     19  C   UNL     1       0.659   9.553  22.706  0.00  0.00    +0.000 C 
ATOM     20  C   UNL     1      -0.535  10.232  23.315  0.00  0.00    +0.000 C 
ATOM     21  C   UNL     1      -2.953  11.924  19.214  0.00  0.00    +0.000 A 
ATOM     22  C   UNL     1      -2.610  11.611  17.930  0.00  0.00    +0.000 A 
ATOM     23  C   UNL     1      -1.181  11.713  17.473  0.00  0.00    +0.000 C 
ATOM     24  C   UNL     1      -3.693  11.322  17.063  0.00  0.00    +0.000 A 
ATOM     25  C   UNL     1      -3.453  11.434  15.577  0.00  0.00    +0.000 C 
ATOM     26  C   UNL     1      -5.057  11.128  17.587  0.00  0.00    +0.000 A 
ATOM     27  C   UNL     1      -5.367  11.482  18.901  0.00  0.00    +0.000 A 
ATOM     28  C   UNL     1      -4.293  12.123  19.457  0.00  0.00    +0.000 A 
ENDROOT
BRANCH  12  29
ATOM     29  N   UNL     1       0.733  14.275  21.330  0.00  0.00    +0.000 N 
ATOM     30  H   UNL     1       1.678  13.919  21.221  0.00  0.00    +0.000 HD
ATOM     31  H   UNL     1       0.545  15.124  20.804  0.00  0.00    +0.000 HD
ENDBRANCH  12  29
BRANCH  11  32
ATOM     32  C   UNL     1      -1.771  14.959  20.524  0.00  0.00    +0.000 C 
ATOM     33  N   UNL     1      -2.018  16.195  20.472  0.00  0.00    +0.000 NA
ENDBRANCH  11  32
TORSDOF 2
ENDMDL
MODEL 3
REMARK VINA RESULT:      -6.5      1.229      1.403
REMARK  Name = 
REMARK  7 active torsions:
REMARK  status: ('A' for Active; 'I' for Inactive)
REMARK    1  A    between atoms: C_1  and  C_2
REMARK    2  A    between atoms: C_4  and  C_5
REMARK    3  A    between atoms: C_4  and  C_6
REMARK    4  A    between atoms: C_11  and  C_12
REMARK    5  A    between atoms: C_14  and  N_15
REMARK    6  A    between atoms: C_25  and  C_26
REMARK    7  A    between atoms: C_27  and  C_28
REMARK                            x       y       z     vdW  Elec       q    Type
REMARK                         _______ _______ _______ _____ _____    ______ ____
ROOT
ATOM      1  C   UNL     1       9.024  10.417  18.602  0.00  0.00    +0.000 C 
ATOM      2  C   UNL     1       9.475  11.647  19.332  0.00  0.00    +0.000 C 
ATOM      3  C   UNL     1      10.073  12.573  18.525  0.00  0.00    +0.000 C 
ATOM      4  C   UNL     1      10.315  13.945  19.053  0.00  0.00    +0.000 C 
ATOM      5  C   UNL     1      11.471  13.733  20.105  0.00  0.00    +0.000 C 
ATOM      6  C   UNL     1      10.836  15.054  18.139  0.00  0.00    +0.000 C 
ATOM      7  N   UNL     1       9.001  14.288  19.616  0.00  0.00    +0.000 N 
ATOM      8  C   UNL     1       7.880  14.918  19.108  0.00  0.00    +0.000 C 
ATOM      9  O   UNL     1       7.723  15.361  17.999  0.00  0.00    +0.000 OA
ATOM     10  C   UNL     1       6.909  15.032  20.356  0.00  0.00    +0.000 C 
ATOM     11  C   UNL     1       7.171  16.469  20.584  0.00  0.00    +0.000 C 
ATOM     12  C   UNL     1       6.107  17.310  20.342  0.00  0.00    +0.000 C 
ATOM     13  O   UNL     1       5.058  16.945  19.493  0.00  0.00    +0.000 OA
ATOM     14  C   UNL     1       4.845  15.608  19.184  0.00  0.00    +0.000 C 
ATOM     15  C   UNL     1       5.424  14.722  20.000  0.00  0.00    +0.000 C 
ATOM     16  C   UNL     1       4.288  14.263  20.943  0.00  0.00    +0.000 C 
ATOM     17  O   UNL     1       4.529  13.788  22.049  0.00  0.00    +0.000 OA
ATOM     18  C   UNL     1       2.778  14.405  20.552  0.00  0.00    +0.000 C 
ATOM     19  C   UNL     1       2.472  15.431  19.481  0.00  0.00    +0.000 C 
ATOM     20  C   UNL     1       3.567  15.333  18.457  0.00  0.00    +0.000 C 
ATOM     21  C   UNL     1       7.533  14.062  21.317  0.00  0.00    +0.000 A 
ATOM     22  C   UNL     1       7.458  13.731  22.640  0.00  0.00    +0.000 A 
ATOM     23  C   UNL     1       6.685  14.592  23.601  0.00  0.00    +0.000 C 
ATOM     24  C   UNL     1       8.250  12.627  23.038  0.00  0.00    +0.000 A 
ATOM     25  C   UNL     1       8.589  12.495  24.503  0.00  0.00    +0.000 C 
ATOM     26  C   UNL     1       8.897  11.755  22.040  0.00  0.00    +0.000 A 
ATOM     27  C   UNL     1       8.969  12.144  20.701  0.00  0.00    +0.000 A 
ATOM     28  C   UNL     1       8.509  13.428  20.584  0.00  0.00    +0.000 A 
ENDROOT
BRANCH  12  29
ATOM     29  N   UNL     1       5.997  18.630  20.718  0.00  0.00    +0.000 N 
ATOM     30  H   UNL     1       6.848  19.170  20.847  0.00  0.00    +0.000 HD
ATOM     31  H   UNL     1       5.256  19.131  20.235  0.00  0.00    +0.000 HD
ENDBRANCH  12  29
BRANCH  11  32
ATOM     32  C   UNL     1       8.394  17.368  20.509  0.00  0.00    +0.000 C 
ATOM     33  N   UNL     1       9.409  18.114  20.448  0.00  0.00    +0.000 NA
ENDBRANCH  11  32
TORSDOF 2
ENDMDL
MODEL 4
REMARK VINA RESULT:      -6.1      2.189      5.534
REMARK  Name = 
REMARK  7 active torsions:
REMARK  status: ('A' for Active; 'I' for Inactive)
REMARK    1  A    between atoms: C_1  and  C_2
REMARK    2  A    between atoms: C_4  and  C_5
REMARK    3  A    between atoms: C_4  and  C_6
REMARK    4  A    between atoms: C_11  and  C_12
REMARK    5  A    between atoms: C_14  and  N_15
REMARK    6  A    between atoms: C_25  and  C_26
REMARK    7  A    between atoms: C_27  and  C_28
REMARK                            x       y       z     vdW  Elec       q    Type
REMARK                         _______ _______ _______ _____ _____    ______ ____
ROOT
ATOM      1  C   UNL     1       5.993  13.270  23.985  0.00  0.00    +0.000 C 
ATOM      2  C   UNL     1       6.320  14.535  23.247  0.00  0.00    +0.000 C 
ATOM      3  C   UNL     1       7.211  15.335  23.903  0.00  0.00    +0.000 C 
ATOM      4  C   UNL     1       7.836  16.473  23.172  0.00  0.00    +0.000 C 
ATOM      5  C   UNL     1       6.646  17.495  23.001  0.00  0.00    +0.000 C 
ATOM      6  C   UNL     1       8.950  17.298  23.817  0.00  0.00    +0.000 C 
ATOM      7  N   UNL     1       8.296  15.823  21.937  0.00  0.00    +0.000 N 
ATOM      8  C   UNL     1       9.481  15.217  21.563  0.00  0.00    +0.000 C 
ATOM      9  O   UNL     1      10.479  15.079  22.223  0.00  0.00    +0.000 OA
ATOM     10  C   UNL     1       9.262  14.865  20.032  0.00  0.00    +0.000 C 
ATOM     11  C   UNL     1      10.092  15.981  19.531  0.00  0.00    +0.000 C 
ATOM     12  C   UNL     1      11.264  15.612  18.906  0.00  0.00    +0.000 C 
ATOM     13  O   UNL     1      11.875  14.379  19.156  0.00  0.00    +0.000 OA
ATOM     14  C   UNL     1      11.143  13.341  19.716  0.00  0.00    +0.000 C 
ATOM     15  C   UNL     1       9.813  13.460  19.647  0.00  0.00    +0.000 C 
ATOM     16  C   UNL     1       9.405  12.564  18.457  0.00  0.00    +0.000 C 
ATOM     17  O   UNL     1       8.352  12.745  17.852  0.00  0.00    +0.000 OA
ATOM     18  C   UNL     1      10.320  11.400  17.942  0.00  0.00    +0.000 C 
ATOM     19  C   UNL     1      11.784  11.506  18.310  0.00  0.00    +0.000 C 
ATOM     20  C   UNL     1      11.844  12.018  19.721  0.00  0.00    +0.000 C 
ATOM     21  C   UNL     1       7.773  15.006  19.898  0.00  0.00    +0.000 A 
ATOM     22  C   UNL     1       6.832  15.090  18.912  0.00  0.00    +0.000 A 
ATOM     23  C   UNL     1       7.242  15.261  17.476  0.00  0.00    +0.000 C 
ATOM     24  C   UNL     1       5.488  15.134  19.355  0.00  0.00    +0.000 A 
ATOM     25  C   UNL     1       4.452  15.688  18.407  0.00  0.00    +0.000 C 
ATOM     26  C   UNL     1       5.139  14.851  20.760  0.00  0.00    +0.000 A 
ATOM     27  C   UNL     1       6.133  14.796  21.738  0.00  0.00    +0.000 A 
ATOM     28  C   UNL     1       7.325  15.183  21.186  0.00  0.00    +0.000 A 
ENDROOT
BRANCH  12  29
ATOM     29  N   UNL     1      12.073  16.413  18.132  0.00  0.00    +0.000 N 
ATOM     30  H   UNL     1      12.391  17.298  18.516  0.00  0.00    +0.000 HD
ATOM     31  H   UNL     1      12.788  15.899  17.623  0.00  0.00    +0.000 HD
ENDBRANCH  12  29
BRANCH  11  32
ATOM     32  C   UNL     1      10.314  17.429  19.936  0.00  0.00    +0.000 C 
ATOM     33  N   UNL     1      10.497  18.631  20.272  0.00  0.00    +0.000 NA
ENDBRANCH  11  32
TORSDOF 2
ENDMDL
MODEL 5
REMARK VINA RESULT:      -6.1      9.752     13.145
REMARK  Name = 
REMARK  7 active torsions:
REMARK  status: ('A' for Active; 'I' for Inactive)
REMARK    1  A    between atoms: C_1  and  C_2
REMARK    2  A    between atoms: C_4  and  C_5
REMARK    3  A    between atoms: C_4  and  C_6
REMARK    4  A    between atoms: C_11  and  C_12
REMARK    5  A    between atoms: C_14  and  N_15
REMARK    6  A    between atoms: C_25  and  C_26
REMARK    7  A    between atoms: C_27  and  C_28
REMARK                            x       y       z     vdW  Elec       q    Type
REMARK                         _______ _______ _______ _____ _____    ______ ____
ROOT
ATOM      1  C   UNL     1       0.021  14.763  18.762  0.00  0.00    +0.000 C 
ATOM      2  C   UNL     1      -0.655  13.763  19.654  0.00  0.00    +0.000 C 
ATOM      3  C   UNL     1      -0.452  13.992  20.985  0.00  0.00    +0.000 C 
ATOM      4  C   UNL     1      -1.282  13.258  21.980  0.00  0.00    +0.000 C 
ATOM      5  C   UNL     1      -0.743  11.778  21.886  0.00  0.00    +0.000 C 
ATOM      6  C   UNL     1      -1.196  13.595  23.469  0.00  0.00    +0.000 C 
ATOM      7  N   UNL     1      -2.639  13.472  21.459  0.00  0.00    +0.000 N 
ATOM      8  C   UNL     1      -3.607  14.433  21.686  0.00  0.00    +0.000 C 
ATOM      9  O   UNL     1      -3.544  15.383  22.423  0.00  0.00    +0.000 OA
ATOM     10  C   UNL     1      -4.855  13.920  20.852  0.00  0.00    +0.000 C 
ATOM     11  C   UNL     1      -5.591  13.416  22.031  0.00  0.00    +0.000 C 
ATOM     12  C   UNL     1      -6.745  14.100  22.344  0.00  0.00    +0.000 C 
ATOM     13  O   UNL     1      -6.951  15.422  21.939  0.00  0.00    +0.000 OA
ATOM     14  C   UNL     1      -6.206  15.954  20.895  0.00  0.00    +0.000 C 
ATOM     15  C   UNL     1      -5.596  15.067  20.102  0.00  0.00    +0.000 C 
ATOM     16  C   UNL     1      -6.509  14.966  18.860  0.00  0.00    +0.000 C 
ATOM     17  O   UNL     1      -6.493  13.976  18.133  0.00  0.00    +0.000 OA
ATOM     18  C   UNL     1      -7.519  16.103  18.477  0.00  0.00    +0.000 C 
ATOM     19  C   UNL     1      -7.915  17.033  19.604  0.00  0.00    +0.000 C 
ATOM     20  C   UNL     1      -6.676  17.290  20.414  0.00  0.00    +0.000 C 
ATOM     21  C   UNL     1      -4.220  12.899  19.952  0.00  0.00    +0.000 A 
ATOM     22  C   UNL     1      -4.598  11.886  19.119  0.00  0.00    +0.000 A 
ATOM     23  C   UNL     1      -6.025  11.412  19.088  0.00  0.00    +0.000 C 
ATOM     24  C   UNL     1      -3.546  11.254  18.412  0.00  0.00    +0.000 A 
ATOM     25  C   UNL     1      -3.799   9.872  17.860  0.00  0.00    +0.000 C 
ATOM     26  C   UNL     1      -2.188  11.828  18.394  0.00  0.00    +0.000 A 
ATOM     27  C   UNL     1      -1.840  12.849  19.280  0.00  0.00    +0.000 A 
ATOM     28  C   UNL     1      -2.869  13.045  20.162  0.00  0.00    +0.000 A 
ENDROOT
BRANCH  12  29
ATOM     29  N   UNL     1      -7.737  13.691  23.208  0.00  0.00    +0.000 N 
ATOM     30  H   UNL     1      -8.056  14.339  23.922  0.00  0.00    +0.000 HD
ATOM     31  H   UNL     1      -8.484  13.172  22.754  0.00  0.00    +0.000 HD
ENDBRANCH  12  29
BRANCH  11  32
ATOM     32  C   UNL     1      -5.210  12.698  23.315  0.00  0.00    +0.000 C 
ATOM     33  N   UNL     1      -4.894  12.102  24.381  0.00  0.00    +0.000 NA
ENDBRANCH  11  32
TORSDOF 2
ENDMDL
MODEL 6
REMARK VINA RESULT:      -6.1      9.131     12.956
REMARK  Name = 
REMARK  7 active torsions:
REMARK  status: ('A' for Active; 'I' for Inactive)
REMARK    1  A    between atoms: C_1  and  C_2
REMARK    2  A    between atoms: C_4  and  C_5
REMARK    3  A    between atoms: C_4  and  C_6
REMARK    4  A    between atoms: C_11  and  C_12
REMARK    5  A    between atoms: C_14  and  N_15
REMARK    6  A    between atoms: C_25  and  C_26
REMARK    7  A    between atoms: C_27  and  C_28
REMARK                            x       y       z     vdW  Elec       q    Type
REMARK                         _______ _______ _______ _____ _____    ______ ____
ROOT
ATOM      1  C   UNL     1      -3.241  18.630  18.784  0.00  0.00    +0.000 C 
ATOM      2  C   UNL     1      -2.607  18.003  19.991  0.00  0.00    +0.000 C 
ATOM      3  C   UNL     1      -3.052  18.522  21.174  0.00  0.00    +0.000 C 
ATOM      4  C   UNL     1      -2.726  17.814  22.443  0.00  0.00    +0.000 C 
ATOM      5  C   UNL     1      -1.178  18.068  22.615  0.00  0.00    +0.000 C 
ATOM      6  C   UNL     1      -3.332  18.270  23.770  0.00  0.00    +0.000 C 
ATOM      7  N   UNL     1      -3.110  16.432  22.126  0.00  0.00    +0.000 N 
ATOM      8  C   UNL     1      -4.278  15.707  22.278  0.00  0.00    +0.000 C 
ATOM      9  O   UNL     1      -5.323  16.083  22.744  0.00  0.00    +0.000 OA
ATOM     10  C   UNL     1      -3.880  14.243  21.817  0.00  0.00    +0.000 C 
ATOM     11  C   UNL     1      -3.791  13.703  23.191  0.00  0.00    +0.000 C 
ATOM     12  C   UNL     1      -4.750  12.772  23.524  0.00  0.00    +0.000 C 
ATOM     13  O   UNL     1      -5.976  12.706  22.855  0.00  0.00    +0.000 OA
ATOM     14  C   UNL     1      -6.118  13.288  21.602  0.00  0.00    +0.000 C 
ATOM     15  C   UNL     1      -4.981  13.559  20.953  0.00  0.00    +0.000 C 
ATOM     16  C   UNL     1      -4.824  12.397  19.945  0.00  0.00    +0.000 C 
ATOM     17  O   UNL     1      -3.727  12.093  19.486  0.00  0.00    +0.000 OA
ATOM     18  C   UNL     1      -6.045  11.532  19.480  0.00  0.00    +0.000 C 
ATOM     19  C   UNL     1      -7.247  11.546  20.401  0.00  0.00    +0.000 C 
ATOM     20  C   UNL     1      -7.397  12.954  20.902  0.00  0.00    +0.000 C 
ATOM     21  C   UNL     1      -2.588  14.492  21.094  0.00  0.00    +0.000 A 
ATOM     22  C   UNL     1      -1.529  13.782  20.605  0.00  0.00    +0.000 A 
ATOM     23  C   UNL     1      -1.369  12.323  20.933  0.00  0.00    +0.000 C 
ATOM     24  C   UNL     1      -0.561  14.539  19.901  0.00  0.00    +0.000 A 
ATOM     25  C   UNL     1       0.820  13.948  19.748  0.00  0.00    +0.000 C 
ATOM     26  C   UNL     1      -0.822  15.938  19.514  0.00  0.00    +0.000 A 
ATOM     27  C   UNL     1      -1.905  16.631  20.056  0.00  0.00    +0.000 A 
ATOM     28  C   UNL     1      -2.487  15.862  21.028  0.00  0.00    +0.000 A 
ENDROOT
BRANCH  12  29
ATOM     29  N   UNL     1      -4.742  11.934  24.617  0.00  0.00    +0.000 N 
ATOM     30  H   UNL     1      -4.488  12.319  25.522  0.00  0.00    +0.000 HD
ATOM     31  H   UNL     1      -5.530  11.292  24.644  0.00  0.00    +0.000 HD
ENDBRANCH  12  29
BRANCH  11  32
ATOM     32  C   UNL     1      -3.284  14.225  24.525  0.00  0.00    +0.000 C 
ATOM     33  N   UNL     1      -2.863  14.658  25.632  0.00  0.00    +0.000 NA
ENDBRANCH  11  32
TORSDOF 2
ENDMDL
MODEL 7
REMARK VINA RESULT:      -5.9     11.035     13.792
REMARK  Name = 
REMARK  7 active torsions:
REMARK  status: ('A' for Active; 'I' for Inactive)
REMARK    1  A    between atoms: C_1  and  C_2
REMARK    2  A    between atoms: C_4  and  C_5
REMARK    3  A    between atoms: C_4  and  C_6
REMARK    4  A    between atoms: C_11  and  C_12
REMARK    5  A    between atoms: C_14  and  N_15
REMARK    6  A    between atoms: C_25  and  C_26
REMARK    7  A    between atoms: C_27  and  C_28
REMARK                            x       y       z     vdW  Elec       q    Type
REMARK                         _______ _______ _______ _____ _____    ______ ____
ROOT
ATOM      1  C   UNL     1      -2.541  18.157  19.058  0.00  0.00    +0.000 C 
ATOM      2  C   UNL     1      -3.322  17.543  20.183  0.00  0.00    +0.000 C 
ATOM      3  C   UNL     1      -4.665  17.776  20.105  0.00  0.00    +0.000 C 
ATOM      4  C   UNL     1      -5.586  17.003  20.985  0.00  0.00    +0.000 C 
ATOM      5  C   UNL     1      -5.302  17.594  22.420  0.00  0.00    +0.000 C 
ATOM      6  C   UNL     1      -7.101  17.118  20.824  0.00  0.00    +0.000 C 
ATOM      7  N   UNL     1      -5.126  15.625  20.766  0.00  0.00    +0.000 N 
ATOM      8  C   UNL     1      -5.489  14.628  19.879  0.00  0.00    +0.000 C 
ATOM      9  O   UNL     1      -6.333  14.676  19.021  0.00  0.00    +0.000 OA
ATOM     10  C   UNL     1      -4.630  13.377  20.340  0.00  0.00    +0.000 C 
ATOM     11  C   UNL     1      -5.758  12.694  21.010  0.00  0.00    +0.000 C 
ATOM     12  C   UNL     1      -6.178  11.524  20.415  0.00  0.00    +0.000 C 
ATOM     13  O   UNL     1      -5.938  11.258  19.064  0.00  0.00    +0.000 OA
ATOM     14  C   UNL     1      -4.948  11.952  18.382  0.00  0.00    +0.000 C 
ATOM     15  C   UNL     1      -4.041  12.572  19.143  0.00  0.00    +0.000 C 
ATOM     16  C   UNL     1      -2.817  11.628  19.133  0.00  0.00    +0.000 C 
ATOM     17  O   UNL     1      -1.977  11.661  20.028  0.00  0.00    +0.000 OA
ATOM     18  C   UNL     1      -2.597  10.567  18.002  0.00  0.00    +0.000 C 
ATOM     19  C   UNL     1      -3.836  10.168  17.228  0.00  0.00    +0.000 C 
ATOM     20  C   UNL     1      -4.641  11.419  17.018  0.00  0.00    +0.000 C 
ATOM     21  C   UNL     1      -3.600  14.023  21.221  0.00  0.00    +0.000 A 
ATOM     22  C   UNL     1      -2.661  13.660  22.142  0.00  0.00    +0.000 A 
ATOM     23  C   UNL     1      -2.607  12.252  22.667  0.00  0.00    +0.000 C 
ATOM     24  C   UNL     1      -1.858  14.715  22.643  0.00  0.00    +0.000 A 
ATOM     25  C   UNL     1      -1.152  14.498  23.959  0.00  0.00    +0.000 C 
ATOM     26  C   UNL     1      -1.877  16.049  22.016  0.00  0.00    +0.000 A 
ATOM     27  C   UNL     1      -2.870  16.384  21.094  0.00  0.00    +0.000 A 
ATOM     28  C   UNL     1      -3.794  15.374  21.045  0.00  0.00    +0.000 A 
ENDROOT
BRANCH  12  29
ATOM     29  N   UNL     1      -7.010  10.574  20.963  0.00  0.00    +0.000 N 
ATOM     30  H   UNL     1      -7.903  10.872  21.344  0.00  0.00    +0.000 HD
ATOM     31  H   UNL     1      -7.053   9.712  20.426  0.00  0.00    +0.000 HD
ENDBRANCH  12  29
BRANCH  11  32
ATOM     32  C   UNL     1      -6.937  13.138  21.858  0.00  0.00    +0.000 C 
ATOM     33  N   UNL     1      -7.916  13.506  22.563  0.00  0.00    +0.000 NA
ENDBRANCH  11  32
TORSDOF 2
ENDMDL
MODEL 8
REMARK VINA RESULT:      -5.9      8.071     11.305
REMARK  Name = 
REMARK  7 active torsions:
REMARK  status: ('A' for Active; 'I' for Inactive)
REMARK    1  A    between atoms: C_1  and  C_2
REMARK    2  A    between atoms: C_4  and  C_5
REMARK    3  A    between atoms: C_4  and  C_6
REMARK    4  A    between atoms: C_11  and  C_12
REMARK    5  A    between atoms: C_14  and  N_15
REMARK    6  A    between atoms: C_25  and  C_26
REMARK    7  A    between atoms: C_27  and  C_28
REMARK                            x       y       z     vdW  Elec       q    Type
REMARK                         _______ _______ _______ _____ _____    ______ ____
ROOT
ATOM      1  C   UNL     1      -0.810  17.714  17.516  0.00  0.00    +0.000 C 
ATOM      2  C   UNL     1      -0.325  17.075  18.784  0.00  0.00    +0.000 C 
ATOM      3  C   UNL     1      -0.613  17.800  19.905  0.00  0.00    +0.000 C 
ATOM      4  C   UNL     1      -0.444  17.164  21.242  0.00  0.00    +0.000 C 
ATOM      5  C   UNL     1       1.121  17.053  21.399  0.00  0.00    +0.000 C 
ATOM      6  C   UNL     1      -0.900  17.881  22.512  0.00  0.00    +0.000 C 
ATOM      7  N   UNL     1      -1.155  15.890  21.061  0.00  0.00    +0.000 N 
ATOM      8  C   UNL     1      -2.460  15.487  21.277  0.00  0.00    +0.000 C 
ATOM      9  O   UNL     1      -3.375  16.147  21.695  0.00  0.00    +0.000 OA
ATOM     10  C   UNL     1      -2.434  13.931  20.967  0.00  0.00    +0.000 C 
ATOM     11  C   UNL     1      -2.453  13.524  22.389  0.00  0.00    +0.000 C 
ATOM     12  C   UNL     1      -3.602  12.889  22.806  0.00  0.00    +0.000 C 
ATOM     13  O   UNL     1      -4.819  13.055  22.138  0.00  0.00    +0.000 OA
ATOM     14  C   UNL     1      -4.838  13.528  20.833  0.00  0.00    +0.000 C 
ATOM     15  C   UNL     1      -3.681  13.451  20.167  0.00  0.00    +0.000 C 
ATOM     16  C   UNL     1      -3.825  12.192  19.282  0.00  0.00    +0.000 C 
ATOM     17  O   UNL     1      -2.841  11.589  18.863  0.00  0.00    +0.000 OA
ATOM     18  C   UNL     1      -5.226  11.605  18.897  0.00  0.00    +0.000 C 
ATOM     19  C   UNL     1      -6.373  11.999  19.803  0.00  0.00    +0.000 C 
ATOM     20  C   UNL     1      -6.172  13.444  20.160  0.00  0.00    +0.000 C 
ATOM     21  C   UNL     1      -1.132  13.789  20.232  0.00  0.00    +0.000 A 
ATOM     22  C   UNL     1      -0.283  12.801  19.824  0.00  0.00    +0.000 A 
ATOM     23  C   UNL     1      -0.473  11.386  20.298  0.00  0.00    +0.000 C 
ATOM     24  C   UNL     1       0.826  13.229  19.055  0.00  0.00    +0.000 A 
ATOM     25  C   UNL     1       2.022  12.311  18.972  0.00  0.00    +0.000 C 
ATOM     26  C   UNL     1       0.903  14.604  18.529  0.00  0.00    +0.000 A 
ATOM     27  C   UNL     1       0.027  15.588  18.991  0.00  0.00    +0.000 A 
ATOM     28  C   UNL     1      -0.706  15.082  20.031  0.00  0.00    +0.000 A 
ENDROOT
BRANCH  12  29
ATOM     29  N   UNL     1      -3.777  12.186  23.977  0.00  0.00    +0.000 N 
ATOM     30  H   UNL     1      -3.191  12.417  24.774  0.00  0.00    +0.000 HD
ATOM     31  H   UNL     1      -4.752  12.022  24.212  0.00  0.00    +0.000 HD
ENDBRANCH  12  29
BRANCH  11  32
ATOM     32  C   UNL     1      -1.813  14.038  23.667  0.00  0.00    +0.000 C 
ATOM     33  N   UNL     1      -1.282  14.465  24.729  0.00  0.00    +0.000 NA
ENDBRANCH  11  32
TORSDOF 2
ENDMDL
MODEL 9
REMARK VINA RESULT:      -5.9      2.307      5.603
REMARK  Name = 
REMARK  7 active torsions:
REMARK  status: ('A' for Active; 'I' for Inactive)
REMARK    1  A    between atoms: C_1  and  C_2
REMARK    2  A    between atoms: C_4  and  C_5
REMARK    3  A    between atoms: C_4  and  C_6
REMARK    4  A    between atoms: C_11  and  C_12
REMARK    5  A    between atoms: C_14  and  N_15
REMARK    6  A    between atoms: C_25  and  C_26
REMARK    7  A    between atoms: C_27  and  C_28
REMARK                            x       y       z     vdW  Elec       q    Type
REMARK                         _______ _______ _______ _____ _____    ______ ____
ROOT
ATOM      1  C   UNL     1      10.998  16.638  25.574  0.00  0.00    +0.000 C 
ATOM      2  C   UNL     1       9.666  16.388  24.931  0.00  0.00    +0.000 C 
ATOM      3  C   UNL     1       9.151  17.484  24.297  0.00  0.00    +0.000 C 
ATOM      4  C   UNL     1       7.984  17.311  23.387  0.00  0.00    +0.000 C 
ATOM      5  C   UNL     1       6.794  16.999  24.374  0.00  0.00    +0.000 C 
ATOM      6  C   UNL     1       7.475  18.478  22.541  0.00  0.00    +0.000 C 
ATOM      7  N   UNL     1       8.421  16.189  22.545  0.00  0.00    +0.000 N 
ATOM      8  C   UNL     1       9.095  16.105  21.341  0.00  0.00    +0.000 C 
ATOM      9  O   UNL     1       9.505  17.011  20.662  0.00  0.00    +0.000 OA
ATOM     10  C   UNL     1       9.087  14.555  21.007  0.00  0.00    +0.000 C 
ATOM     11  C   UNL     1       8.018  14.656  19.990  0.00  0.00    +0.000 C 
ATOM     12  C   UNL     1       8.409  14.399  18.694  0.00  0.00    +0.000 C 
ATOM     13  O   UNL     1       9.739  14.533  18.286  0.00  0.00    +0.000 OA
ATOM     14  C   UNL     1      10.759  14.538  19.227  0.00  0.00    +0.000 C 
ATOM     15  C   UNL     1      10.444  14.051  20.431  0.00  0.00    +0.000 C 
ATOM     16  C   UNL     1      11.008  12.612  20.427  0.00  0.00    +0.000 C 
ATOM     17  O   UNL     1      10.560  11.748  21.176  0.00  0.00    +0.000 OA
ATOM     18  C   UNL     1      12.155  12.173  19.454  0.00  0.00    +0.000 C 
ATOM     19  C   UNL     1      12.333  13.033  18.221  0.00  0.00    +0.000 C 
ATOM     20  C   UNL     1      12.138  14.459  18.651  0.00  0.00    +0.000 C 
ATOM     21  C   UNL     1       8.715  13.960  22.334  0.00  0.00    +0.000 A 
ATOM     22  C   UNL     1       8.299  12.764  22.845  0.00  0.00    +0.000 A 
ATOM     23  C   UNL     1       7.891  11.642  21.931  0.00  0.00    +0.000 C 
ATOM     24  C   UNL     1       8.160  12.718  24.254  0.00  0.00    +0.000 A 
ATOM     25  C   UNL     1       7.283  11.639  24.840  0.00  0.00    +0.000 C 
ATOM     26  C   UNL     1       8.678  13.805  25.105  0.00  0.00    +0.000 A 
ATOM     27  C   UNL     1       9.073  15.019  24.541  0.00  0.00    +0.000 A 
ATOM     28  C   UNL     1       8.750  15.019  23.210  0.00  0.00    +0.000 A 
ENDROOT
BRANCH  12  29
ATOM     29  N   UNL     1       7.585  14.167  17.615  0.00  0.00    +0.000 N 
ATOM     30  H   UNL     1       7.991  14.177  16.683  0.00  0.00    +0.000 HD
ATOM     31  H   UNL     1       6.913  13.420  17.768  0.00  0.00    +0.000 HD
ENDBRANCH  12  29
BRANCH  11  32
ATOM     32  C   UNL     1       6.732  15.452  19.851  0.00  0.00    +0.000 C 
ATOM     33  N   UNL     1       5.663  16.113  19.736  0.00  0.00    +0.000 NA
ENDBRANCH  11  32
TORSDOF 2
ENDMDL
