MODEL 1
REMARK VINA RESULT:      -7.0      0.000      0.000
REMARK  Name = 
REMARK  7 active torsions:
REMARK  status: ('A' for Active; 'I' for Inactive)
REMARK    1  A    between atoms: C_1  and  O_2
REMARK    2  A    between atoms: O_2  and  C_3
REMARK    3  A    between atoms: C_3  and  C_4
REMARK    4  A    between atoms: C_4  and  C_5
REMARK    5  A    between atoms: C_4  and  N_8
REMARK    6  A    between atoms: C_5  and  O_6
REMARK    7  A    between atoms: O_6  and  C_7
REMARK                            x       y       z     vdW  Elec       q    Type
REMARK                         _______ _______ _______ _____ _____    ______ ____
ROOT
ATOM      1  N   UNL     1       6.957   5.158  16.987  0.00  0.00    +0.000 NA
ATOM      2  C   UNL     1       6.453   6.558  17.039  0.00  0.00    +0.000 C 
ATOM      3  C   UNL     1       5.013   6.766  16.499  0.00  0.00    +0.000 C 
ATOM      4  N   UNL     1       4.054   5.807  17.104  0.00  0.00    +0.000 N 
ATOM      5  C   UNL     1       3.035   6.262  17.957  0.00  0.00    +0.000 C 
ATOM      6  N   UNL     1       2.934   7.549  18.151  0.00  0.00    +0.000 NA
ATOM      7  C   UNL     1       1.951   8.149  18.942  0.00  0.00    +0.000 A 
ATOM      8  C   UNL     1       1.247   9.216  18.365  0.00  0.00    +0.000 A 
ATOM      9  C   UNL     1       0.270   9.902  19.084  0.00  0.00    +0.000 A 
ATOM     10  C   UNL     1      -0.012   9.540  20.394  0.00  0.00    +0.000 A 
ATOM     11  C   UNL     1       0.698   8.502  21.001  0.00  0.00    +0.000 A 
ATOM     12  C   UNL     1       1.687   7.810  20.284  0.00  0.00    +0.000 A 
ATOM     13  S   UNL     1       2.541   6.454  21.085  0.00  0.00    +0.000 S 
ATOM     14  C   UNL     1       1.962   5.172  19.985  0.00  0.00    +0.000 A 
ATOM     15  C   UNL     1       1.282   4.081  20.541  0.00  0.00    +0.000 A 
ATOM     16  C   UNL     1       0.729   3.097  19.720  0.00  0.00    +0.000 A 
ATOM     17  C   UNL     1       0.815   3.214  18.334  0.00  0.00    +0.000 A 
ATOM     18  C   UNL     1       1.487   4.298  17.768  0.00  0.00    +0.000 A 
ATOM     19  C   UNL     1       2.110   5.251  18.591  0.00  0.00    +0.000 A 
ATOM     20  C   UNL     1       4.547   4.419  17.097  0.00  0.00    +0.000 C 
ATOM     21  C   UNL     1       5.953   4.348  17.721  0.00  0.00    +0.000 C 
ENDROOT
BRANCH   1  22
ATOM     22  C   UNL     1       7.187   4.649  15.594  0.00  0.00    +0.000 C 
BRANCH  22  23
ATOM     23  C   UNL     1       6.104   3.652  15.108  0.00  0.00    +0.000 C 
BRANCH  23  25
ATOM     24  C   UNL     1       5.642   3.307  12.817  0.00  0.00    +0.000 C 
ATOM     25  O   UNL     1       5.482   4.181  13.926  0.00  0.00    +0.000 OA
ENDBRANCH  23  25
ENDBRANCH  22  23
BRANCH  22  26
ATOM     26  C   UNL     1       7.324   5.782  14.529  0.00  0.00    +0.000 C 
BRANCH  26  27
ATOM     27  O   UNL     1       8.524   5.643  13.763  0.00  0.00    +0.000 OA
ATOM     28  C   UNL     1       8.284   5.842  12.377  0.00  0.00    +0.000 C 
ENDBRANCH  26  27
ENDBRANCH  22  26
ENDBRANCH   1  22
TORSDOF 5
ENDMDL
MODEL 2
REMARK VINA RESULT:      -7.0      7.780      9.125
REMARK  Name = 
REMARK  7 active torsions:
REMARK  status: ('A' for Active; 'I' for Inactive)
REMARK    1  A    between atoms: C_1  and  O_2
REMARK    2  A    between atoms: O_2  and  C_3
REMARK    3  A    between atoms: C_3  and  C_4
REMARK    4  A    between atoms: C_4  and  C_5
REMARK    5  A    between atoms: C_4  and  N_8
REMARK    6  A    between atoms: C_5  and  O_6
REMARK    7  A    between atoms: O_6  and  C_7
REMARK                            x       y       z     vdW  Elec       q    Type
REMARK                         _______ _______ _______ _____ _____    ______ ____
ROOT
ATOM      1  N   UNL     1       3.003  15.199  19.729  0.00  0.00    +0.000 NA
ATOM      2  C   UNL     1       2.153  14.953  18.532  0.00  0.00    +0.000 C 
ATOM      3  C   UNL     1       1.869  13.461  18.215  0.00  0.00    +0.000 C 
ATOM      4  N   UNL     1       1.374  12.729  19.407  0.00  0.00    +0.000 N 
ATOM      5  C   UNL     1       0.060  12.233  19.444  0.00  0.00    +0.000 C 
ATOM      6  N   UNL     1      -0.680  12.394  18.381  0.00  0.00    +0.000 NA
ATOM      7  C   UNL     1      -1.990  11.924  18.258  0.00  0.00    +0.000 A 
ATOM      8  C   UNL     1      -2.286  11.190  17.100  0.00  0.00    +0.000 A 
ATOM      9  C   UNL     1      -3.572  10.705  16.868  0.00  0.00    +0.000 A 
ATOM     10  C   UNL     1      -4.585  10.956  17.783  0.00  0.00    +0.000 A 
ATOM     11  C   UNL     1      -4.323  11.712  18.928  0.00  0.00    +0.000 A 
ATOM     12  C   UNL     1      -3.030  12.207  19.165  0.00  0.00    +0.000 A 
ATOM     13  S   UNL     1      -2.725  13.133  20.669  0.00  0.00    +0.000 S 
ATOM     14  C   UNL     1      -1.562  11.981  21.382  0.00  0.00    +0.000 A 
ATOM     15  C   UNL     1      -1.842  11.461  22.653  0.00  0.00    +0.000 A 
ATOM     16  C   UNL     1      -1.014  10.489  23.219  0.00  0.00    +0.000 A 
ATOM     17  C   UNL     1       0.076   9.998  22.505  0.00  0.00    +0.000 A 
ATOM     18  C   UNL     1       0.363  10.506  21.237  0.00  0.00    +0.000 A 
ATOM     19  C   UNL     1      -0.422  11.537  20.694  0.00  0.00    +0.000 A 
ATOM     20  C   UNL     1       2.178  12.985  20.614  0.00  0.00    +0.000 C 
ATOM     21  C   UNL     1       2.323  14.501  20.848  0.00  0.00    +0.000 C 
ENDROOT
BRANCH   1  22
ATOM     22  C   UNL     1       4.426  14.752  19.563  0.00  0.00    +0.000 C 
BRANCH  22  23
ATOM     23  C   UNL     1       5.127  15.353  18.318  0.00  0.00    +0.000 C 
BRANCH  23  25
ATOM     24  C   UNL     1       7.364  14.939  17.681  0.00  0.00    +0.000 C 
ATOM     25  O   UNL     1       6.059  14.390  17.798  0.00  0.00    +0.000 OA
ENDBRANCH  23  25
ENDBRANCH  22  23
BRANCH  22  26
ATOM     26  C   UNL     1       5.320  15.031  20.812  0.00  0.00    +0.000 C 
BRANCH  26  27
ATOM     27  O   UNL     1       5.923  16.326  20.750  0.00  0.00    +0.000 OA
ATOM     28  C   UNL     1       5.361  17.210  21.709  0.00  0.00    +0.000 C 
ENDBRANCH  26  27
ENDBRANCH  22  26
ENDBRANCH   1  22
TORSDOF 5
ENDMDL
MODEL 3
REMARK VINA RESULT:      -6.9      8.730     12.315
REMARK  Name = 
REMARK  7 active torsions:
REMARK  status: ('A' for Active; 'I' for Inactive)
REMARK    1  A    between atoms: C_1  and  O_2
REMARK    2  A    between atoms: O_2  and  C_3
REMARK    3  A    between atoms: C_3  and  C_4
REMARK    4  A    between atoms: C_4  and  C_5
REMARK    5  A    between atoms: C_4  and  N_8
REMARK    6  A    between atoms: C_5  and  O_6
REMARK    7  A    between atoms: O_6  and  C_7
REMARK                            x       y       z     vdW  Elec       q    Type
REMARK                         _______ _______ _______ _____ _____    ______ ____
ROOT
ATOM      1  N   UNL     1      -2.128  13.767  23.882  0.00  0.00    +0.000 NA
ATOM      2  C   UNL     1      -3.206  13.209  23.020  0.00  0.00    +0.000 C 
ATOM      3  C   UNL     1      -3.292  13.810  21.592  0.00  0.00    +0.000 C 
ATOM      4  N   UNL     1      -1.974  13.800  20.909  0.00  0.00    +0.000 N 
ATOM      5  C   UNL     1      -1.761  12.988  19.783  0.00  0.00    +0.000 C 
ATOM      6  N   UNL     1      -2.771  12.293  19.335  0.00  0.00    +0.000 NA
ATOM      7  C   UNL     1      -2.720  11.471  18.207  0.00  0.00    +0.000 A 
ATOM      8  C   UNL     1      -3.738  11.645  17.258  0.00  0.00    +0.000 A 
ATOM      9  C   UNL     1      -3.795  10.852  16.113  0.00  0.00    +0.000 A 
ATOM     10  C   UNL     1      -2.842   9.865  15.904  0.00  0.00    +0.000 A 
ATOM     11  C   UNL     1      -1.837   9.651  16.850  0.00  0.00    +0.000 A 
ATOM     12  C   UNL     1      -1.777  10.443  18.008  0.00  0.00    +0.000 A 
ATOM     13  S   UNL     1      -0.444  10.167  19.172  0.00  0.00    +0.000 S 
ATOM     14  C   UNL     1       0.321  11.769  18.988  0.00  0.00    +0.000 A 
ATOM     15  C   UNL     1       1.669  11.819  18.610  0.00  0.00    +0.000 A 
ATOM     16  C   UNL     1       2.292  13.044  18.364  0.00  0.00    +0.000 A 
ATOM     17  C   UNL     1       1.564  14.228  18.452  0.00  0.00    +0.000 A 
ATOM     18  C   UNL     1       0.220  14.192  18.824  0.00  0.00    +0.000 A 
ATOM     19  C   UNL     1      -0.392  12.968  19.147  0.00  0.00    +0.000 A 
ATOM     20  C   UNL     1      -0.884  14.314  21.756  0.00  0.00    +0.000 C 
ATOM     21  C   UNL     1      -0.872  13.585  23.113  0.00  0.00    +0.000 C 
ENDROOT
BRANCH   1  22
ATOM     22  C   UNL     1      -2.349  15.197  24.277  0.00  0.00    +0.000 C 
BRANCH  22  23
ATOM     23  C   UNL     1      -3.586  15.409  25.186  0.00  0.00    +0.000 C 
BRANCH  23  25
ATOM     24  C   UNL     1      -4.892  17.375  25.094  0.00  0.00    +0.000 C 
ATOM     25  O   UNL     1      -4.581  16.144  24.456  0.00  0.00    +0.000 OA
ENDBRANCH  23  25
ENDBRANCH  22  23
BRANCH  22  26
ATOM     26  C   UNL     1      -1.113  15.853  24.969  0.00  0.00    +0.000 C 
BRANCH  26  27
ATOM     27  O   UNL     1      -1.130  15.648  26.384  0.00  0.00    +0.000 OA
ATOM     28  C   UNL     1      -0.559  16.748  27.077  0.00  0.00    +0.000 C 
ENDBRANCH  26  27
ENDBRANCH  22  26
ENDBRANCH   1  22
TORSDOF 5
ENDMDL
MODEL 4
REMARK VINA RESULT:      -6.8     10.195     12.896
REMARK  Name = 
REMARK  7 active torsions:
REMARK  status: ('A' for Active; 'I' for Inactive)
REMARK    1  A    between atoms: C_1  and  O_2
REMARK    2  A    between atoms: O_2  and  C_3
REMARK    3  A    between atoms: C_3  and  C_4
REMARK    4  A    between atoms: C_4  and  C_5
REMARK    5  A    between atoms: C_4  and  N_8
REMARK    6  A    between atoms: C_5  and  O_6
REMARK    7  A    between atoms: O_6  and  C_7
REMARK                            x       y       z     vdW  Elec       q    Type
REMARK                         _______ _______ _______ _____ _____    ______ ____
ROOT
ATOM      1  N   UNL     1       6.965  13.482  23.734  0.00  0.00    +0.000 NA
ATOM      2  C   UNL     1       7.450  14.870  23.502  0.00  0.00    +0.000 C 
ATOM      3  C   UNL     1       8.972  15.005  23.232  0.00  0.00    +0.000 C 
ATOM      4  N   UNL     1       9.428  14.073  22.171  0.00  0.00    +0.000 N 
ATOM      5  C   UNL     1       9.890  14.567  20.939  0.00  0.00    +0.000 C 
ATOM      6  N   UNL     1       9.950  15.862  20.788  0.00  0.00    +0.000 NA
ATOM      7  C   UNL     1      10.421  16.496  19.636  0.00  0.00    +0.000 A 
ATOM      8  C   UNL     1      11.381  17.502  19.821  0.00  0.00    +0.000 A 
ATOM      9  C   UNL     1      11.889  18.217  18.738  0.00  0.00    +0.000 A 
ATOM     10  C   UNL     1      11.438  17.947  17.454  0.00  0.00    +0.000 A 
ATOM     11  C   UNL     1      10.458  16.973  17.247  0.00  0.00    +0.000 A 
ATOM     12  C   UNL     1       9.939  16.252  18.334  0.00  0.00    +0.000 A 
ATOM     13  S   UNL     1       8.719  14.978  18.019  0.00  0.00    +0.000 S 
ATOM     14  C   UNL     1       9.706  13.606  18.595  0.00  0.00    +0.000 A 
ATOM     15  C   UNL     1       9.941  12.545  17.712  0.00  0.00    +0.000 A 
ATOM     16  C   UNL     1      10.780  11.490  18.078  0.00  0.00    +0.000 A 
ATOM     17  C   UNL     1      11.423  11.506  19.313  0.00  0.00    +0.000 A 
ATOM     18  C   UNL     1      11.200  12.560  20.200  0.00  0.00    +0.000 A 
ATOM     19  C   UNL     1      10.298  13.585  19.867  0.00  0.00    +0.000 A 
ATOM     20  C   UNL     1       8.931  12.700  22.358  0.00  0.00    +0.000 C 
ATOM     21  C   UNL     1       7.402  12.706  22.546  0.00  0.00    +0.000 C 
ENDROOT
BRANCH   1  22
ATOM     22  C   UNL     1       7.453  12.877  25.017  0.00  0.00    +0.000 C 
BRANCH  22  23
ATOM     23  C   UNL     1       7.298  13.811  26.245  0.00  0.00    +0.000 C 
BRANCH  23  25
ATOM     24  C   UNL     1       8.628  15.393  27.390  0.00  0.00    +0.000 C 
ATOM     25  O   UNL     1       8.603  14.118  26.763  0.00  0.00    +0.000 OA
ENDBRANCH  23  25
ENDBRANCH  22  23
BRANCH  22  26
ATOM     26  C   UNL     1       6.787  11.506  25.355  0.00  0.00    +0.000 C 
BRANCH  26  27
ATOM     27  O   UNL     1       5.364  11.617  25.439  0.00  0.00    +0.000 OA
ATOM     28  C   UNL     1       4.833  10.772  26.450  0.00  0.00    +0.000 C 
ENDBRANCH  26  27
ENDBRANCH  22  26
ENDBRANCH   1  22
TORSDOF 5
ENDMDL
MODEL 5
REMARK VINA RESULT:      -6.6      9.566     12.423
REMARK  Name = 
REMARK  7 active torsions:
REMARK  status: ('A' for Active; 'I' for Inactive)
REMARK    1  A    between atoms: C_1  and  O_2
REMARK    2  A    between atoms: O_2  and  C_3
REMARK    3  A    between atoms: C_3  and  C_4
REMARK    4  A    between atoms: C_4  and  C_5
REMARK    5  A    between atoms: C_4  and  N_8
REMARK    6  A    between atoms: C_5  and  O_6
REMARK    7  A    between atoms: O_6  and  C_7
REMARK                            x       y       z     vdW  Elec       q    Type
REMARK                         _______ _______ _______ _____ _____    ______ ____
ROOT
ATOM      1  N   UNL     1       3.747  15.399  19.606  0.00  0.00    +0.000 NA
ATOM      2  C   UNL     1       4.468  14.597  18.580  0.00  0.00    +0.000 C 
ATOM      3  C   UNL     1       5.814  15.197  18.094  0.00  0.00    +0.000 C 
ATOM      4  N   UNL     1       6.695  15.566  19.231  0.00  0.00    +0.000 N 
ATOM      5  C   UNL     1       7.900  14.877  19.451  0.00  0.00    +0.000 C 
ATOM      6  N   UNL     1       8.234  13.948  18.596  0.00  0.00    +0.000 NA
ATOM      7  C   UNL     1       9.415  13.207  18.665  0.00  0.00    +0.000 A 
ATOM      8  C   UNL     1      10.175  13.127  17.489  0.00  0.00    +0.000 A 
ATOM      9  C   UNL     1      11.354  12.385  17.444  0.00  0.00    +0.000 A 
ATOM     10  C   UNL     1      11.786  11.700  18.572  0.00  0.00    +0.000 A 
ATOM     11  C   UNL     1      11.030  11.737  19.746  0.00  0.00    +0.000 A 
ATOM     12  C   UNL     1       9.839  12.479  19.795  0.00  0.00    +0.000 A 
ATOM     13  S   UNL     1       8.924  12.538  21.335  0.00  0.00    +0.000 S 
ATOM     14  C   UNL     1       9.104  14.293  21.609  0.00  0.00    +0.000 A 
ATOM     15  C   UNL     1       9.686  14.718  22.811  0.00  0.00    +0.000 A 
ATOM     16  C   UNL     1       9.933  16.073  23.039  0.00  0.00    +0.000 A 
ATOM     17  C   UNL     1       9.641  17.012  22.053  0.00  0.00    +0.000 A 
ATOM     18  C   UNL     1       9.065  16.601  20.850  0.00  0.00    +0.000 A 
ATOM     19  C   UNL     1       8.744  15.248  20.646  0.00  0.00    +0.000 A 
ATOM     20  C   UNL     1       5.995  16.329  20.277  0.00  0.00    +0.000 C 
ATOM     21  C   UNL     1       4.717  15.588  20.714  0.00  0.00    +0.000 C 
ENDROOT
BRANCH   1  22
ATOM     22  C   UNL     1       3.214  16.703  19.091  0.00  0.00    +0.000 C 
BRANCH  22  23
ATOM     23  C   UNL     1       2.286  16.554  17.858  0.00  0.00    +0.000 C 
BRANCH  23  25
ATOM     24  C   UNL     1       1.217  18.334  16.732  0.00  0.00    +0.000 C 
ATOM     25  O   UNL     1       2.457  17.697  17.005  0.00  0.00    +0.000 OA
ENDBRANCH  23  25
ENDBRANCH  22  23
BRANCH  22  26
ATOM     26  C   UNL     1       2.463  17.544  20.171  0.00  0.00    +0.000 C 
BRANCH  26  27
ATOM     27  O   UNL     1       1.256  16.904  20.592  0.00  0.00    +0.000 OA
ATOM     28  C   UNL     1       1.182  16.807  22.007  0.00  0.00    +0.000 C 
ENDBRANCH  26  27
ENDBRANCH  22  26
ENDBRANCH   1  22
TORSDOF 5
ENDMDL
MODEL 6
REMARK VINA RESULT:      -6.6      8.057      9.413
REMARK  Name = 
REMARK  7 active torsions:
REMARK  status: ('A' for Active; 'I' for Inactive)
REMARK    1  A    between atoms: C_1  and  O_2
REMARK    2  A    between atoms: O_2  and  C_3
REMARK    3  A    between atoms: C_3  and  C_4
REMARK    4  A    between atoms: C_4  and  C_5
REMARK    5  A    between atoms: C_4  and  N_8
REMARK    6  A    between atoms: C_5  and  O_6
REMARK    7  A    between atoms: O_6  and  C_7
REMARK                            x       y       z     vdW  Elec       q    Type
REMARK                         _______ _______ _______ _____ _____    ______ ____
ROOT
ATOM      1  N   UNL     1       2.999  15.391  20.094  0.00  0.00    +0.000 NA
ATOM      2  C   UNL     1       2.178  15.187  18.869  0.00  0.00    +0.000 C 
ATOM      3  C   UNL     1       1.949  13.707  18.463  0.00  0.00    +0.000 C 
ATOM      4  N   UNL     1       1.457  12.892  19.603  0.00  0.00    +0.000 N 
ATOM      5  C   UNL     1       0.160  12.354  19.586  0.00  0.00    +0.000 C 
ATOM      6  N   UNL     1      -0.567  12.551  18.520  0.00  0.00    +0.000 NA
ATOM      7  C   UNL     1      -1.858  12.048  18.346  0.00  0.00    +0.000 A 
ATOM      8  C   UNL     1      -2.111  11.372  17.144  0.00  0.00    +0.000 A 
ATOM      9  C   UNL     1      -3.376  10.861  16.860  0.00  0.00    +0.000 A 
ATOM     10  C   UNL     1      -4.412  11.027  17.769  0.00  0.00    +0.000 A 
ATOM     11  C   UNL     1      -4.194  11.724  18.959  0.00  0.00    +0.000 A 
ATOM     12  C   UNL     1      -2.923  12.246  19.248  0.00  0.00    +0.000 A 
ATOM     13  S   UNL     1      -2.674  13.093  20.807  0.00  0.00    +0.000 S 
ATOM     14  C   UNL     1      -1.486  11.940  21.476  0.00  0.00    +0.000 A 
ATOM     15  C   UNL     1      -1.770  11.339  22.710  0.00  0.00    +0.000 A 
ATOM     16  C   UNL     1      -0.921  10.364  23.236  0.00  0.00    +0.000 A 
ATOM     17  C   UNL     1       0.197   9.950  22.516  0.00  0.00    +0.000 A 
ATOM     18  C   UNL     1       0.489  10.538  21.285  0.00  0.00    +0.000 A 
ATOM     19  C   UNL     1      -0.320  11.573  20.786  0.00  0.00    +0.000 A 
ATOM     20  C   UNL     1       2.232  13.105  20.837  0.00  0.00    +0.000 C 
ATOM     21  C   UNL     1       2.323  14.608  21.159  0.00  0.00    +0.000 C 
ENDROOT
BRANCH   1  22
ATOM     22  C   UNL     1       4.438  14.999  19.930  0.00  0.00    +0.000 C 
BRANCH  22  23
ATOM     23  C   UNL     1       5.269  16.012  19.101  0.00  0.00    +0.000 C 
BRANCH  23  25
ATOM     24  C   UNL     1       5.923  18.016  20.169  0.00  0.00    +0.000 C 
ATOM     25  O   UNL     1       4.882  17.345  19.472  0.00  0.00    +0.000 OA
ENDBRANCH  23  25
ENDBRANCH  22  23
BRANCH  22  26
ATOM     26  C   UNL     1       5.177  14.748  21.282  0.00  0.00    +0.000 C 
BRANCH  26  27
ATOM     27  O   UNL     1       6.568  14.486  21.082  0.00  0.00    +0.000 OA
ATOM     28  C   UNL     1       7.210  14.124  22.296  0.00  0.00    +0.000 C 
ENDBRANCH  26  27
ENDBRANCH  22  26
ENDBRANCH   1  22
TORSDOF 5
ENDMDL
MODEL 7
REMARK VINA RESULT:      -6.4      9.554     12.646
REMARK  Name = 
REMARK  7 active torsions:
REMARK  status: ('A' for Active; 'I' for Inactive)
REMARK    1  A    between atoms: C_1  and  O_2
REMARK    2  A    between atoms: O_2  and  C_3
REMARK    3  A    between atoms: C_3  and  C_4
REMARK    4  A    between atoms: C_4  and  C_5
REMARK    5  A    between atoms: C_4  and  N_8
REMARK    6  A    between atoms: C_5  and  O_6
REMARK    7  A    between atoms: O_6  and  C_7
REMARK                            x       y       z     vdW  Elec       q    Type
REMARK                         _______ _______ _______ _____ _____    ______ ____
ROOT
ATOM      1  N   UNL     1       7.506  13.336  25.460  0.00  0.00    +0.000 NA
ATOM      2  C   UNL     1       8.146  12.252  24.665  0.00  0.00    +0.000 C 
ATOM      3  C   UNL     1       7.537  12.013  23.258  0.00  0.00    +0.000 C 
ATOM      4  N   UNL     1       7.424  13.275  22.485  0.00  0.00    +0.000 N 
ATOM      5  C   UNL     1       8.201  13.476  21.332  0.00  0.00    +0.000 C 
ATOM      6  N   UNL     1       8.976  12.500  20.944  0.00  0.00    +0.000 NA
ATOM      7  C   UNL     1       9.777  12.541  19.800  0.00  0.00    +0.000 A 
ATOM      8  C   UNL     1       9.681  11.447  18.928  0.00  0.00    +0.000 A 
ATOM      9  C   UNL     1      10.462  11.377  17.776  0.00  0.00    +0.000 A 
ATOM     10  C   UNL     1      11.360  12.394  17.483  0.00  0.00    +0.000 A 
ATOM     11  C   UNL     1      11.497  13.479  18.352  0.00  0.00    +0.000 A 
ATOM     12  C   UNL     1      10.716  13.552  19.516  0.00  0.00    +0.000 A 
ATOM     13  S   UNL     1      10.889  14.984  20.580  0.00  0.00    +0.000 S 
ATOM     14  C   UNL     1       9.224  15.593  20.371  0.00  0.00    +0.000 A 
ATOM     15  C   UNL     1       9.052  16.902  19.901  0.00  0.00    +0.000 A 
ATOM     16  C   UNL     1       7.775  17.398  19.634  0.00  0.00    +0.000 A 
ATOM     17  C   UNL     1       6.660  16.578  19.795  0.00  0.00    +0.000 A 
ATOM     18  C   UNL     1       6.818  15.272  20.259  0.00  0.00    +0.000 A 
ATOM     19  C   UNL     1       8.094  14.792  20.601  0.00  0.00    +0.000 A 
ATOM     20  C   UNL     1       6.827  14.374  23.262  0.00  0.00    +0.000 C 
ATOM     21  C   UNL     1       7.569  14.546  24.601  0.00  0.00    +0.000 C 
ENDROOT
BRANCH   1  22
ATOM     22  C   UNL     1       6.105  13.022  25.895  0.00  0.00    +0.000 C 
BRANCH  22  23
ATOM     23  C   UNL     1       5.941  11.598  26.486  0.00  0.00    +0.000 C 
BRANCH  23  25
ATOM     24  C   UNL     1       4.170  10.087  26.885  0.00  0.00    +0.000 C 
ATOM     25  O   UNL     1       4.591  11.442  26.955  0.00  0.00    +0.000 OA
ENDBRANCH  23  25
ENDBRANCH  22  23
BRANCH  22  26
ATOM     26  C   UNL     1       5.522  14.048  26.917  0.00  0.00    +0.000 C 
BRANCH  26  27
ATOM     27  O   UNL     1       4.532  14.887  26.315  0.00  0.00    +0.000 OA
ATOM     28  C   UNL     1       4.520  16.181  26.900  0.00  0.00    +0.000 C 
ENDBRANCH  26  27
ENDBRANCH  22  26
ENDBRANCH   1  22
TORSDOF 5
ENDMDL
MODEL 8
REMARK VINA RESULT:      -6.4      4.036      8.117
REMARK  Name = 
REMARK  7 active torsions:
REMARK  status: ('A' for Active; 'I' for Inactive)
REMARK    1  A    between atoms: C_1  and  O_2
REMARK    2  A    between atoms: O_2  and  C_3
REMARK    3  A    between atoms: C_3  and  C_4
REMARK    4  A    between atoms: C_4  and  C_5
REMARK    5  A    between atoms: C_4  and  N_8
REMARK    6  A    between atoms: C_5  and  O_6
REMARK    7  A    between atoms: O_6  and  C_7
REMARK                            x       y       z     vdW  Elec       q    Type
REMARK                         _______ _______ _______ _____ _____    ______ ____
ROOT
ATOM      1  N   UNL     1      -0.133   9.580  20.300  0.00  0.00    +0.000 NA
ATOM      2  C   UNL     1       0.957   9.614  19.287  0.00  0.00    +0.000 C 
ATOM      3  C   UNL     1       2.288   8.946  19.721  0.00  0.00    +0.000 C 
ATOM      4  N   UNL     1       2.069   7.578  20.255  0.00  0.00    +0.000 N 
ATOM      5  C   UNL     1       2.558   6.457  19.564  0.00  0.00    +0.000 C 
ATOM      6  N   UNL     1       3.249   6.666  18.477  0.00  0.00    +0.000 NA
ATOM      7  C   UNL     1       3.827   5.654  17.707  0.00  0.00    +0.000 A 
ATOM      8  C   UNL     1       5.180   5.816  17.372  0.00  0.00    +0.000 A 
ATOM      9  C   UNL     1       5.840   4.879  16.580  0.00  0.00    +0.000 A 
ATOM     10  C   UNL     1       5.156   3.770  16.100  0.00  0.00    +0.000 A 
ATOM     11  C   UNL     1       3.800   3.603  16.392  0.00  0.00    +0.000 A 
ATOM     12  C   UNL     1       3.129   4.547  17.186  0.00  0.00    +0.000 A 
ATOM     13  S   UNL     1       1.402   4.270  17.576  0.00  0.00    +0.000 S 
ATOM     14  C   UNL     1       1.617   4.108  19.341  0.00  0.00    +0.000 A 
ATOM     15  C   UNL     1       1.167   2.932  19.956  0.00  0.00    +0.000 A 
ATOM     16  C   UNL     1       1.391   2.713  21.317  0.00  0.00    +0.000 A 
ATOM     17  C   UNL     1       2.103   3.647  22.067  0.00  0.00    +0.000 A 
ATOM     18  C   UNL     1       2.560   4.820  21.465  0.00  0.00    +0.000 A 
ATOM     19  C   UNL     1       2.272   5.080  20.114  0.00  0.00    +0.000 A 
ATOM     20  C   UNL     1       0.970   7.512  21.233  0.00  0.00    +0.000 C 
ATOM     21  C   UNL     1      -0.305   8.148  20.649  0.00  0.00    +0.000 C 
ENDROOT
BRANCH   1  22
ATOM     22  C   UNL     1       0.137  10.429  21.508  0.00  0.00    +0.000 C 
BRANCH  22  23
ATOM     23  C   UNL     1       0.329  11.932  21.183  0.00  0.00    +0.000 C 
BRANCH  23  25
ATOM     24  C   UNL     1      -0.818  13.789  20.277  0.00  0.00    +0.000 C 
ATOM     25  O   UNL     1      -0.757  12.371  20.350  0.00  0.00    +0.000 OA
ENDBRANCH  23  25
ENDBRANCH  22  23
BRANCH  22  26
ATOM     26  C   UNL     1      -0.953  10.302  22.618  0.00  0.00    +0.000 C 
BRANCH  26  27
ATOM     27  O   UNL     1      -1.126  11.531  23.330  0.00  0.00    +0.000 OA
ATOM     28  C   UNL     1      -2.490  11.924  23.367  0.00  0.00    +0.000 C 
ENDBRANCH  26  27
ENDBRANCH  22  26
ENDBRANCH   1  22
TORSDOF 5
ENDMDL
MODEL 9
REMARK VINA RESULT:      -6.4      8.820     12.674
REMARK  Name = 
REMARK  7 active torsions:
REMARK  status: ('A' for Active; 'I' for Inactive)
REMARK    1  A    between atoms: C_1  and  O_2
REMARK    2  A    between atoms: O_2  and  C_3
REMARK    3  A    between atoms: C_3  and  C_4
REMARK    4  A    between atoms: C_4  and  C_5
REMARK    5  A    between atoms: C_4  and  N_8
REMARK    6  A    between atoms: C_5  and  O_6
REMARK    7  A    between atoms: O_6  and  C_7
REMARK                            x       y       z     vdW  Elec       q    Type
REMARK                         _______ _______ _______ _____ _____    ______ ____
ROOT
ATOM      1  N   UNL     1      -5.004  14.308  22.107  0.00  0.00    +0.000 NA
ATOM      2  C   UNL     1      -3.936  15.248  21.672  0.00  0.00    +0.000 C 
ATOM      3  C   UNL     1      -2.555  15.043  22.349  0.00  0.00    +0.000 C 
ATOM      4  N   UNL     1      -2.111  13.628  22.278  0.00  0.00    +0.000 N 
ATOM      5  C   UNL     1      -0.991  13.270  21.510  0.00  0.00    +0.000 C 
ATOM      6  N   UNL     1      -0.333  14.225  20.913  0.00  0.00    +0.000 NA
ATOM      7  C   UNL     1       0.818  14.026  20.147  0.00  0.00    +0.000 A 
ATOM      8  C   UNL     1       1.916  14.847  20.440  0.00  0.00    +0.000 A 
ATOM      9  C   UNL     1       3.100  14.749  19.711  0.00  0.00    +0.000 A 
ATOM     10  C   UNL     1       3.201  13.837  18.670  0.00  0.00    +0.000 A 
ATOM     11  C   UNL     1       2.111  13.030  18.337  0.00  0.00    +0.000 A 
ATOM     12  C   UNL     1       0.914  13.128  19.065  0.00  0.00    +0.000 A 
ATOM     13  S   UNL     1      -0.445  12.042  18.636  0.00  0.00    +0.000 S 
ATOM     14  C   UNL     1      -0.496  11.159  20.187  0.00  0.00    +0.000 A 
ATOM     15  C   UNL     1      -0.361   9.765  20.159  0.00  0.00    +0.000 A 
ATOM     16  C   UNL     1      -0.303   9.033  21.347  0.00  0.00    +0.000 A 
ATOM     17  C   UNL     1      -0.336   9.691  22.574  0.00  0.00    +0.000 A 
ATOM     18  C   UNL     1      -0.467  11.080  22.616  0.00  0.00    +0.000 A 
ATOM     19  C   UNL     1      -0.602  11.814  21.424  0.00  0.00    +0.000 A 
ATOM     20  C   UNL     1      -3.164  12.676  22.670  0.00  0.00    +0.000 C 
ATOM     21  C   UNL     1      -4.455  12.949  21.875  0.00  0.00    +0.000 C 
ENDROOT
BRANCH   1  22
ATOM     22  C   UNL     1      -5.443  14.507  23.528  0.00  0.00    +0.000 C 
BRANCH  22  23
ATOM     23  C   UNL     1      -5.743  15.984  23.887  0.00  0.00    +0.000 C 
BRANCH  23  25
ATOM     24  C   UNL     1      -4.953  17.796  25.182  0.00  0.00    +0.000 C 
ATOM     25  O   UNL     1      -4.849  16.401  24.932  0.00  0.00    +0.000 OA
ENDBRANCH  23  25
ENDBRANCH  22  23
BRANCH  22  26
ATOM     26  C   UNL     1      -6.680  13.643  23.928  0.00  0.00    +0.000 C 
BRANCH  26  27
ATOM     27  O   UNL     1      -7.669  13.628  22.895  0.00  0.00    +0.000 OA
ATOM     28  C   UNL     1      -7.917  12.309  22.429  0.00  0.00    +0.000 C 
ENDBRANCH  26  27
ENDBRANCH  22  26
ENDBRANCH   1  22
TORSDOF 5
ENDMDL
