MODEL 1
REMARK VINA RESULT:      -8.6      0.000      0.000
REMARK  Name = 
REMARK  8 active torsions:
REMARK  status: ('A' for Active; 'I' for Inactive)
REMARK    1  A    between atoms: C_2  and  O_3
REMARK    2  A    between atoms: C_2  and  C_4
REMARK    3  A    between atoms: C_6  and  N_7
REMARK    4  A    between atoms: C_12  and  N_13
REMARK    5  A    between atoms: N_13  and  C_14
REMARK    6  A    between atoms: C_18  and  O_19
REMARK    7  A    between atoms: O_19  and  C_20
REMARK    8  A    between atoms: C_20  and  C_21
REMARK                            x       y       z     vdW  Elec       q    Type
REMARK                         _______ _______ _______ _____ _____    ______ ____
ROOT
ATOM      1  N   UNL     1       5.154   4.214  19.321  0.00  0.00    +0.000 N 
ATOM      2  H   UNL     1       5.628   4.851  19.973  0.00  0.00    +0.000 HD
ENDROOT
BRANCH   1   8
ATOM      3  C   UNL     1       6.864   5.094  17.744  0.00  0.00    +0.000 A 
ATOM      4  C   UNL     1       7.346   5.244  16.429  0.00  0.00    +0.000 A 
ATOM      5  C   UNL     1       6.668   4.635  15.365  0.00  0.00    +0.000 A 
ATOM      6  C   UNL     1       5.561   3.828  15.614  0.00  0.00    +0.000 A 
ATOM      7  C   UNL     1       5.118   3.655  16.925  0.00  0.00    +0.000 A 
ATOM      8  C   UNL     1       5.680   4.360  18.003  0.00  0.00    +0.000 A 
BRANCH   5   9
ATOM      9  N   UNL     1       7.127   4.820  13.985  0.00  0.00    +0.000 N 
ATOM     10  O   UNL     1       8.013   5.662  13.780  0.00  0.00    +0.000 OA
ATOM     11  O   UNL     1       6.598   4.127  13.106  0.00  0.00    +0.000 OA
ENDBRANCH   5   9
BRANCH   3  13
ATOM     12  O   UNL     1       7.919   5.230  19.876  0.00  0.00    +0.000 OA
ATOM     13  C   UNL     1       7.675   5.755  18.808  0.00  0.00    +0.000 C 
BRANCH  13  14
ATOM     14  O   UNL     1       8.077   7.004  18.489  0.00  0.00    +0.000 OA
ATOM     15  H   UNL     1       8.190   7.601  19.259  0.00  0.00    +0.000 HD
ENDBRANCH  13  14
ENDBRANCH   3  13
ENDBRANCH   1   8
BRANCH   1  16
ATOM     16  C   UNL     1       3.788   4.153  19.722  0.00  0.00    +0.000 A 
ATOM     17  C   UNL     1       3.183   2.894  19.836  0.00  0.00    +0.000 A 
ATOM     18  C   UNL     1       1.848   2.769  20.231  0.00  0.00    +0.000 A 
ATOM     19  C   UNL     1       1.103   3.904  20.543  0.00  0.00    +0.000 A 
ATOM     20  C   UNL     1       1.710   5.154  20.514  0.00  0.00    +0.000 A 
ATOM     21  C   UNL     1       3.045   5.273  20.115  0.00  0.00    +0.000 A 
BRANCH  20  22
ATOM     22  O   UNL     1       1.087   6.326  20.848  0.00  0.00    +0.000 OA
BRANCH  22  23
ATOM     23  C   UNL     1       1.807   7.504  20.482  0.00  0.00    +0.000 C 
BRANCH  23  24
ATOM     24  C   UNL     1       0.984   8.697  20.882  0.00  0.00    +0.000 A 
ATOM     25  C   UNL     1       0.508   9.598  19.922  0.00  0.00    +0.000 A 
ATOM     26  C   UNL     1      -0.232  10.713  20.317  0.00  0.00    +0.000 A 
ATOM     27  C   UNL     1      -0.495  10.936  21.668  0.00  0.00    +0.000 A 
ATOM     28  C   UNL     1      -0.021  10.045  22.629  0.00  0.00    +0.000 A 
ATOM     29  C   UNL     1       0.720   8.931  22.238  0.00  0.00    +0.000 A 
ENDBRANCH  23  24
ENDBRANCH  22  23
ENDBRANCH  20  22
ENDBRANCH   1  16
TORSDOF 8
ENDMDL
MODEL 2
REMARK VINA RESULT:      -8.6      0.114      1.268
REMARK  Name = 
REMARK  8 active torsions:
REMARK  status: ('A' for Active; 'I' for Inactive)
REMARK    1  A    between atoms: C_2  and  O_3
REMARK    2  A    between atoms: C_2  and  C_4
REMARK    3  A    between atoms: C_6  and  N_7
REMARK    4  A    between atoms: C_12  and  N_13
REMARK    5  A    between atoms: N_13  and  C_14
REMARK    6  A    between atoms: C_18  and  O_19
REMARK    7  A    between atoms: O_19  and  C_20
REMARK    8  A    between atoms: C_20  and  C_21
REMARK                            x       y       z     vdW  Elec       q    Type
REMARK                         _______ _______ _______ _____ _____    ______ ____
ROOT
ATOM      1  N   UNL     1       5.209   4.303  19.336  0.00  0.00    +0.000 N 
ATOM      2  H   UNL     1       5.682   4.957  19.972  0.00  0.00    +0.000 HD
ENDROOT
BRANCH   1   8
ATOM      3  C   UNL     1       6.867   5.212  17.720  0.00  0.00    +0.000 A 
ATOM      4  C   UNL     1       7.332   5.345  16.396  0.00  0.00    +0.000 A 
ATOM      5  C   UNL     1       6.674   4.677  15.357  0.00  0.00    +0.000 A 
ATOM      6  C   UNL     1       5.605   3.830  15.638  0.00  0.00    +0.000 A 
ATOM      7  C   UNL     1       5.179   3.675  16.957  0.00  0.00    +0.000 A 
ATOM      8  C   UNL     1       5.718   4.434  18.010  0.00  0.00    +0.000 A 
BRANCH   5   9
ATOM      9  N   UNL     1       7.113   4.843  13.967  0.00  0.00    +0.000 N 
ATOM     10  O   UNL     1       6.558   4.151  13.101  0.00  0.00    +0.000 OA
ATOM     11  O   UNL     1       8.016   5.660  13.744  0.00  0.00    +0.000 OA
ENDBRANCH   5   9
BRANCH   3  13
ATOM     12  O   UNL     1       8.122   7.045  18.580  0.00  0.00    +0.000 OA
ATOM     13  C   UNL     1       7.657   5.937  18.757  0.00  0.00    +0.000 C 
BRANCH  13  14
ATOM     14  O   UNL     1       7.841   5.231  19.893  0.00  0.00    +0.000 OA
ATOM     15  H   UNL     1       7.147   5.370  20.572  0.00  0.00    +0.000 HD
ENDBRANCH  13  14
ENDBRANCH   3  13
ENDBRANCH   1   8
BRANCH   1  16
ATOM     16  C   UNL     1       3.850   4.231  19.754  0.00  0.00    +0.000 A 
ATOM     17  C   UNL     1       3.282   2.966  19.956  0.00  0.00    +0.000 A 
ATOM     18  C   UNL     1       1.954   2.830  20.372  0.00  0.00    +0.000 A 
ATOM     19  C   UNL     1       1.179   3.961  20.616  0.00  0.00    +0.000 A 
ATOM     20  C   UNL     1       1.751   5.224  20.499  0.00  0.00    +0.000 A 
ATOM     21  C   UNL     1       3.078   5.353  20.080  0.00  0.00    +0.000 A 
BRANCH  20  22
ATOM     22  O   UNL     1       1.097   6.397  20.761  0.00  0.00    +0.000 OA
BRANCH  22  23
ATOM     23  C   UNL     1       1.828   7.572  20.408  0.00  0.00    +0.000 C 
BRANCH  23  24
ATOM     24  C   UNL     1       1.049   8.766  20.886  0.00  0.00    +0.000 A 
ATOM     25  C   UNL     1       0.687   8.899  22.233  0.00  0.00    +0.000 A 
ATOM     26  C   UNL     1      -0.057  10.002  22.651  0.00  0.00    +0.000 A 
ATOM     27  C   UNL     1      -0.448  10.973  21.729  0.00  0.00    +0.000 A 
ATOM     28  C   UNL     1      -0.095  10.846  20.387  0.00  0.00    +0.000 A 
ATOM     29  C   UNL     1       0.648   9.744  19.966  0.00  0.00    +0.000 A 
ENDBRANCH  23  24
ENDBRANCH  22  23
ENDBRANCH  20  22
ENDBRANCH   1  16
TORSDOF 8
ENDMDL
MODEL 3
REMARK VINA RESULT:      -8.2      0.698      1.445
REMARK  Name = 
REMARK  8 active torsions:
REMARK  status: ('A' for Active; 'I' for Inactive)
REMARK    1  A    between atoms: C_2  and  O_3
REMARK    2  A    between atoms: C_2  and  C_4
REMARK    3  A    between atoms: C_6  and  N_7
REMARK    4  A    between atoms: C_12  and  N_13
REMARK    5  A    between atoms: N_13  and  C_14
REMARK    6  A    between atoms: C_18  and  O_19
REMARK    7  A    between atoms: O_19  and  C_20
REMARK    8  A    between atoms: C_20  and  C_21
REMARK                            x       y       z     vdW  Elec       q    Type
REMARK                         _______ _______ _______ _____ _____    ______ ____
ROOT
ATOM      1  N   UNL     1       5.228   4.707  19.373  0.00  0.00    +0.000 N 
ATOM      2  H   UNL     1       5.608   5.488  19.922  0.00  0.00    +0.000 HD
ENDROOT
BRANCH   1   8
ATOM      3  C   UNL     1       6.931   5.419  17.706  0.00  0.00    +0.000 A 
ATOM      4  C   UNL     1       7.394   5.452  16.375  0.00  0.00    +0.000 A 
ATOM      5  C   UNL     1       6.684   4.778  15.374  0.00  0.00    +0.000 A 
ATOM      6  C   UNL     1       5.563   4.020  15.702  0.00  0.00    +0.000 A 
ATOM      7  C   UNL     1       5.139   3.962  17.030  0.00  0.00    +0.000 A 
ATOM      8  C   UNL     1       5.735   4.736  18.039  0.00  0.00    +0.000 A 
BRANCH   5   9
ATOM      9  N   UNL     1       7.124   4.843  13.976  0.00  0.00    +0.000 N 
ATOM     10  O   UNL     1       8.001   5.669  13.686  0.00  0.00    +0.000 OA
ATOM     11  O   UNL     1       6.588   4.072  13.169  0.00  0.00    +0.000 OA
ENDBRANCH   5   9
BRANCH   3  13
ATOM     12  O   UNL     1       8.174   7.276  18.531  0.00  0.00    +0.000 OA
ATOM     13  C   UNL     1       7.776   6.141  18.701  0.00  0.00    +0.000 C 
BRANCH  13  14
ATOM     14  O   UNL     1       8.089   5.402  19.787  0.00  0.00    +0.000 OA
ATOM     15  H   UNL     1       7.367   4.818  20.100  0.00  0.00    +0.000 HD
ENDBRANCH  13  14
ENDBRANCH   3  13
ENDBRANCH   1   8
BRANCH   1  16
ATOM     16  C   UNL     1       3.883   4.518  19.800  0.00  0.00    +0.000 A 
ATOM     17  C   UNL     1       3.459   3.219  20.111  0.00  0.00    +0.000 A 
ATOM     18  C   UNL     1       2.152   2.971  20.541  0.00  0.00    +0.000 A 
ATOM     19  C   UNL     1       1.253   4.025  20.689  0.00  0.00    +0.000 A 
ATOM     20  C   UNL     1       1.680   5.329  20.462  0.00  0.00    +0.000 A 
ATOM     21  C   UNL     1       2.987   5.570  20.030  0.00  0.00    +0.000 A 
BRANCH  20  22
ATOM     22  O   UNL     1       0.896   6.439  20.624  0.00  0.00    +0.000 OA
BRANCH  22  23
ATOM     23  C   UNL     1       1.588   7.580  21.133  0.00  0.00    +0.000 C 
BRANCH  23  24
ATOM     24  C   UNL     1       1.189   8.773  20.308  0.00  0.00    +0.000 A 
ATOM     25  C   UNL     1       0.440   9.816  20.866  0.00  0.00    +0.000 A 
ATOM     26  C   UNL     1       0.058  10.901  20.076  0.00  0.00    +0.000 A 
ATOM     27  C   UNL     1       0.417  10.948  18.730  0.00  0.00    +0.000 A 
ATOM     28  C   UNL     1       1.160   9.911  18.167  0.00  0.00    +0.000 A 
ATOM     29  C   UNL     1       1.542   8.826  18.953  0.00  0.00    +0.000 A 
ENDBRANCH  23  24
ENDBRANCH  22  23
ENDBRANCH  20  22
ENDBRANCH   1  16
TORSDOF 8
ENDMDL
MODEL 4
REMARK VINA RESULT:      -8.2      0.978      1.607
REMARK  Name = 
REMARK  8 active torsions:
REMARK  status: ('A' for Active; 'I' for Inactive)
REMARK    1  A    between atoms: C_2  and  O_3
REMARK    2  A    between atoms: C_2  and  C_4
REMARK    3  A    between atoms: C_6  and  N_7
REMARK    4  A    between atoms: C_12  and  N_13
REMARK    5  A    between atoms: N_13  and  C_14
REMARK    6  A    between atoms: C_18  and  O_19
REMARK    7  A    between atoms: O_19  and  C_20
REMARK    8  A    between atoms: C_20  and  C_21
REMARK                            x       y       z     vdW  Elec       q    Type
REMARK                         _______ _______ _______ _____ _____    ______ ____
ROOT
ATOM      1  N   UNL     1       5.336   3.795  18.809  0.00  0.00    +0.000 N 
ATOM      2  H   UNL     1       5.818   4.346  19.531  0.00  0.00    +0.000 HD
ENDROOT
BRANCH   1   8
ATOM      3  C   UNL     1       6.966   4.960  17.336  0.00  0.00    +0.000 A 
ATOM      4  C   UNL     1       7.456   5.244  16.045  0.00  0.00    +0.000 A 
ATOM      5  C   UNL     1       6.877   4.628  14.930  0.00  0.00    +0.000 A 
ATOM      6  C   UNL     1       5.866   3.685  15.099  0.00  0.00    +0.000 A 
ATOM      7  C   UNL     1       5.418   3.383  16.385  0.00  0.00    +0.000 A 
ATOM      8  C   UNL     1       5.870   4.080  17.517  0.00  0.00    +0.000 A 
BRANCH   5   9
ATOM      9  N   UNL     1       7.341   4.948  13.576  0.00  0.00    +0.000 N 
ATOM     10  O   UNL     1       8.250   5.783  13.461  0.00  0.00    +0.000 OA
ATOM     11  O   UNL     1       6.794   4.369  12.629  0.00  0.00    +0.000 OA
ENDBRANCH   5   9
BRANCH   3  13
ATOM     12  O   UNL     1       8.050   5.060  19.455  0.00  0.00    +0.000 OA
ATOM     13  C   UNL     1       7.672   5.643  18.459  0.00  0.00    +0.000 C 
BRANCH  13  14
ATOM     14  O   UNL     1       7.814   6.975  18.283  0.00  0.00    +0.000 OA
ATOM     15  H   UNL     1       6.969   7.473  18.281  0.00  0.00    +0.000 HD
ENDBRANCH  13  14
ENDBRANCH   3  13
ENDBRANCH   1   8
BRANCH   1  16
ATOM     16  C   UNL     1       3.969   3.712  19.198  0.00  0.00    +0.000 A 
ATOM     17  C   UNL     1       3.353   2.453  19.204  0.00  0.00    +0.000 A 
ATOM     18  C   UNL     1       2.015   2.306  19.581  0.00  0.00    +0.000 A 
ATOM     19  C   UNL     1       1.277   3.417  19.983  0.00  0.00    +0.000 A 
ATOM     20  C   UNL     1       1.894   4.661  20.060  0.00  0.00    +0.000 A 
ATOM     21  C   UNL     1       3.232   4.801  19.679  0.00  0.00    +0.000 A 
BRANCH  20  22
ATOM     22  O   UNL     1       1.278   5.805  20.487  0.00  0.00    +0.000 OA
BRANCH  22  23
ATOM     23  C   UNL     1       2.169   6.883  20.777  0.00  0.00    +0.000 C 
BRANCH  23  24
ATOM     24  C   UNL     1       1.771   8.059  19.928  0.00  0.00    +0.000 A 
ATOM     25  C   UNL     1       0.986   9.093  20.454  0.00  0.00    +0.000 A 
ATOM     26  C   UNL     1       0.605  10.163  19.642  0.00  0.00    +0.000 A 
ATOM     27  C   UNL     1       1.000  10.203  18.306  0.00  0.00    +0.000 A 
ATOM     28  C   UNL     1       1.778   9.175  17.775  0.00  0.00    +0.000 A 
ATOM     29  C   UNL     1       2.159   8.105  18.582  0.00  0.00    +0.000 A 
ENDBRANCH  23  24
ENDBRANCH  22  23
ENDBRANCH  20  22
ENDBRANCH   1  16
TORSDOF 8
ENDMDL
MODEL 5
REMARK VINA RESULT:      -8.1      3.538      6.126
REMARK  Name = 
REMARK  8 active torsions:
REMARK  status: ('A' for Active; 'I' for Inactive)
REMARK    1  A    between atoms: C_2  and  O_3
REMARK    2  A    between atoms: C_2  and  C_4
REMARK    3  A    between atoms: C_6  and  N_7
REMARK    4  A    between atoms: C_12  and  N_13
REMARK    5  A    between atoms: N_13  and  C_14
REMARK    6  A    between atoms: C_18  and  O_19
REMARK    7  A    between atoms: O_19  and  C_20
REMARK    8  A    between atoms: C_20  and  C_21
REMARK                            x       y       z     vdW  Elec       q    Type
REMARK                         _______ _______ _______ _____ _____    ______ ____
ROOT
ATOM      1  N   UNL     1       2.193   7.820  20.673  0.00  0.00    +0.000 N 
ATOM      2  H   UNL     1       2.958   8.335  20.219  0.00  0.00    +0.000 HD
ENDROOT
BRANCH   1   8
ATOM      3  C   UNL     1       2.459   6.265  18.749  0.00  0.00    +0.000 A 
ATOM      4  C   UNL     1       2.255   4.996  18.171  0.00  0.00    +0.000 A 
ATOM      5  C   UNL     1       1.645   3.981  18.917  0.00  0.00    +0.000 A 
ATOM      6  C   UNL     1       1.304   4.202  20.249  0.00  0.00    +0.000 A 
ATOM      7  C   UNL     1       1.547   5.450  20.823  0.00  0.00    +0.000 A 
ATOM      8  C   UNL     1       2.024   6.537  20.071  0.00  0.00    +0.000 A 
BRANCH   5   9
ATOM      9  N   UNL     1       1.380   2.669  18.316  0.00  0.00    +0.000 N 
ATOM     10  O   UNL     1       2.294   2.138  17.668  0.00  0.00    +0.000 OA
ATOM     11  O   UNL     1       0.259   2.174  18.488  0.00  0.00    +0.000 OA
ENDBRANCH   5   9
BRANCH   3  13
ATOM     12  O   UNL     1       2.673   8.357  17.631  0.00  0.00    +0.000 OA
ATOM     13  C   UNL     1       3.145   7.267  17.882  0.00  0.00    +0.000 C 
BRANCH  13  14
ATOM     14  O   UNL     1       4.317   6.832  17.371  0.00  0.00    +0.000 OA
ATOM     15  H   UNL     1       4.337   6.786  16.392  0.00  0.00    +0.000 HD
ENDBRANCH  13  14
ENDBRANCH   3  13
ENDBRANCH   1   8
BRANCH   1  16
ATOM     16  C   UNL     1       1.191   8.776  21.004  0.00  0.00    +0.000 A 
ATOM     17  C   UNL     1       0.737   8.832  22.329  0.00  0.00    +0.000 A 
ATOM     18  C   UNL     1      -0.241   9.753  22.717  0.00  0.00    +0.000 A 
ATOM     19  C   UNL     1      -0.764  10.650  21.789  0.00  0.00    +0.000 A 
ATOM     20  C   UNL     1      -0.267  10.662  20.490  0.00  0.00    +0.000 A 
ATOM     21  C   UNL     1       0.709   9.737  20.107  0.00  0.00    +0.000 A 
BRANCH  20  22
ATOM     22  O   UNL     1      -0.673  11.531  19.514  0.00  0.00    +0.000 OA
BRANCH  22  23
ATOM     23  C   UNL     1      -2.019  11.988  19.653  0.00  0.00    +0.000 C 
BRANCH  23  24
ATOM     24  C   UNL     1      -2.764  11.633  18.396  0.00  0.00    +0.000 A 
ATOM     25  C   UNL     1      -4.164  11.642  18.361  0.00  0.00    +0.000 A 
ATOM     26  C   UNL     1      -4.836  11.284  17.191  0.00  0.00    +0.000 A 
ATOM     27  C   UNL     1      -4.116  10.914  16.056  0.00  0.00    +0.000 A 
ATOM     28  C   UNL     1      -2.723  10.899  16.085  0.00  0.00    +0.000 A 
ATOM     29  C   UNL     1      -2.049  11.254  17.251  0.00  0.00    +0.000 A 
ENDBRANCH  23  24
ENDBRANCH  22  23
ENDBRANCH  20  22
ENDBRANCH   1  16
TORSDOF 8
ENDMDL
MODEL 6
REMARK VINA RESULT:      -8.1      3.419      8.020
REMARK  Name = 
REMARK  8 active torsions:
REMARK  status: ('A' for Active; 'I' for Inactive)
REMARK    1  A    between atoms: C_2  and  O_3
REMARK    2  A    between atoms: C_2  and  C_4
REMARK    3  A    between atoms: C_6  and  N_7
REMARK    4  A    between atoms: C_12  and  N_13
REMARK    5  A    between atoms: N_13  and  C_14
REMARK    6  A    between atoms: C_18  and  O_19
REMARK    7  A    between atoms: O_19  and  C_20
REMARK    8  A    between atoms: C_20  and  C_21
REMARK                            x       y       z     vdW  Elec       q    Type
REMARK                         _______ _______ _______ _____ _____    ______ ____
ROOT
ATOM      1  N   UNL     1       2.021   7.630  20.710  0.00  0.00    +0.000 N 
ATOM      2  H   UNL     1       1.857   7.395  21.697  0.00  0.00    +0.000 HD
ENDROOT
BRANCH   1   8
ATOM      3  C   UNL     1       0.729   9.679  21.275  0.00  0.00    +0.000 A 
ATOM      4  C   UNL     1      -0.064  10.771  20.867  0.00  0.00    +0.000 A 
ATOM      5  C   UNL     1      -0.328  10.970  19.507  0.00  0.00    +0.000 A 
ATOM      6  C   UNL     1       0.247  10.133  18.554  0.00  0.00    +0.000 A 
ATOM      7  C   UNL     1       1.063   9.080  18.967  0.00  0.00    +0.000 A 
ATOM      8  C   UNL     1       1.238   8.759  20.324  0.00  0.00    +0.000 A 
BRANCH   5   9
ATOM      9  N   UNL     1      -1.192  12.072  19.069  0.00  0.00    +0.000 N 
ATOM     10  O   UNL     1      -1.473  12.138  17.863  0.00  0.00    +0.000 OA
ATOM     11  O   UNL     1      -1.583  12.872  19.928  0.00  0.00    +0.000 OA
ENDBRANCH   5   9
BRANCH   3  13
ATOM     12  O   UNL     1       0.113   9.759  23.574  0.00  0.00    +0.000 OA
ATOM     13  C   UNL     1       0.978   9.574  22.742  0.00  0.00    +0.000 C 
BRANCH  13  14
ATOM     14  O   UNL     1       2.261   9.296  23.058  0.00  0.00    +0.000 OA
ATOM     15  H   UNL     1       2.886  10.033  22.890  0.00  0.00    +0.000 HD
ENDBRANCH  13  14
ENDBRANCH   3  13
ENDBRANCH   1   8
BRANCH   1  16
ATOM     16  C   UNL     1       2.192   6.399  20.015  0.00  0.00    +0.000 A 
ATOM     17  C   UNL     1       1.496   5.273  20.474  0.00  0.00    +0.000 A 
ATOM     18  C   UNL     1       1.618   4.037  19.830  0.00  0.00    +0.000 A 
ATOM     19  C   UNL     1       2.422   3.915  18.700  0.00  0.00    +0.000 A 
ATOM     20  C   UNL     1       3.056   5.041  18.183  0.00  0.00    +0.000 A 
ATOM     21  C   UNL     1       2.932   6.272  18.832  0.00  0.00    +0.000 A 
BRANCH  20  22
ATOM     22  O   UNL     1       3.828   5.043  17.053  0.00  0.00    +0.000 OA
BRANCH  22  23
ATOM     23  C   UNL     1       5.053   4.319  17.173  0.00  0.00    +0.000 C 
BRANCH  23  24
ATOM     24  C   UNL     1       6.122   5.281  17.613  0.00  0.00    +0.000 A 
ATOM     25  C   UNL     1       6.928   5.004  18.725  0.00  0.00    +0.000 A 
ATOM     26  C   UNL     1       7.896   5.922  19.132  0.00  0.00    +0.000 A 
ATOM     27  C   UNL     1       8.062   7.119  18.437  0.00  0.00    +0.000 A 
ATOM     28  C   UNL     1       7.261   7.403  17.332  0.00  0.00    +0.000 A 
ATOM     29  C   UNL     1       6.292   6.489  16.923  0.00  0.00    +0.000 A 
ENDBRANCH  23  24
ENDBRANCH  22  23
ENDBRANCH  20  22
ENDBRANCH   1  16
TORSDOF 8
ENDMDL
MODEL 7
REMARK VINA RESULT:      -8.1      0.781      1.296
REMARK  Name = 
REMARK  8 active torsions:
REMARK  status: ('A' for Active; 'I' for Inactive)
REMARK    1  A    between atoms: C_2  and  O_3
REMARK    2  A    between atoms: C_2  and  C_4
REMARK    3  A    between atoms: C_6  and  N_7
REMARK    4  A    between atoms: C_12  and  N_13
REMARK    5  A    between atoms: N_13  and  C_14
REMARK    6  A    between atoms: C_18  and  O_19
REMARK    7  A    between atoms: O_19  and  C_20
REMARK    8  A    between atoms: C_20  and  C_21
REMARK                            x       y       z     vdW  Elec       q    Type
REMARK                         _______ _______ _______ _____ _____    ______ ____
ROOT
ATOM      1  N   UNL     1       5.306   3.943  18.898  0.00  0.00    +0.000 N 
ATOM      2  H   UNL     1       6.012   4.103  19.627  0.00  0.00    +0.000 HD
ENDROOT
BRANCH   1   8
ATOM      3  C   UNL     1       6.938   5.082  17.406  0.00  0.00    +0.000 A 
ATOM      4  C   UNL     1       7.440   5.329  16.113  0.00  0.00    +0.000 A 
ATOM      5  C   UNL     1       6.885   4.667  15.012  0.00  0.00    +0.000 A 
ATOM      6  C   UNL     1       5.885   3.715  15.200  0.00  0.00    +0.000 A 
ATOM      7  C   UNL     1       5.424   3.450  16.490  0.00  0.00    +0.000 A 
ATOM      8  C   UNL     1       5.852   4.192  17.604  0.00  0.00    +0.000 A 
BRANCH   5   9
ATOM      9  N   UNL     1       7.362   4.948  13.653  0.00  0.00    +0.000 N 
ATOM     10  O   UNL     1       6.829   4.333  12.717  0.00  0.00    +0.000 OA
ATOM     11  O   UNL     1       8.270   5.778  13.524  0.00  0.00    +0.000 OA
ENDBRANCH   5   9
BRANCH   3  13
ATOM     12  O   UNL     1       7.954   6.977  18.430  0.00  0.00    +0.000 OA
ATOM     13  C   UNL     1       7.619   5.813  18.514  0.00  0.00    +0.000 C 
BRANCH  13  14
ATOM     14  O   UNL     1       7.866   5.048  19.599  0.00  0.00    +0.000 OA
ATOM     15  H   UNL     1       7.726   4.088  19.457  0.00  0.00    +0.000 HD
ENDBRANCH  13  14
ENDBRANCH   3  13
ENDBRANCH   1   8
BRANCH   1  16
ATOM     16  C   UNL     1       4.059   4.384  19.427  0.00  0.00    +0.000 A 
ATOM     17  C   UNL     1       3.234   3.443  20.058  0.00  0.00    +0.000 A 
ATOM     18  C   UNL     1       2.001   3.816  20.603  0.00  0.00    +0.000 A 
ATOM     19  C   UNL     1       1.585   5.144  20.545  0.00  0.00    +0.000 A 
ATOM     20  C   UNL     1       2.427   6.105  19.994  0.00  0.00    +0.000 A 
ATOM     21  C   UNL     1       3.657   5.725  19.449  0.00  0.00    +0.000 A 
BRANCH  20  22
ATOM     22  O   UNL     1       2.140   7.441  19.930  0.00  0.00    +0.000 OA
BRANCH  22  23
ATOM     23  C   UNL     1       1.296   7.914  20.981  0.00  0.00    +0.000 C 
BRANCH  23  24
ATOM     24  C   UNL     1       0.806   9.285  20.604  0.00  0.00    +0.000 A 
ATOM     25  C   UNL     1       0.689   9.664  19.261  0.00  0.00    +0.000 A 
ATOM     26  C   UNL     1       0.256  10.950  18.933  0.00  0.00    +0.000 A 
ATOM     27  C   UNL     1      -0.056  11.861  19.941  0.00  0.00    +0.000 A 
ATOM     28  C   UNL     1       0.062  11.492  21.280  0.00  0.00    +0.000 A 
ATOM     29  C   UNL     1       0.495  10.209  21.611  0.00  0.00    +0.000 A 
ENDBRANCH  23  24
ENDBRANCH  22  23
ENDBRANCH  20  22
ENDBRANCH   1  16
TORSDOF 8
ENDMDL
MODEL 8
REMARK VINA RESULT:      -8.1      0.637      1.148
REMARK  Name = 
REMARK  8 active torsions:
REMARK  status: ('A' for Active; 'I' for Inactive)
REMARK    1  A    between atoms: C_2  and  O_3
REMARK    2  A    between atoms: C_2  and  C_4
REMARK    3  A    between atoms: C_6  and  N_7
REMARK    4  A    between atoms: C_12  and  N_13
REMARK    5  A    between atoms: N_13  and  C_14
REMARK    6  A    between atoms: C_18  and  O_19
REMARK    7  A    between atoms: O_19  and  C_20
REMARK    8  A    between atoms: C_20  and  C_21
REMARK                            x       y       z     vdW  Elec       q    Type
REMARK                         _______ _______ _______ _____ _____    ______ ____
ROOT
ATOM      1  N   UNL     1       5.339   4.855  18.930  0.00  0.00    +0.000 N 
ATOM      2  H   UNL     1       5.721   5.684  19.401  0.00  0.00    +0.000 HD
ENDROOT
BRANCH   1   8
ATOM      3  C   UNL     1       6.806   5.641  17.082  0.00  0.00    +0.000 A 
ATOM      4  C   UNL     1       7.201   5.581  15.731  0.00  0.00    +0.000 A 
ATOM      5  C   UNL     1       6.598   4.658  14.869  0.00  0.00    +0.000 A 
ATOM      6  C   UNL     1       5.659   3.754  15.360  0.00  0.00    +0.000 A 
ATOM      7  C   UNL     1       5.305   3.797  16.709  0.00  0.00    +0.000 A 
ATOM      8  C   UNL     1       5.778   4.798  17.574  0.00  0.00    +0.000 A 
BRANCH   5   9
ATOM      9  N   UNL     1       6.963   4.614  13.449  0.00  0.00    +0.000 N 
ATOM     10  O   UNL     1       7.781   5.450  13.039  0.00  0.00    +0.000 OA
ATOM     11  O   UNL     1       6.427   3.748  12.745  0.00  0.00    +0.000 OA
ENDBRANCH   5   9
BRANCH   3  13
ATOM     12  O   UNL     1       7.948   6.384  19.036  0.00  0.00    +0.000 OA
ATOM     13  C   UNL     1       7.531   6.637  17.924  0.00  0.00    +0.000 C 
BRANCH  13  14
ATOM     14  O   UNL     1       7.645   7.854  17.351  0.00  0.00    +0.000 OA
ATOM     15  H   UNL     1       7.806   8.585  17.985  0.00  0.00    +0.000 HD
ENDBRANCH  13  14
ENDBRANCH   3  13
ENDBRANCH   1   8
BRANCH   1  16
ATOM     16  C   UNL     1       4.022   4.663  19.438  0.00  0.00    +0.000 A 
ATOM     17  C   UNL     1       3.536   3.354  19.551  0.00  0.00    +0.000 A 
ATOM     18  C   UNL     1       2.253   3.101  20.048  0.00  0.00    +0.000 A 
ATOM     19  C   UNL     1       1.444   4.156  20.462  0.00  0.00    +0.000 A 
ATOM     20  C   UNL     1       1.940   5.456  20.431  0.00  0.00    +0.000 A 
ATOM     21  C   UNL     1       3.222   5.702  19.932  0.00  0.00    +0.000 A 
BRANCH  20  22
ATOM     22  O   UNL     1       1.250   6.557  20.859  0.00  0.00    +0.000 OA
BRANCH  22  23
ATOM     23  C   UNL     1       1.759   7.799  20.369  0.00  0.00    +0.000 C 
BRANCH  23  24
ATOM     24  C   UNL     1       0.912   8.905  20.934  0.00  0.00    +0.000 A 
ATOM     25  C   UNL     1       0.675   9.001  22.311  0.00  0.00    +0.000 A 
ATOM     26  C   UNL     1      -0.136  10.020  22.811  0.00  0.00    +0.000 A 
ATOM     27  C   UNL     1      -0.716  10.943  21.943  0.00  0.00    +0.000 A 
ATOM     28  C   UNL     1      -0.488  10.852  20.570  0.00  0.00    +0.000 A 
ATOM     29  C   UNL     1       0.320   9.834  20.067  0.00  0.00    +0.000 A 
ENDBRANCH  23  24
ENDBRANCH  22  23
ENDBRANCH  20  22
ENDBRANCH   1  16
TORSDOF 8
ENDMDL
MODEL 9
REMARK VINA RESULT:      -8.0      3.478      8.152
REMARK  Name = 
REMARK  8 active torsions:
REMARK  status: ('A' for Active; 'I' for Inactive)
REMARK    1  A    between atoms: C_2  and  O_3
REMARK    2  A    between atoms: C_2  and  C_4
REMARK    3  A    between atoms: C_6  and  N_7
REMARK    4  A    between atoms: C_12  and  N_13
REMARK    5  A    between atoms: N_13  and  C_14
REMARK    6  A    between atoms: C_18  and  O_19
REMARK    7  A    between atoms: O_19  and  C_20
REMARK    8  A    between atoms: C_20  and  C_21
REMARK                            x       y       z     vdW  Elec       q    Type
REMARK                         _______ _______ _______ _____ _____    ______ ____
ROOT
ATOM      1  N   UNL     1       1.658   7.792  20.940  0.00  0.00    +0.000 N 
ATOM      2  H   UNL     1       1.300   7.520  21.864  0.00  0.00    +0.000 HD
ENDROOT
BRANCH   1   8
ATOM      3  C   UNL     1       0.080   9.688  21.262  0.00  0.00    +0.000 A 
ATOM      4  C   UNL     1      -0.620  10.793  20.738  0.00  0.00    +0.000 A 
ATOM      5  C   UNL     1      -0.427  11.171  19.404  0.00  0.00    +0.000 A 
ATOM      6  C   UNL     1       0.505  10.500  18.616  0.00  0.00    +0.000 A 
ATOM      7  C   UNL     1       1.221   9.433  19.158  0.00  0.00    +0.000 A 
ATOM      8  C   UNL     1       0.956   8.931  20.444  0.00  0.00    +0.000 A 
BRANCH   5   9
ATOM      9  N   UNL     1      -1.184  12.288  18.828  0.00  0.00    +0.000 N 
ATOM     10  O   UNL     1      -1.620  12.154  17.675  0.00  0.00    +0.000 OA
ATOM     11  O   UNL     1      -1.337  13.298  19.526  0.00  0.00    +0.000 OA
ENDBRANCH   5   9
BRANCH   3  13
ATOM     12  O   UNL     1       0.330  10.023  23.607  0.00  0.00    +0.000 OA
ATOM     13  C   UNL     1      -0.172   9.388  22.701  0.00  0.00    +0.000 C 
BRANCH  13  14
ATOM     14  O   UNL     1      -0.974   8.320  22.903  0.00  0.00    +0.000 OA
ATOM     15  H   UNL     1      -1.507   8.366  23.725  0.00  0.00    +0.000 HD
ENDBRANCH  13  14
ENDBRANCH   3  13
ENDBRANCH   1   8
BRANCH   1  16
ATOM     16  C   UNL     1       1.980   6.588  20.250  0.00  0.00    +0.000 A 
ATOM     17  C   UNL     1       1.506   5.376  20.770  0.00  0.00    +0.000 A 
ATOM     18  C   UNL     1       1.785   4.162  20.135  0.00  0.00    +0.000 A 
ATOM     19  C   UNL     1       2.524   4.144  18.954  0.00  0.00    +0.000 A 
ATOM     20  C   UNL     1       2.933   5.344  18.382  0.00  0.00    +0.000 A 
ATOM     21  C   UNL     1       2.654   6.555  19.023  0.00  0.00    +0.000 A 
BRANCH  20  22
ATOM     22  O   UNL     1       3.620   5.445  17.202  0.00  0.00    +0.000 OA
BRANCH  22  23
ATOM     23  C   UNL     1       4.809   4.655  17.142  0.00  0.00    +0.000 C 
BRANCH  23  24
ATOM     24  C   UNL     1       5.951   5.493  17.646  0.00  0.00    +0.000 A 
ATOM     25  C   UNL     1       6.321   6.675  16.992  0.00  0.00    +0.000 A 
ATOM     26  C   UNL     1       7.400   7.425  17.461  0.00  0.00    +0.000 A 
ATOM     27  C   UNL     1       8.116   6.997  18.578  0.00  0.00    +0.000 A 
ATOM     28  C   UNL     1       7.756   5.820  19.232  0.00  0.00    +0.000 A 
ATOM     29  C   UNL     1       6.680   5.069  18.766  0.00  0.00    +0.000 A 
ENDBRANCH  23  24
ENDBRANCH  22  23
ENDBRANCH  20  22
ENDBRANCH   1  16
TORSDOF 8
ENDMDL
