MODEL 1
REMARK VINA RESULT:      -7.0      0.000      0.000
REMARK  Name = 
REMARK  11 active torsions:
REMARK  status: ('A' for Active; 'I' for Inactive)
REMARK    1  A    between atoms: C_1  and  C_2
REMARK    2  A    between atoms: C_5  and  S_6
REMARK    3  A    between atoms: S_6  and  N_9
REMARK    4  A    between atoms: N_9  and  C_10
REMARK    5  A    between atoms: N_9  and  C_11
REMARK    6  A    between atoms: C_11  and  C_12
REMARK    7  A    between atoms: N_25  and  C_26
REMARK    8  A    between atoms: C_26  and  C_27
REMARK    9  A    between atoms: C_26  and  C_28
REMARK   10  A    between atoms: C_28  and  O_29
REMARK   11  A    between atoms: C_31  and  C_32
REMARK                            x       y       z     vdW  Elec       q    Type
REMARK                         _______ _______ _______ _____ _____    ______ ____
ROOT
ATOM      1  C   UNL     1      -2.972  13.268  21.160  0.00  0.00    +0.000 C 
ATOM      2  O   UNL     1      -2.637  12.597  19.917  0.00  0.00    +0.000 OA
ATOM      3  C   UNL     1      -3.757  12.340  19.088  0.00  0.00    +0.000 C 
ATOM      4  C   UNL     1      -3.521  11.545  17.846  0.00  0.00    +0.000 A 
ATOM      5  C   UNL     1      -4.544  11.313  16.933  0.00  0.00    +0.000 A 
ATOM      6  N   UNL     1      -4.128  10.513  15.929  0.00  0.00    +0.000 NA
ATOM      7  N   UNL     1      -2.869  10.210  16.168  0.00  0.00    +0.000 NA
ATOM      8  N   UNL     1      -2.495  10.777  17.340  0.00  0.00    +0.000 N 
ATOM      9  C   UNL     1      -1.131  10.477  17.746  0.00  0.00    +0.000 C 
ATOM     10  C   UNL     1      -0.937  10.158  19.212  0.00  0.00    +0.000 C 
ATOM     11  C   UNL     1       0.527  10.060  19.645  0.00  0.00    +0.000 C 
ATOM     12  C   UNL     1       0.800  10.998  20.804  0.00  0.00    +0.000 C 
ATOM     13  O   UNL     1       1.345  10.604  21.849  0.00  0.00    +0.000 OA
ATOM     14  N   UNL     1       0.221  12.276  20.696  0.00  0.00    +0.000 N 
ATOM     15  C   UNL     1      -0.445  12.682  21.947  0.00  0.00    +0.000 C 
ATOM     16  C   UNL     1      -1.653  13.655  21.968  0.00  0.00    +0.000 C 
ATOM     17  C   UNL     1      -1.185  15.112  21.808  0.00  0.00    +0.000 C 
ENDROOT
BRANCH  14  18
ATOM     18  C   UNL     1       0.830  13.288  19.776  0.00  0.00    +0.000 C 
ATOM     19  C   UNL     1      -0.083  13.647  18.597  0.00  0.00    +0.000 C 
BRANCH  18  20
ATOM     20  C   UNL     1       2.206  12.926  19.136  0.00  0.00    +0.000 C 
BRANCH  20  21
ATOM     21  O   UNL     1       2.171  12.756  17.729  0.00  0.00    +0.000 OA
ATOM     22  H   UNL     1       3.007  13.075  17.349  0.00  0.00    +0.000 HD
ENDBRANCH  20  21
ENDBRANCH  18  20
ENDBRANCH  14  18
BRANCH   1  23
ATOM     23  C   UNL     1      -3.959  12.432  22.085  0.00  0.00    +0.000 C 
BRANCH  23  24
ATOM     24  N   UNL     1      -4.562  13.164  23.295  0.00  0.00    +0.000 NA
ATOM     25  C   UNL     1      -4.088  12.685  24.612  0.00  0.00    +0.000 C 
BRANCH  24  26
ATOM     26  S   UNL     1      -6.303  13.250  23.199  0.00  0.00    +0.000 S 
ATOM     27  O   UNL     1      -6.675  14.503  23.832  0.00  0.00    +0.000 OA
ATOM     28  O   UNL     1      -6.829  11.991  23.670  0.00  0.00    +0.000 OA
BRANCH  26  33
ATOM     29  C   UNL     1      -7.474  13.657  17.214  0.00  0.00    +0.000 C 
ATOM     30  C   UNL     1      -7.223  13.573  18.694  0.00  0.00    +0.000 A 
ATOM     31  C   UNL     1      -6.739  14.679  19.408  0.00  0.00    +0.000 A 
ATOM     32  C   UNL     1      -6.472  14.594  20.787  0.00  0.00    +0.000 A 
ATOM     33  C   UNL     1      -6.699  13.386  21.459  0.00  0.00    +0.000 A 
ATOM     34  C   UNL     1      -7.160  12.273  20.753  0.00  0.00    +0.000 A 
ATOM     35  C   UNL     1      -7.417  12.363  19.375  0.00  0.00    +0.000 A 
ENDBRANCH  26  33
ENDBRANCH  24  26
ENDBRANCH  23  24
ENDBRANCH   1  23
TORSDOF 7
ENDMDL
MODEL 2
REMARK VINA RESULT:      -6.9      1.598      3.393
REMARK  Name = 
REMARK  11 active torsions:
REMARK  status: ('A' for Active; 'I' for Inactive)
REMARK    1  A    between atoms: C_1  and  C_2
REMARK    2  A    between atoms: C_5  and  S_6
REMARK    3  A    between atoms: S_6  and  N_9
REMARK    4  A    between atoms: N_9  and  C_10
REMARK    5  A    between atoms: N_9  and  C_11
REMARK    6  A    between atoms: C_11  and  C_12
REMARK    7  A    between atoms: N_25  and  C_26
REMARK    8  A    between atoms: C_26  and  C_27
REMARK    9  A    between atoms: C_26  and  C_28
REMARK   10  A    between atoms: C_28  and  O_29
REMARK   11  A    between atoms: C_31  and  C_32
REMARK                            x       y       z     vdW  Elec       q    Type
REMARK                         _______ _______ _______ _____ _____    ______ ____
ROOT
ATOM      1  C   UNL     1      -3.118  13.284  20.860  0.00  0.00    +0.000 C 
ATOM      2  O   UNL     1      -2.690  12.564  19.675  0.00  0.00    +0.000 OA
ATOM      3  C   UNL     1      -3.746  12.255  18.782  0.00  0.00    +0.000 C 
ATOM      4  C   UNL     1      -3.414  11.409  17.597  0.00  0.00    +0.000 A 
ATOM      5  C   UNL     1      -4.369  11.123  16.626  0.00  0.00    +0.000 A 
ATOM      6  N   UNL     1      -3.875  10.285  15.690  0.00  0.00    +0.000 NA
ATOM      7  N   UNL     1      -2.633  10.010  16.030  0.00  0.00    +0.000 NA
ATOM      8  N   UNL     1      -2.348  10.634  17.198  0.00  0.00    +0.000 N 
ATOM      9  C   UNL     1      -1.013  10.370  17.712  0.00  0.00    +0.000 C 
ATOM     10  C   UNL     1      -0.920  10.118  19.201  0.00  0.00    +0.000 C 
ATOM     11  C   UNL     1       0.511  10.059  19.740  0.00  0.00    +0.000 C 
ATOM     12  C   UNL     1       0.693  11.050  20.871  0.00  0.00    +0.000 C 
ATOM     13  O   UNL     1       1.167  10.710  21.968  0.00  0.00    +0.000 OA
ATOM     14  N   UNL     1       0.109  12.315  20.665  0.00  0.00    +0.000 N 
ATOM     15  C   UNL     1      -0.647  12.767  21.847  0.00  0.00    +0.000 C 
ATOM     16  C   UNL     1      -1.864  13.724  21.740  0.00  0.00    +0.000 C 
ATOM     17  C   UNL     1      -1.400  15.178  21.548  0.00  0.00    +0.000 C 
ENDROOT
BRANCH  14  18
ATOM     18  C   UNL     1       0.772  13.293  19.745  0.00  0.00    +0.000 C 
ATOM     19  C   UNL     1      -0.079  13.619  18.511  0.00  0.00    +0.000 C 
BRANCH  18  20
ATOM     20  C   UNL     1       2.176  12.903  19.188  0.00  0.00    +0.000 C 
BRANCH  20  21
ATOM     21  O   UNL     1       2.180  12.531  17.820  0.00  0.00    +0.000 OA
ATOM     22  H   UNL     1       2.172  11.561  17.755  0.00  0.00    +0.000 HD
ENDBRANCH  20  21
ENDBRANCH  18  20
ENDBRANCH  14  18
BRANCH   1  23
ATOM     23  C   UNL     1      -4.159  12.477  21.750  0.00  0.00    +0.000 C 
BRANCH  23  24
ATOM     24  N   UNL     1      -5.536  13.125  21.965  0.00  0.00    +0.000 NA
ATOM     25  C   UNL     1      -5.812  14.301  21.111  0.00  0.00    +0.000 C 
BRANCH  24  26
ATOM     26  S   UNL     1      -5.851  13.434  23.655  0.00  0.00    +0.000 S 
ATOM     27  O   UNL     1      -5.609  12.178  24.341  0.00  0.00    +0.000 OA
ATOM     28  O   UNL     1      -7.128  14.100  23.746  0.00  0.00    +0.000 OA
BRANCH  26  33
ATOM     29  C   UNL     1      -1.656  17.404  25.654  0.00  0.00    +0.000 C 
ATOM     30  C   UNL     1      -2.671  16.428  25.126  0.00  0.00    +0.000 A 
ATOM     31  C   UNL     1      -3.817  16.873  24.451  0.00  0.00    +0.000 A 
ATOM     32  C   UNL     1      -4.784  15.965  23.983  0.00  0.00    +0.000 A 
ATOM     33  C   UNL     1      -4.596  14.592  24.190  0.00  0.00    +0.000 A 
ATOM     34  C   UNL     1      -3.469  14.140  24.880  0.00  0.00    +0.000 A 
ATOM     35  C   UNL     1      -2.511  15.054  25.350  0.00  0.00    +0.000 A 
ENDBRANCH  26  33
ENDBRANCH  24  26
ENDBRANCH  23  24
ENDBRANCH   1  23
TORSDOF 7
ENDMDL
MODEL 3
REMARK VINA RESULT:      -6.2      2.715      7.525
REMARK  Name = 
REMARK  11 active torsions:
REMARK  status: ('A' for Active; 'I' for Inactive)
REMARK    1  A    between atoms: C_1  and  C_2
REMARK    2  A    between atoms: C_5  and  S_6
REMARK    3  A    between atoms: S_6  and  N_9
REMARK    4  A    between atoms: N_9  and  C_10
REMARK    5  A    between atoms: N_9  and  C_11
REMARK    6  A    between atoms: C_11  and  C_12
REMARK    7  A    between atoms: N_25  and  C_26
REMARK    8  A    between atoms: C_26  and  C_27
REMARK    9  A    between atoms: C_26  and  C_28
REMARK   10  A    between atoms: C_28  and  O_29
REMARK   11  A    between atoms: C_31  and  C_32
REMARK                            x       y       z     vdW  Elec       q    Type
REMARK                         _______ _______ _______ _____ _____    ______ ____
ROOT
ATOM      1  C   UNL     1      -2.767  12.544  21.159  0.00  0.00    +0.000 C 
ATOM      2  O   UNL     1      -4.080  12.837  20.614  0.00  0.00    +0.000 OA
ATOM      3  C   UNL     1      -4.304  12.275  19.333  0.00  0.00    +0.000 C 
ATOM      4  C   UNL     1      -5.582  12.628  18.645  0.00  0.00    +0.000 A 
ATOM      5  C   UNL     1      -5.923  12.061  17.422  0.00  0.00    +0.000 A 
ATOM      6  N   UNL     1      -7.078  12.576  16.951  0.00  0.00    +0.000 NA
ATOM      7  N   UNL     1      -7.491  13.470  17.826  0.00  0.00    +0.000 NA
ATOM      8  N   UNL     1      -6.585  13.555  18.829  0.00  0.00    +0.000 N 
ATOM      9  C   UNL     1      -6.901  14.548  19.843  0.00  0.00    +0.000 C 
ATOM     10  C   UNL     1      -5.738  15.388  20.325  0.00  0.00    +0.000 C 
ATOM     11  C   UNL     1      -6.058  16.267  21.536  0.00  0.00    +0.000 C 
ATOM     12  C   UNL     1      -5.079  15.996  22.661  0.00  0.00    +0.000 C 
ATOM     13  O   UNL     1      -4.459  16.914  23.223  0.00  0.00    +0.000 OA
ATOM     14  N   UNL     1      -4.776  14.640  22.883  0.00  0.00    +0.000 N 
ATOM     15  C   UNL     1      -3.325  14.421  23.034  0.00  0.00    +0.000 C 
ATOM     16  C   UNL     1      -2.642  13.080  22.655  0.00  0.00    +0.000 C 
ATOM     17  C   UNL     1      -2.861  12.026  23.755  0.00  0.00    +0.000 C 
ENDROOT
BRANCH  14  18
ATOM     18  C   UNL     1      -5.770  13.765  23.581  0.00  0.00    +0.000 C 
ATOM     19  C   UNL     1      -6.402  12.721  22.651  0.00  0.00    +0.000 C 
BRANCH  18  20
ATOM     20  C   UNL     1      -6.970  14.475  24.280  0.00  0.00    +0.000 C 
BRANCH  20  21
ATOM     21  O   UNL     1      -7.911  13.592  24.870  0.00  0.00    +0.000 OA
ATOM     22  H   UNL     1      -8.764  13.687  24.414  0.00  0.00    +0.000 HD
ENDBRANCH  20  21
ENDBRANCH  18  20
ENDBRANCH  14  18
BRANCH   1  23
ATOM     23  C   UNL     1      -1.574  13.106  20.272  0.00  0.00    +0.000 C 
BRANCH  23  24
ATOM     24  N   UNL     1      -0.238  12.349  20.348  0.00  0.00    +0.000 NA
ATOM     25  C   UNL     1       0.853  13.077  21.034  0.00  0.00    +0.000 C 
BRANCH  24  26
ATOM     26  S   UNL     1       0.246  11.730  18.788  0.00  0.00    +0.000 S 
ATOM     27  O   UNL     1       1.288  12.622  18.312  0.00  0.00    +0.000 OA
ATOM     28  O   UNL     1      -0.953  11.505  18.017  0.00  0.00    +0.000 OA
BRANCH  26  33
ATOM     29  C   UNL     1       2.654   6.202  19.784  0.00  0.00    +0.000 C 
ATOM     30  C   UNL     1       2.095   7.578  19.556  0.00  0.00    +0.000 A 
ATOM     31  C   UNL     1       1.397   8.251  20.569  0.00  0.00    +0.000 A 
ATOM     32  C   UNL     1       0.844   9.527  20.349  0.00  0.00    +0.000 A 
ATOM     33  C   UNL     1       0.999  10.136  19.097  0.00  0.00    +0.000 A 
ATOM     34  C   UNL     1       1.673   9.466  18.075  0.00  0.00    +0.000 A 
ATOM     35  C   UNL     1       2.216   8.190  18.300  0.00  0.00    +0.000 A 
ENDBRANCH  26  33
ENDBRANCH  24  26
ENDBRANCH  23  24
ENDBRANCH   1  23
TORSDOF 7
ENDMDL
MODEL 4
REMARK VINA RESULT:      -6.1      3.856      8.091
REMARK  Name = 
REMARK  11 active torsions:
REMARK  status: ('A' for Active; 'I' for Inactive)
REMARK    1  A    between atoms: C_1  and  C_2
REMARK    2  A    between atoms: C_5  and  S_6
REMARK    3  A    between atoms: S_6  and  N_9
REMARK    4  A    between atoms: N_9  and  C_10
REMARK    5  A    between atoms: N_9  and  C_11
REMARK    6  A    between atoms: C_11  and  C_12
REMARK    7  A    between atoms: N_25  and  C_26
REMARK    8  A    between atoms: C_26  and  C_27
REMARK    9  A    between atoms: C_26  and  C_28
REMARK   10  A    between atoms: C_28  and  O_29
REMARK   11  A    between atoms: C_31  and  C_32
REMARK                            x       y       z     vdW  Elec       q    Type
REMARK                         _______ _______ _______ _____ _____    ______ ____
ROOT
ATOM      1  C   UNL     1      -0.403  12.755  20.572  0.00  0.00    +0.000 C 
ATOM      2  O   UNL     1       0.113  14.101  20.409  0.00  0.00    +0.000 OA
ATOM      3  C   UNL     1       1.066  14.225  19.367  0.00  0.00    +0.000 C 
ATOM      4  C   UNL     1       1.739  15.549  19.209  0.00  0.00    +0.000 A 
ATOM      5  C   UNL     1       2.627  15.785  18.166  0.00  0.00    +0.000 A 
ATOM      6  N   UNL     1       3.171  17.017  18.259  0.00  0.00    +0.000 NA
ATOM      7  N   UNL     1       2.671  17.583  19.338  0.00  0.00    +0.000 NA
ATOM      8  N   UNL     1       1.845  16.703  19.954  0.00  0.00    +0.000 N 
ATOM      9  C   UNL     1       1.262  17.191  21.193  0.00  0.00    +0.000 C 
ATOM     10  C   UNL     1       1.221  16.200  22.335  0.00  0.00    +0.000 C 
ATOM     11  C   UNL     1       0.412  16.669  23.546  0.00  0.00    +0.000 C 
ATOM     12  C   UNL     1      -0.655  15.652  23.897  0.00  0.00    +0.000 C 
ATOM     13  O   UNL     1      -0.781  15.208  25.051  0.00  0.00    +0.000 OA
ATOM     14  N   UNL     1      -1.351  15.105  22.802  0.00  0.00    +0.000 N 
ATOM     15  C   UNL     1      -1.465  13.638  22.905  0.00  0.00    +0.000 C 
ATOM     16  C   UNL     1      -1.571  12.723  21.657  0.00  0.00    +0.000 C 
ATOM     17  C   UNL     1      -3.001  12.740  21.087  0.00  0.00    +0.000 C 
ENDROOT
BRANCH  14  18
ATOM     18  C   UNL     1      -2.400  15.920  22.112  0.00  0.00    +0.000 C 
ATOM     19  C   UNL     1      -1.995  16.329  20.690  0.00  0.00    +0.000 C 
BRANCH  18  20
ATOM     20  C   UNL     1      -2.846  17.241  22.811  0.00  0.00    +0.000 C 
BRANCH  20  21
ATOM     21  O   UNL     1      -2.854  18.378  21.964  0.00  0.00    +0.000 OA
ATOM     22  H   UNL     1      -3.547  18.268  21.292  0.00  0.00    +0.000 HD
ENDBRANCH  20  21
ENDBRANCH  18  20
ENDBRANCH  14  18
BRANCH   1  23
ATOM     23  C   UNL     1       0.717  11.688  20.940  0.00  0.00    +0.000 C 
BRANCH  23  24
ATOM     24  N   UNL     1       0.690  10.360  20.166  0.00  0.00    +0.000 NA
ATOM     25  C   UNL     1      -0.455  10.200  19.243  0.00  0.00    +0.000 C 
BRANCH  24  26
ATOM     26  S   UNL     1       0.895   8.987  21.226  0.00  0.00    +0.000 S 
ATOM     27  O   UNL     1      -0.445   8.532  21.551  0.00  0.00    +0.000 OA
ATOM     28  O   UNL     1       1.824   9.371  22.262  0.00  0.00    +0.000 OA
BRANCH  26  33
ATOM     29  C   UNL     1       3.393   4.603  17.777  0.00  0.00    +0.000 C 
ATOM     30  C   UNL     1       2.813   5.684  18.647  0.00  0.00    +0.000 A 
ATOM     31  C   UNL     1       2.226   5.378  19.884  0.00  0.00    +0.000 A 
ATOM     32  C   UNL     1       1.654   6.383  20.686  0.00  0.00    +0.000 A 
ATOM     33  C   UNL     1       1.676   7.712  20.243  0.00  0.00    +0.000 A 
ATOM     34  C   UNL     1       2.237   8.024  19.003  0.00  0.00    +0.000 A 
ATOM     35  C   UNL     1       2.801   7.014  18.205  0.00  0.00    +0.000 A 
ENDBRANCH  26  33
ENDBRANCH  24  26
ENDBRANCH  23  24
ENDBRANCH   1  23
TORSDOF 7
ENDMDL
MODEL 5
REMARK VINA RESULT:      -6.1      2.169      6.987
REMARK  Name = 
REMARK  11 active torsions:
REMARK  status: ('A' for Active; 'I' for Inactive)
REMARK    1  A    between atoms: C_1  and  C_2
REMARK    2  A    between atoms: C_5  and  S_6
REMARK    3  A    between atoms: S_6  and  N_9
REMARK    4  A    between atoms: N_9  and  C_10
REMARK    5  A    between atoms: N_9  and  C_11
REMARK    6  A    between atoms: C_11  and  C_12
REMARK    7  A    between atoms: N_25  and  C_26
REMARK    8  A    between atoms: C_26  and  C_27
REMARK    9  A    between atoms: C_26  and  C_28
REMARK   10  A    between atoms: C_28  and  O_29
REMARK   11  A    between atoms: C_31  and  C_32
REMARK                            x       y       z     vdW  Elec       q    Type
REMARK                         _______ _______ _______ _____ _____    ______ ____
ROOT
ATOM      1  C   UNL     1      -3.009  13.145  21.411  0.00  0.00    +0.000 C 
ATOM      2  O   UNL     1      -3.673  12.554  20.264  0.00  0.00    +0.000 OA
ATOM      3  C   UNL     1      -2.781  12.033  19.294  0.00  0.00    +0.000 C 
ATOM      4  C   UNL     1      -3.376  11.516  18.026  0.00  0.00    +0.000 A 
ATOM      5  C   UNL     1      -2.586  10.914  17.052  0.00  0.00    +0.000 A 
ATOM      6  N   UNL     1      -3.315  10.591  15.963  0.00  0.00    +0.000 NA
ATOM      7  N   UNL     1      -4.554  10.976  16.196  0.00  0.00    +0.000 NA
ATOM      8  N   UNL     1      -4.606  11.578  17.409  0.00  0.00    +0.000 N 
ATOM      9  C   UNL     1      -5.917  12.096  17.767  0.00  0.00    +0.000 C 
ATOM     10  C   UNL     1      -5.930  13.463  18.414  0.00  0.00    +0.000 C 
ATOM     11  C   UNL     1      -7.291  13.882  18.972  0.00  0.00    +0.000 C 
ATOM     12  C   UNL     1      -7.173  14.252  20.436  0.00  0.00    +0.000 C 
ATOM     13  O   UNL     1      -7.608  15.330  20.875  0.00  0.00    +0.000 OA
ATOM     14  N   UNL     1      -6.370  13.396  21.212  0.00  0.00    +0.000 N 
ATOM     15  C   UNL     1      -5.439  14.149  22.073  0.00  0.00    +0.000 C 
ATOM     16  C   UNL     1      -4.070  13.573  22.522  0.00  0.00    +0.000 C 
ATOM     17  C   UNL     1      -4.250  12.578  23.681  0.00  0.00    +0.000 C 
ENDROOT
BRANCH  14  18
ATOM     18  C   UNL     1      -6.901  12.059  21.627  0.00  0.00    +0.000 C 
ATOM     19  C   UNL     1      -7.606  11.317  20.483  0.00  0.00    +0.000 C 
BRANCH  18  20
ATOM     20  C   UNL     1      -7.910  12.035  22.816  0.00  0.00    +0.000 C 
BRANCH  20  21
ATOM     21  O   UNL     1      -7.579  11.117  23.846  0.00  0.00    +0.000 OA
ATOM     22  H   UNL     1      -8.007  10.264  23.661  0.00  0.00    +0.000 HD
ENDBRANCH  20  21
ENDBRANCH  18  20
ENDBRANCH  14  18
BRANCH   1  23
ATOM     23  C   UNL     1      -2.077  14.377  21.037  0.00  0.00    +0.000 C 
BRANCH  23  24
ATOM     24  N   UNL     1      -0.582  14.241  21.368  0.00  0.00    +0.000 NA
ATOM     25  C   UNL     1      -0.136  14.996  22.560  0.00  0.00    +0.000 C 
BRANCH  24  26
ATOM     26  S   UNL     1       0.422  14.540  19.970  0.00  0.00    +0.000 S 
ATOM     27  O   UNL     1       1.587  15.252  20.462  0.00  0.00    +0.000 OA
ATOM     28  O   UNL     1      -0.419  15.106  18.942  0.00  0.00    +0.000 OA
BRANCH  26  33
ATOM     29  C   UNL     1       2.156   9.064  17.884  0.00  0.00    +0.000 C 
ATOM     30  C   UNL     1       1.756  10.407  18.428  0.00  0.00    +0.000 A 
ATOM     31  C   UNL     1       0.795  10.517  19.443  0.00  0.00    +0.000 A 
ATOM     32  C   UNL     1       0.395  11.775  19.932  0.00  0.00    +0.000 A 
ATOM     33  C   UNL     1       0.970  12.935  19.399  0.00  0.00    +0.000 A 
ATOM     34  C   UNL     1       1.912  12.837  18.373  0.00  0.00    +0.000 A 
ATOM     35  C   UNL     1       2.301  11.579  17.885  0.00  0.00    +0.000 A 
ENDBRANCH  26  33
ENDBRANCH  24  26
ENDBRANCH  23  24
ENDBRANCH   1  23
TORSDOF 7
ENDMDL
MODEL 6
REMARK VINA RESULT:      -6.0      2.803      4.541
REMARK  Name = 
REMARK  11 active torsions:
REMARK  status: ('A' for Active; 'I' for Inactive)
REMARK    1  A    between atoms: C_1  and  C_2
REMARK    2  A    between atoms: C_5  and  S_6
REMARK    3  A    between atoms: S_6  and  N_9
REMARK    4  A    between atoms: N_9  and  C_10
REMARK    5  A    between atoms: N_9  and  C_11
REMARK    6  A    between atoms: C_11  and  C_12
REMARK    7  A    between atoms: N_25  and  C_26
REMARK    8  A    between atoms: C_26  and  C_27
REMARK    9  A    between atoms: C_26  and  C_28
REMARK   10  A    between atoms: C_28  and  O_29
REMARK   11  A    between atoms: C_31  and  C_32
REMARK                            x       y       z     vdW  Elec       q    Type
REMARK                         _______ _______ _______ _____ _____    ______ ____
ROOT
ATOM      1  C   UNL     1      -2.442  13.805  21.052  0.00  0.00    +0.000 C 
ATOM      2  O   UNL     1      -1.286  13.324  20.318  0.00  0.00    +0.000 OA
ATOM      3  C   UNL     1      -1.473  12.049  19.730  0.00  0.00    +0.000 C 
ATOM      4  C   UNL     1      -0.293  11.425  19.060  0.00  0.00    +0.000 A 
ATOM      5  C   UNL     1      -0.404  10.213  18.387  0.00  0.00    +0.000 A 
ATOM      6  N   UNL     1       0.795   9.801  17.924  0.00  0.00    +0.000 NA
ATOM      7  N   UNL     1       1.683  10.705  18.286  0.00  0.00    +0.000 NA
ATOM      8  N   UNL     1       1.062  11.665  19.012  0.00  0.00    +0.000 N 
ATOM      9  C   UNL     1       1.947  12.704  19.516  0.00  0.00    +0.000 C 
ATOM     10  C   UNL     1       1.700  13.141  20.943  0.00  0.00    +0.000 C 
ATOM     11  C   UNL     1       2.497  14.375  21.370  0.00  0.00    +0.000 C 
ATOM     12  C   UNL     1       1.569  15.450  21.897  0.00  0.00    +0.000 C 
ATOM     13  O   UNL     1       1.757  15.993  22.999  0.00  0.00    +0.000 OA
ATOM     14  N   UNL     1       0.387  15.643  21.158  0.00  0.00    +0.000 N 
ATOM     15  C   UNL     1      -0.798  15.724  22.032  0.00  0.00    +0.000 C 
ATOM     16  C   UNL     1      -2.213  15.299  21.557  0.00  0.00    +0.000 C 
ATOM     17  C   UNL     1      -2.848  16.396  20.685  0.00  0.00    +0.000 C 
ENDROOT
BRANCH  14  18
ATOM     18  C   UNL     1       0.443  16.377  19.854  0.00  0.00    +0.000 C 
ATOM     19  C   UNL     1       0.110  15.482  18.653  0.00  0.00    +0.000 C 
BRANCH  18  20
ATOM     20  C   UNL     1       1.790  17.073  19.490  0.00  0.00    +0.000 C 
BRANCH  20  21
ATOM     21  O   UNL     1       1.672  18.110  18.530  0.00  0.00    +0.000 OA
ATOM     22  H   UNL     1       1.439  18.938  18.984  0.00  0.00    +0.000 HD
ENDBRANCH  20  21
ENDBRANCH  18  20
ENDBRANCH  14  18
BRANCH   1  23
ATOM     23  C   UNL     1      -2.852  12.869  22.271  0.00  0.00    +0.000 C 
BRANCH  23  24
ATOM     24  N   UNL     1      -4.337  12.486  22.381  0.00  0.00    +0.000 NA
ATOM     25  C   UNL     1      -5.188  12.963  21.269  0.00  0.00    +0.000 C 
BRANCH  24  26
ATOM     26  S   UNL     1      -4.995  12.885  23.949  0.00  0.00    +0.000 S 
ATOM     27  O   UNL     1      -4.421  11.928  24.877  0.00  0.00    +0.000 OA
ATOM     28  O   UNL     1      -6.425  13.016  23.801  0.00  0.00    +0.000 OA
BRANCH  26  33
ATOM     29  C   UNL     1      -2.668  18.396  25.203  0.00  0.00    +0.000 C 
ATOM     30  C   UNL     1      -3.258  17.040  24.931  0.00  0.00    +0.000 A 
ATOM     31  C   UNL     1      -2.611  15.872  25.362  0.00  0.00    +0.000 A 
ATOM     32  C   UNL     1      -3.144  14.600  25.082  0.00  0.00    +0.000 A 
ATOM     33  C   UNL     1      -4.343  14.500  24.365  0.00  0.00    +0.000 A 
ATOM     34  C   UNL     1      -4.983  15.655  23.912  0.00  0.00    +0.000 A 
ATOM     35  C   UNL     1      -4.442  16.921  24.190  0.00  0.00    +0.000 A 
ENDBRANCH  26  33
ENDBRANCH  24  26
ENDBRANCH  23  24
ENDBRANCH   1  23
TORSDOF 7
ENDMDL
MODEL 7
REMARK VINA RESULT:      -6.0      6.615      9.310
REMARK  Name = 
REMARK  11 active torsions:
REMARK  status: ('A' for Active; 'I' for Inactive)
REMARK    1  A    between atoms: C_1  and  C_2
REMARK    2  A    between atoms: C_5  and  S_6
REMARK    3  A    between atoms: S_6  and  N_9
REMARK    4  A    between atoms: N_9  and  C_10
REMARK    5  A    between atoms: N_9  and  C_11
REMARK    6  A    between atoms: C_11  and  C_12
REMARK    7  A    between atoms: N_25  and  C_26
REMARK    8  A    between atoms: C_26  and  C_27
REMARK    9  A    between atoms: C_26  and  C_28
REMARK   10  A    between atoms: C_28  and  O_29
REMARK   11  A    between atoms: C_31  and  C_32
REMARK                            x       y       z     vdW  Elec       q    Type
REMARK                         _______ _______ _______ _____ _____    ______ ____
ROOT
ATOM      1  C   UNL     1       2.747   6.465  19.728  0.00  0.00    +0.000 C 
ATOM      2  O   UNL     1       3.627   5.660  18.902  0.00  0.00    +0.000 OA
ATOM      3  C   UNL     1       4.646   6.406  18.258  0.00  0.00    +0.000 C 
ATOM      4  C   UNL     1       5.521   5.677  17.293  0.00  0.00    +0.000 A 
ATOM      5  C   UNL     1       6.596   6.308  16.675  0.00  0.00    +0.000 A 
ATOM      6  N   UNL     1       7.200   5.488  15.790  0.00  0.00    +0.000 NA
ATOM      7  N   UNL     1       6.544   4.346  15.807  0.00  0.00    +0.000 NA
ATOM      8  N   UNL     1       5.501   4.451  16.665  0.00  0.00    +0.000 N 
ATOM      9  C   UNL     1       4.662   3.265  16.740  0.00  0.00    +0.000 C 
ATOM     10  C   UNL     1       3.170   3.517  16.771  0.00  0.00    +0.000 C 
ATOM     11  C   UNL     1       2.329   2.274  17.066  0.00  0.00    +0.000 C 
ATOM     12  C   UNL     1       1.422   2.517  18.255  0.00  0.00    +0.000 C 
ATOM     13  O   UNL     1       0.200   2.294  18.202  0.00  0.00    +0.000 OA
ATOM     14  N   UNL     1       2.014   3.193  19.338  0.00  0.00    +0.000 N 
ATOM     15  C   UNL     1       1.152   4.277  19.845  0.00  0.00    +0.000 C 
ATOM     16  C   UNL     1       1.725   5.543  20.533  0.00  0.00    +0.000 C 
ATOM     17  C   UNL     1       2.114   5.244  21.991  0.00  0.00    +0.000 C 
ENDROOT
BRANCH  14  18
ATOM     18  C   UNL     1       2.951   2.457  20.245  0.00  0.00    +0.000 C 
ATOM     19  C   UNL     1       2.516   2.505  21.715  0.00  0.00    +0.000 C 
BRANCH  18  20
ATOM     20  C   UNL     1       4.443   2.909  20.241  0.00  0.00    +0.000 C 
BRANCH  20  21
ATOM     21  O   UNL     1       5.377   1.848  20.122  0.00  0.00    +0.000 OA
ATOM     22  H   UNL     1       6.207   2.106  20.556  0.00  0.00    +0.000 HD
ENDBRANCH  20  21
ENDBRANCH  18  20
ENDBRANCH  14  18
BRANCH   1  23
ATOM     23  C   UNL     1       1.958   7.579  18.913  0.00  0.00    +0.000 C 
BRANCH  23  24
ATOM     24  N   UNL     1       1.649   8.891  19.653  0.00  0.00    +0.000 NA
ATOM     25  C   UNL     1       0.566   8.801  20.656  0.00  0.00    +0.000 C 
BRANCH  24  26
ATOM     26  S   UNL     1       1.429  10.224  18.545  0.00  0.00    +0.000 S 
ATOM     27  O   UNL     1       1.953   9.771  17.269  0.00  0.00    +0.000 OA
ATOM     28  O   UNL     1       1.943  11.411  19.184  0.00  0.00    +0.000 OA
BRANCH  26  33
ATOM     29  C   UNL     1      -4.576  11.052  17.772  0.00  0.00    +0.000 C 
ATOM     30  C   UNL     1      -3.107  10.826  17.995  0.00  0.00    +0.000 A 
ATOM     31  C   UNL     1      -2.380  11.629  18.886  0.00  0.00    +0.000 A 
ATOM     32  C   UNL     1      -0.998  11.440  19.073  0.00  0.00    +0.000 A 
ATOM     33  C   UNL     1      -0.339  10.430  18.361  0.00  0.00    +0.000 A 
ATOM     34  C   UNL     1      -1.050   9.639  17.456  0.00  0.00    +0.000 A 
ATOM     35  C   UNL     1      -2.428   9.838  17.269  0.00  0.00    +0.000 A 
ENDBRANCH  26  33
ENDBRANCH  24  26
ENDBRANCH  23  24
ENDBRANCH   1  23
TORSDOF 7
ENDMDL
MODEL 8
REMARK VINA RESULT:      -5.9      2.360      7.504
REMARK  Name = 
REMARK  11 active torsions:
REMARK  status: ('A' for Active; 'I' for Inactive)
REMARK    1  A    between atoms: C_1  and  C_2
REMARK    2  A    between atoms: C_5  and  S_6
REMARK    3  A    between atoms: S_6  and  N_9
REMARK    4  A    between atoms: N_9  and  C_10
REMARK    5  A    between atoms: N_9  and  C_11
REMARK    6  A    between atoms: C_11  and  C_12
REMARK    7  A    between atoms: N_25  and  C_26
REMARK    8  A    between atoms: C_26  and  C_27
REMARK    9  A    between atoms: C_26  and  C_28
REMARK   10  A    between atoms: C_28  and  O_29
REMARK   11  A    between atoms: C_31  and  C_32
REMARK                            x       y       z     vdW  Elec       q    Type
REMARK                         _______ _______ _______ _____ _____    ______ ____
ROOT
ATOM      1  C   UNL     1      -4.804  13.253  19.665  0.00  0.00    +0.000 C 
ATOM      2  O   UNL     1      -4.139  13.697  20.877  0.00  0.00    +0.000 OA
ATOM      3  C   UNL     1      -2.745  13.895  20.722  0.00  0.00    +0.000 C 
ATOM      4  C   UNL     1      -1.963  14.233  21.949  0.00  0.00    +0.000 A 
ATOM      5  C   UNL     1      -0.604  14.522  21.879  0.00  0.00    +0.000 A 
ATOM      6  N   UNL     1      -0.086  14.725  23.109  0.00  0.00    +0.000 NA
ATOM      7  N   UNL     1      -1.065  14.564  23.976  0.00  0.00    +0.000 NA
ATOM      8  N   UNL     1      -2.191  14.219  23.307  0.00  0.00    +0.000 N 
ATOM      9  C   UNL     1      -3.342  13.964  24.159  0.00  0.00    +0.000 C 
ATOM     10  C   UNL     1      -4.181  12.762  23.786  0.00  0.00    +0.000 C 
ATOM     11  C   UNL     1      -5.495  12.647  24.563  0.00  0.00    +0.000 C 
ATOM     12  C   UNL     1      -6.668  12.554  23.609  0.00  0.00    +0.000 C 
ATOM     13  O   UNL     1      -7.516  11.650  23.702  0.00  0.00    +0.000 OA
ATOM     14  N   UNL     1      -6.620  13.427  22.506  0.00  0.00    +0.000 N 
ATOM     15  C   UNL     1      -6.945  12.735  21.245  0.00  0.00    +0.000 C 
ATOM     16  C   UNL     1      -6.384  13.196  19.874  0.00  0.00    +0.000 C 
ATOM     17  C   UNL     1      -7.165  14.411  19.345  0.00  0.00    +0.000 C 
ENDROOT
BRANCH  14  18
ATOM     18  C   UNL     1      -6.933  14.879  22.699  0.00  0.00    +0.000 C 
ATOM     19  C   UNL     1      -5.847  15.802  22.133  0.00  0.00    +0.000 C 
BRANCH  18  20
ATOM     20  C   UNL     1      -7.168  15.365  24.162  0.00  0.00    +0.000 C 
BRANCH  20  21
ATOM     21  O   UNL     1      -6.100  16.122  24.706  0.00  0.00    +0.000 OA
ATOM     22  H   UNL     1      -6.370  16.478  25.569  0.00  0.00    +0.000 HD
ENDBRANCH  20  21
ENDBRANCH  18  20
ENDBRANCH  14  18
BRANCH   1  23
ATOM     23  C   UNL     1      -4.270  11.857  19.124  0.00  0.00    +0.000 C 
BRANCH  23  24
ATOM     24  N   UNL     1      -4.037  11.744  17.609  0.00  0.00    +0.000 NA
ATOM     25  C   UNL     1      -5.241  11.409  16.817  0.00  0.00    +0.000 C 
BRANCH  24  26
ATOM     26  S   UNL     1      -2.680  10.710  17.237  0.00  0.00    +0.000 S 
ATOM     27  O   UNL     1      -2.427  10.880  15.818  0.00  0.00    +0.000 OA
ATOM     28  O   UNL     1      -2.958   9.408  17.794  0.00  0.00    +0.000 OA
BRANCH  26  33
ATOM     29  C   UNL     1       2.218  12.969  20.112  0.00  0.00    +0.000 C 
ATOM     30  C   UNL     1       0.990  12.423  19.437  0.00  0.00    +0.000 A 
ATOM     31  C   UNL     1       0.551  11.115  19.686  0.00  0.00    +0.000 A 
ATOM     32  C   UNL     1      -0.579  10.589  19.031  0.00  0.00    +0.000 A 
ATOM     33  C   UNL     1      -1.279  11.390  18.121  0.00  0.00    +0.000 A 
ATOM     34  C   UNL     1      -0.838  12.686  17.849  0.00  0.00    +0.000 A 
ATOM     35  C   UNL     1       0.295  13.201  18.501  0.00  0.00    +0.000 A 
ENDBRANCH  26  33
ENDBRANCH  24  26
ENDBRANCH  23  24
ENDBRANCH   1  23
TORSDOF 7
ENDMDL
MODEL 9
REMARK VINA RESULT:      -5.9      3.643      8.063
REMARK  Name = 
REMARK  11 active torsions:
REMARK  status: ('A' for Active; 'I' for Inactive)
REMARK    1  A    between atoms: C_1  and  C_2
REMARK    2  A    between atoms: C_5  and  S_6
REMARK    3  A    between atoms: S_6  and  N_9
REMARK    4  A    between atoms: N_9  and  C_10
REMARK    5  A    between atoms: N_9  and  C_11
REMARK    6  A    between atoms: C_11  and  C_12
REMARK    7  A    between atoms: N_25  and  C_26
REMARK    8  A    between atoms: C_26  and  C_27
REMARK    9  A    between atoms: C_26  and  C_28
REMARK   10  A    between atoms: C_28  and  O_29
REMARK   11  A    between atoms: C_31  and  C_32
REMARK                            x       y       z     vdW  Elec       q    Type
REMARK                         _______ _______ _______ _____ _____    ______ ____
ROOT
ATOM      1  C   UNL     1      -0.798  12.990  20.959  0.00  0.00    +0.000 C 
ATOM      2  O   UNL     1      -0.377  14.368  20.793  0.00  0.00    +0.000 OA
ATOM      3  C   UNL     1       0.438  14.582  19.653  0.00  0.00    +0.000 C 
ATOM      4  C   UNL     1       1.017  15.947  19.473  0.00  0.00    +0.000 A 
ATOM      5  C   UNL     1       1.762  16.271  18.344  0.00  0.00    +0.000 A 
ATOM      6  N   UNL     1       2.247  17.528  18.424  0.00  0.00    +0.000 NA
ATOM      7  N   UNL     1       1.849  18.026  19.577  0.00  0.00    +0.000 NA
ATOM      8  N   UNL     1       1.150  17.079  20.247  0.00  0.00    +0.000 N 
ATOM      9  C   UNL     1       0.692  17.490  21.565  0.00  0.00    +0.000 C 
ATOM     10  C   UNL     1       0.838  16.458  22.662  0.00  0.00    +0.000 C 
ATOM     11  C   UNL     1       0.155  16.838  23.977  0.00  0.00    +0.000 C 
ATOM     12  C   UNL     1      -0.808  15.751  24.407  0.00  0.00    +0.000 C 
ATOM     13  O   UNL     1      -0.773  15.260  25.548  0.00  0.00    +0.000 OA
ATOM     14  N   UNL     1      -1.598  15.203  23.379  0.00  0.00    +0.000 N 
ATOM     15  C   UNL     1      -1.622  13.729  23.434  0.00  0.00    +0.000 C 
ATOM     16  C   UNL     1      -1.827  12.854  22.169  0.00  0.00    +0.000 C 
ATOM     17  C   UNL     1      -3.312  12.808  21.771  0.00  0.00    +0.000 C 
ENDROOT
BRANCH  14  18
ATOM     18  C   UNL     1      -2.763  15.980  22.849  0.00  0.00    +0.000 C 
ATOM     19  C   UNL     1      -2.534  17.496  22.886  0.00  0.00    +0.000 C 
BRANCH  18  20
ATOM     20  C   UNL     1      -4.141  15.754  23.545  0.00  0.00    +0.000 C 
BRANCH  20  21
ATOM     21  O   UNL     1      -4.064  15.559  24.947  0.00  0.00    +0.000 OA
ATOM     22  H   UNL     1      -4.849  15.951  25.366  0.00  0.00    +0.000 HD
ENDBRANCH  20  21
ENDBRANCH  18  20
ENDBRANCH  14  18
BRANCH   1  23
ATOM     23  C   UNL     1       0.412  11.977  21.150  0.00  0.00    +0.000 C 
BRANCH  23  24
ATOM     24  N   UNL     1       0.356  10.669  20.342  0.00  0.00    +0.000 NA
ATOM     25  C   UNL     1      -0.863  10.497  19.521  0.00  0.00    +0.000 C 
BRANCH  24  26
ATOM     26  S   UNL     1       0.696   9.276  21.339  0.00  0.00    +0.000 S 
ATOM     27  O   UNL     1      -0.595   8.705  21.679  0.00  0.00    +0.000 OA
ATOM     28  O   UNL     1       1.621   9.691  22.367  0.00  0.00    +0.000 OA
BRANCH  26  33
ATOM     29  C   UNL     1       3.425   5.232  17.659  0.00  0.00    +0.000 C 
ATOM     30  C   UNL     1       2.789   6.233  18.583  0.00  0.00    +0.000 A 
ATOM     31  C   UNL     1       2.328   5.853  19.852  0.00  0.00    +0.000 A 
ATOM     32  C   UNL     1       1.704   6.780  20.707  0.00  0.00    +0.000 A 
ATOM     33  C   UNL     1       1.545   8.106  20.285  0.00  0.00    +0.000 A 
ATOM     34  C   UNL     1       1.980   8.489  19.015  0.00  0.00    +0.000 A 
ATOM     35  C   UNL     1       2.596   7.557  18.164  0.00  0.00    +0.000 A 
ENDBRANCH  26  33
ENDBRANCH  24  26
ENDBRANCH  23  24
ENDBRANCH   1  23
TORSDOF 7
ENDMDL
