MODEL 1
REMARK VINA RESULT:      -8.5      0.000      0.000
REMARK  Name = 
REMARK  7 active torsions:
REMARK  status: ('A' for Active; 'I' for Inactive)
REMARK    1  A    between atoms: C_1  and  O_2
REMARK    2  A    between atoms: O_2  and  C_3
REMARK    3  A    between atoms: C_3  and  C_5
REMARK    4  A    between atoms: C_7  and  C_8
REMARK    5  A    between atoms: N_10  and  C_11
REMARK    6  A    between atoms: C_11  and  C_12
REMARK    7  A    between atoms: C_25  and  N_26
REMARK                            x       y       z     vdW  Elec       q    Type
REMARK                         _______ _______ _______ _____ _____    ______ ____
ROOT
ATOM      1  C   UNL     1       2.870   7.980  17.966  0.00  0.00    +0.000 C 
ATOM      2  O   UNL     1       3.569   8.798  17.362  0.00  0.00    +0.000 OA
ATOM      3  N   UNL     1       3.065   6.599  17.848  0.00  0.00    +0.000 N 
ATOM      4  C   UNL     1       2.442   5.643  18.679  0.00  0.00    +0.000 A 
ATOM      5  C   UNL     1       1.775   4.575  18.078  0.00  0.00    +0.000 A 
ATOM      6  C   UNL     1       1.048   3.699  18.878  0.00  0.00    +0.000 A 
ATOM      7  C   UNL     1       1.040   3.887  20.251  0.00  0.00    +0.000 A 
ATOM      8  C   UNL     1       1.739   4.966  20.769  0.00  0.00    +0.000 A 
ATOM      9  N   UNL     1       2.404   5.864  20.009  0.00  0.00    +0.000 NA
ENDROOT
BRANCH   1  12
ATOM     10  C   UNL     1      -0.355   9.794  18.802  0.00  0.00    +0.000 A 
ATOM     11  C   UNL     1       0.682   9.154  18.103  0.00  0.00    +0.000 A 
ATOM     12  C   UNL     1       1.749   8.550  18.787  0.00  0.00    +0.000 A 
ATOM     13  C   UNL     1       1.706   8.494  20.185  0.00  0.00    +0.000 A 
ATOM     14  C   UNL     1       0.718   9.198  20.885  0.00  0.00    +0.000 A 
ATOM     15  C   UNL     1      -0.317   9.845  20.200  0.00  0.00    +0.000 A 
BRANCH  14  16
ATOM     16  N   UNL     1       0.807   9.310  22.346  0.00  0.00    +0.000 N 
ATOM     17  O   UNL     1       1.930   9.479  22.843  0.00  0.00    +0.000 OA
ATOM     18  O   UNL     1      -0.243   9.247  22.996  0.00  0.00    +0.000 OA
ENDBRANCH  14  16
BRANCH  10  19
ATOM     19  C   UNL     1      -1.507  10.429  18.111  0.00  0.00    +0.000 C 
ATOM     20  O   UNL     1      -2.200  11.293  18.623  0.00  0.00    +0.000 OA
BRANCH  19  22
ATOM     21  C   UNL     1      -2.638  10.577  16.072  0.00  0.00    +0.000 C 
ATOM     22  O   UNL     1      -1.676   9.898  16.879  0.00  0.00    +0.000 OA
ENDBRANCH  19  22
ENDBRANCH  10  19
ENDBRANCH   1  12
BRANCH   3  23
ATOM     23  C   UNL     1       4.145   6.101  16.992  0.00  0.00    +0.000 C 
BRANCH  23  24
ATOM     24  C   UNL     1       5.532   6.123  17.615  0.00  0.00    +0.000 A 
ATOM     25  C   UNL     1       6.512   7.020  17.156  0.00  0.00    +0.000 A 
ATOM     26  C   UNL     1       7.718   7.176  17.846  0.00  0.00    +0.000 A 
ATOM     27  C   UNL     1       7.968   6.424  18.991  0.00  0.00    +0.000 A 
ATOM     28  C   UNL     1       7.033   5.483  19.421  0.00  0.00    +0.000 A 
ATOM     29  C   UNL     1       5.826   5.328  18.733  0.00  0.00    +0.000 A 
ENDBRANCH  23  24
ENDBRANCH   3  23
TORSDOF 6
ENDMDL
MODEL 2
REMARK VINA RESULT:      -8.3      0.535      1.222
REMARK  Name = 
REMARK  7 active torsions:
REMARK  status: ('A' for Active; 'I' for Inactive)
REMARK    1  A    between atoms: C_1  and  O_2
REMARK    2  A    between atoms: O_2  and  C_3
REMARK    3  A    between atoms: C_3  and  C_5
REMARK    4  A    between atoms: C_7  and  C_8
REMARK    5  A    between atoms: N_10  and  C_11
REMARK    6  A    between atoms: C_11  and  C_12
REMARK    7  A    between atoms: C_25  and  N_26
REMARK                            x       y       z     vdW  Elec       q    Type
REMARK                         _______ _______ _______ _____ _____    ______ ____
ROOT
ATOM      1  C   UNL     1       2.826   8.165  17.953  0.00  0.00    +0.000 C 
ATOM      2  O   UNL     1       3.532   9.005  17.388  0.00  0.00    +0.000 OA
ATOM      3  N   UNL     1       3.082   6.792  17.862  0.00  0.00    +0.000 N 
ATOM      4  C   UNL     1       2.441   5.819  18.658  0.00  0.00    +0.000 A 
ATOM      5  C   UNL     1       1.859   4.720  18.025  0.00  0.00    +0.000 A 
ATOM      6  C   UNL     1       1.114   3.822  18.783  0.00  0.00    +0.000 A 
ATOM      7  C   UNL     1       1.005   4.021  20.151  0.00  0.00    +0.000 A 
ATOM      8  C   UNL     1       1.624   5.130  20.703  0.00  0.00    +0.000 A 
ATOM      9  N   UNL     1       2.304   6.048  19.980  0.00  0.00    +0.000 NA
ENDROOT
BRANCH   1  12
ATOM     10  C   UNL     1      -0.535   9.821  18.545  0.00  0.00    +0.000 A 
ATOM     11  C   UNL     1       0.573   9.218  17.927  0.00  0.00    +0.000 A 
ATOM     12  C   UNL     1       1.631   8.697  18.689  0.00  0.00    +0.000 A 
ATOM     13  C   UNL     1       1.510   8.681  20.084  0.00  0.00    +0.000 A 
ATOM     14  C   UNL     1       0.447   9.351  20.703  0.00  0.00    +0.000 A 
ATOM     15  C   UNL     1      -0.580   9.917  19.939  0.00  0.00    +0.000 A 
BRANCH  14  16
ATOM     16  N   UNL     1       0.446   9.512  22.162  0.00  0.00    +0.000 N 
ATOM     17  O   UNL     1       1.538   9.473  22.747  0.00  0.00    +0.000 OA
ATOM     18  O   UNL     1      -0.642   9.697  22.722  0.00  0.00    +0.000 OA
ENDBRANCH  14  16
BRANCH  10  19
ATOM     19  C   UNL     1      -1.678  10.369  17.769  0.00  0.00    +0.000 C 
ATOM     20  O   UNL     1      -2.104   9.851  16.749  0.00  0.00    +0.000 OA
BRANCH  19  22
ATOM     21  C   UNL     1      -3.559  11.613  18.376  0.00  0.00    +0.000 C 
ATOM     22  O   UNL     1      -2.137  11.508  18.336  0.00  0.00    +0.000 OA
ENDBRANCH  19  22
ENDBRANCH  10  19
ENDBRANCH   1  12
BRANCH   3  23
ATOM     23  C   UNL     1       4.237   6.330  17.086  0.00  0.00    +0.000 C 
BRANCH  23  24
ATOM     24  C   UNL     1       5.571   6.378  17.814  0.00  0.00    +0.000 A 
ATOM     25  C   UNL     1       5.832   5.516  18.893  0.00  0.00    +0.000 A 
ATOM     26  C   UNL     1       7.116   5.423  19.440  0.00  0.00    +0.000 A 
ATOM     27  C   UNL     1       8.149   6.206  18.929  0.00  0.00    +0.000 A 
ATOM     28  C   UNL     1       7.889   7.114  17.903  0.00  0.00    +0.000 A 
ATOM     29  C   UNL     1       6.606   7.205  17.355  0.00  0.00    +0.000 A 
ENDBRANCH  23  24
ENDBRANCH   3  23
TORSDOF 6
ENDMDL
MODEL 3
REMARK VINA RESULT:      -7.9      3.138      6.957
REMARK  Name = 
REMARK  7 active torsions:
REMARK  status: ('A' for Active; 'I' for Inactive)
REMARK    1  A    between atoms: C_1  and  O_2
REMARK    2  A    between atoms: O_2  and  C_3
REMARK    3  A    between atoms: C_3  and  C_5
REMARK    4  A    between atoms: C_7  and  C_8
REMARK    5  A    between atoms: N_10  and  C_11
REMARK    6  A    between atoms: C_11  and  C_12
REMARK    7  A    between atoms: C_25  and  N_26
REMARK                            x       y       z     vdW  Elec       q    Type
REMARK                         _______ _______ _______ _____ _____    ______ ____
ROOT
ATOM      1  C   UNL     1       3.592   7.129  17.393  0.00  0.00    +0.000 C 
ATOM      2  O   UNL     1       3.472   8.252  16.896  0.00  0.00    +0.000 OA
ATOM      3  N   UNL     1       2.574   6.530  18.143  0.00  0.00    +0.000 N 
ATOM      4  C   UNL     1       2.583   5.176  18.540  0.00  0.00    +0.000 A 
ATOM      5  C   UNL     1       2.358   4.876  19.884  0.00  0.00    +0.000 A 
ATOM      6  C   UNL     1       2.492   3.559  20.312  0.00  0.00    +0.000 A 
ATOM      7  C   UNL     1       2.804   2.576  19.385  0.00  0.00    +0.000 A 
ATOM      8  C   UNL     1       2.999   2.957  18.068  0.00  0.00    +0.000 A 
ATOM      9  N   UNL     1       2.932   4.236  17.638  0.00  0.00    +0.000 NA
ENDROOT
BRANCH   1  12
ATOM     10  C   UNL     1       6.453   5.329  15.671  0.00  0.00    +0.000 A 
ATOM     11  C   UNL     1       5.267   6.042  15.909  0.00  0.00    +0.000 A 
ATOM     12  C   UNL     1       4.927   6.466  17.204  0.00  0.00    +0.000 A 
ATOM     13  C   UNL     1       5.847   6.268  18.240  0.00  0.00    +0.000 A 
ATOM     14  C   UNL     1       6.991   5.489  18.022  0.00  0.00    +0.000 A 
ATOM     15  C   UNL     1       7.302   5.022  16.740  0.00  0.00    +0.000 A 
BRANCH  14  16
ATOM     16  N   UNL     1       7.834   5.109  19.162  0.00  0.00    +0.000 N 
ATOM     17  O   UNL     1       8.859   4.453  18.926  0.00  0.00    +0.000 OA
ATOM     18  O   UNL     1       7.485   5.480  20.288  0.00  0.00    +0.000 OA
ENDBRANCH  14  16
BRANCH  10  19
ATOM     19  C   UNL     1       6.852   4.879  14.311  0.00  0.00    +0.000 C 
ATOM     20  O   UNL     1       7.760   5.392  13.676  0.00  0.00    +0.000 OA
BRANCH  19  22
ATOM     21  C   UNL     1       6.239   3.507  12.523  0.00  0.00    +0.000 C 
ATOM     22  O   UNL     1       6.059   3.866  13.892  0.00  0.00    +0.000 OA
ENDBRANCH  19  22
ENDBRANCH  10  19
ENDBRANCH   1  12
BRANCH   3  23
ATOM     23  C   UNL     1       1.311   7.249  18.334  0.00  0.00    +0.000 C 
BRANCH  23  24
ATOM     24  C   UNL     1       1.329   8.321  19.412  0.00  0.00    +0.000 A 
ATOM     25  C   UNL     1       1.106   9.670  19.087  0.00  0.00    +0.000 A 
ATOM     26  C   UNL     1       0.932  10.628  20.090  0.00  0.00    +0.000 A 
ATOM     27  C   UNL     1       0.999  10.254  21.430  0.00  0.00    +0.000 A 
ATOM     28  C   UNL     1       1.286   8.932  21.768  0.00  0.00    +0.000 A 
ATOM     29  C   UNL     1       1.457   7.973  20.765  0.00  0.00    +0.000 A 
ENDBRANCH  23  24
ENDBRANCH   3  23
TORSDOF 6
ENDMDL
MODEL 4
REMARK VINA RESULT:      -7.8      1.166      3.113
REMARK  Name = 
REMARK  7 active torsions:
REMARK  status: ('A' for Active; 'I' for Inactive)
REMARK    1  A    between atoms: C_1  and  O_2
REMARK    2  A    between atoms: O_2  and  C_3
REMARK    3  A    between atoms: C_3  and  C_5
REMARK    4  A    between atoms: C_7  and  C_8
REMARK    5  A    between atoms: N_10  and  C_11
REMARK    6  A    between atoms: C_11  and  C_12
REMARK    7  A    between atoms: C_25  and  N_26
REMARK                            x       y       z     vdW  Elec       q    Type
REMARK                         _______ _______ _______ _____ _____    ______ ____
ROOT
ATOM      1  C   UNL     1       2.989   7.856  17.736  0.00  0.00    +0.000 C 
ATOM      2  O   UNL     1       3.729   8.561  17.045  0.00  0.00    +0.000 OA
ATOM      3  N   UNL     1       3.133   6.465  17.807  0.00  0.00    +0.000 N 
ATOM      4  C   UNL     1       2.459   5.652  18.742  0.00  0.00    +0.000 A 
ATOM      5  C   UNL     1       1.764   4.536  18.273  0.00  0.00    +0.000 A 
ATOM      6  C   UNL     1       0.989   3.801  19.165  0.00  0.00    +0.000 A 
ATOM      7  C   UNL     1       0.963   4.172  20.501  0.00  0.00    +0.000 A 
ATOM      8  C   UNL     1       1.691   5.285  20.887  0.00  0.00    +0.000 A 
ATOM      9  N   UNL     1       2.404   6.050  20.030  0.00  0.00    +0.000 NA
ENDROOT
BRANCH   1  12
ATOM     10  C   UNL     1       0.851   9.158  20.586  0.00  0.00    +0.000 A 
ATOM     11  C   UNL     1       1.906   8.594  19.850  0.00  0.00    +0.000 A 
ATOM     12  C   UNL     1       1.875   8.570  18.446  0.00  0.00    +0.000 A 
ATOM     13  C   UNL     1       0.827   9.222  17.785  0.00  0.00    +0.000 A 
ATOM     14  C   UNL     1      -0.263   9.714  18.514  0.00  0.00    +0.000 A 
ATOM     15  C   UNL     1      -0.254   9.689  19.914  0.00  0.00    +0.000 A 
BRANCH  14  16
ATOM     16  N   UNL     1      -1.450  10.201  17.800  0.00  0.00    +0.000 N 
ATOM     17  O   UNL     1      -1.804   9.585  16.784  0.00  0.00    +0.000 OA
ATOM     18  O   UNL     1      -2.039  11.185  18.262  0.00  0.00    +0.000 OA
ENDBRANCH  14  16
BRANCH  10  19
ATOM     19  C   UNL     1       0.859   9.214  22.072  0.00  0.00    +0.000 C 
ATOM     20  O   UNL     1       1.879   9.336  22.731  0.00  0.00    +0.000 OA
BRANCH  19  22
ATOM     21  C   UNL     1      -0.877  10.236  23.254  0.00  0.00    +0.000 C 
ATOM     22  O   UNL     1      -0.396   9.086  22.560  0.00  0.00    +0.000 OA
ENDBRANCH  19  22
ENDBRANCH  10  19
ENDBRANCH   1  12
BRANCH   3  23
ATOM     23  C   UNL     1       4.211   5.820  17.051  0.00  0.00    +0.000 C 
BRANCH  23  24
ATOM     24  C   UNL     1       5.601   5.961  17.649  0.00  0.00    +0.000 A 
ATOM     25  C   UNL     1       6.521   6.882  17.119  0.00  0.00    +0.000 A 
ATOM     26  C   UNL     1       7.724   7.151  17.779  0.00  0.00    +0.000 A 
ATOM     27  C   UNL     1       8.032   6.488  18.965  0.00  0.00    +0.000 A 
ATOM     28  C   UNL     1       7.159   5.524  19.468  0.00  0.00    +0.000 A 
ATOM     29  C   UNL     1       5.955   5.256  18.809  0.00  0.00    +0.000 A 
ENDBRANCH  23  24
ENDBRANCH   3  23
TORSDOF 6
ENDMDL
MODEL 5
REMARK VINA RESULT:      -7.7      2.931      4.626
REMARK  Name = 
REMARK  7 active torsions:
REMARK  status: ('A' for Active; 'I' for Inactive)
REMARK    1  A    between atoms: C_1  and  O_2
REMARK    2  A    between atoms: O_2  and  C_3
REMARK    3  A    between atoms: C_3  and  C_5
REMARK    4  A    between atoms: C_7  and  C_8
REMARK    5  A    between atoms: N_10  and  C_11
REMARK    6  A    between atoms: C_11  and  C_12
REMARK    7  A    between atoms: C_25  and  N_26
REMARK                            x       y       z     vdW  Elec       q    Type
REMARK                         _______ _______ _______ _____ _____    ______ ____
ROOT
ATOM      1  C   UNL     1       1.513   9.213  18.515  0.00  0.00    +0.000 C 
ATOM      2  O   UNL     1       2.199   8.949  17.524  0.00  0.00    +0.000 OA
ATOM      3  N   UNL     1       1.586   8.466  19.696  0.00  0.00    +0.000 N 
ATOM      4  C   UNL     1       0.990   8.858  20.914  0.00  0.00    +0.000 A 
ATOM      5  C   UNL     1       0.179   7.941  21.583  0.00  0.00    +0.000 A 
ATOM      6  C   UNL     1      -0.517   8.356  22.714  0.00  0.00    +0.000 A 
ATOM      7  C   UNL     1      -0.355   9.656  23.167  0.00  0.00    +0.000 A 
ATOM      8  C   UNL     1       0.478  10.500  22.451  0.00  0.00    +0.000 A 
ATOM      9  N   UNL     1       1.120  10.139  21.318  0.00  0.00    +0.000 NA
ENDROOT
BRANCH   1  12
ATOM     10  C   UNL     1      -1.668  11.061  17.591  0.00  0.00    +0.000 A 
ATOM     11  C   UNL     1      -0.737  10.044  17.855  0.00  0.00    +0.000 A 
ATOM     12  C   UNL     1       0.539  10.345  18.359  0.00  0.00    +0.000 A 
ATOM     13  C   UNL     1       0.830  11.671  18.704  0.00  0.00    +0.000 A 
ATOM     14  C   UNL     1      -0.065  12.695  18.368  0.00  0.00    +0.000 A 
ATOM     15  C   UNL     1      -1.316  12.396  17.816  0.00  0.00    +0.000 A 
BRANCH  14  16
ATOM     16  N   UNL     1       0.342  14.095  18.538  0.00  0.00    +0.000 N 
ATOM     17  O   UNL     1      -0.545  14.929  18.773  0.00  0.00    +0.000 OA
ATOM     18  O   UNL     1       1.548  14.360  18.456  0.00  0.00    +0.000 OA
ENDBRANCH  14  16
BRANCH  10  19
ATOM     19  C   UNL     1      -3.032  10.776  17.072  0.00  0.00    +0.000 C 
ATOM     20  O   UNL     1      -4.030  11.366  17.456  0.00  0.00    +0.000 OA
BRANCH  19  22
ATOM     21  C   UNL     1      -2.980  10.219  14.804  0.00  0.00    +0.000 C 
ATOM     22  O   UNL     1      -2.997   9.777  16.161  0.00  0.00    +0.000 OA
ENDBRANCH  19  22
ENDBRANCH  10  19
ENDBRANCH   1  12
BRANCH   3  23
ATOM     23  C   UNL     1       2.522   7.340  19.772  0.00  0.00    +0.000 C 
BRANCH  23  24
ATOM     24  C   UNL     1       1.943   5.986  19.393  0.00  0.00    +0.000 A 
ATOM     25  C   UNL     1       1.982   5.535  18.062  0.00  0.00    +0.000 A 
ATOM     26  C   UNL     1       1.627   4.221  17.742  0.00  0.00    +0.000 A 
ATOM     27  C   UNL     1       1.210   3.348  18.744  0.00  0.00    +0.000 A 
ATOM     28  C   UNL     1       1.104   3.800  20.058  0.00  0.00    +0.000 A 
ATOM     29  C   UNL     1       1.460   5.113  20.379  0.00  0.00    +0.000 A 
ENDBRANCH  23  24
ENDBRANCH   3  23
TORSDOF 6
ENDMDL
MODEL 6
REMARK VINA RESULT:      -7.7      2.965      5.108
REMARK  Name = 
REMARK  7 active torsions:
REMARK  status: ('A' for Active; 'I' for Inactive)
REMARK    1  A    between atoms: C_1  and  O_2
REMARK    2  A    between atoms: O_2  and  C_3
REMARK    3  A    between atoms: C_3  and  C_5
REMARK    4  A    between atoms: C_7  and  C_8
REMARK    5  A    between atoms: N_10  and  C_11
REMARK    6  A    between atoms: C_11  and  C_12
REMARK    7  A    between atoms: C_25  and  N_26
REMARK                            x       y       z     vdW  Elec       q    Type
REMARK                         _______ _______ _______ _____ _____    ______ ____
ROOT
ATOM      1  C   UNL     1       1.468   9.197  18.449  0.00  0.00    +0.000 C 
ATOM      2  O   UNL     1       2.162   8.906  17.471  0.00  0.00    +0.000 OA
ATOM      3  N   UNL     1       1.546   8.495  19.656  0.00  0.00    +0.000 N 
ATOM      4  C   UNL     1       0.939   8.924  20.856  0.00  0.00    +0.000 A 
ATOM      5  C   UNL     1       0.137   8.021  21.555  0.00  0.00    +0.000 A 
ATOM      6  C   UNL     1      -0.570   8.468  22.667  0.00  0.00    +0.000 A 
ATOM      7  C   UNL     1      -0.426   9.786  23.073  0.00  0.00    +0.000 A 
ATOM      8  C   UNL     1       0.399  10.614  22.330  0.00  0.00    +0.000 A 
ATOM      9  N   UNL     1       1.050  10.220  21.214  0.00  0.00    +0.000 NA
ENDROOT
BRANCH   1  12
ATOM     10  C   UNL     1       0.033  12.708  18.398  0.00  0.00    +0.000 A 
ATOM     11  C   UNL     1       0.922  11.624  18.473  0.00  0.00    +0.000 A 
ATOM     12  C   UNL     1       0.480  10.310  18.247  0.00  0.00    +0.000 A 
ATOM     13  C   UNL     1      -0.841  10.107  17.829  0.00  0.00    +0.000 A 
ATOM     14  C   UNL     1      -1.748  11.175  17.831  0.00  0.00    +0.000 A 
ATOM     15  C   UNL     1      -1.317  12.477  18.110  0.00  0.00    +0.000 A 
BRANCH  14  16
ATOM     16  N   UNL     1      -3.174  10.912  17.601  0.00  0.00    +0.000 N 
ATOM     17  O   UNL     1      -3.992  11.509  18.315  0.00  0.00    +0.000 OA
ATOM     18  O   UNL     1      -3.478  10.124  16.697  0.00  0.00    +0.000 OA
ENDBRANCH  14  16
BRANCH  10  19
ATOM     19  C   UNL     1       0.469  14.112  18.617  0.00  0.00    +0.000 C 
ATOM     20  O   UNL     1      -0.309  15.049  18.703  0.00  0.00    +0.000 OA
BRANCH  19  22
ATOM     21  C   UNL     1       2.340  15.508  18.527  0.00  0.00    +0.000 C 
ATOM     22  O   UNL     1       1.818  14.188  18.677  0.00  0.00    +0.000 OA
ENDBRANCH  19  22
ENDBRANCH  10  19
ENDBRANCH   1  12
BRANCH   3  23
ATOM     23  C   UNL     1       2.495   7.385  19.777  0.00  0.00    +0.000 C 
BRANCH  23  24
ATOM     24  C   UNL     1       1.940   6.012  19.434  0.00  0.00    +0.000 A 
ATOM     25  C   UNL     1       1.971   5.534  18.112  0.00  0.00    +0.000 A 
ATOM     26  C   UNL     1       1.640   4.207  17.823  0.00  0.00    +0.000 A 
ATOM     27  C   UNL     1       1.252   3.347  18.848  0.00  0.00    +0.000 A 
ATOM     28  C   UNL     1       1.152   3.824  20.154  0.00  0.00    +0.000 A 
ATOM     29  C   UNL     1       1.486   5.151  20.443  0.00  0.00    +0.000 A 
ENDBRANCH  23  24
ENDBRANCH   3  23
TORSDOF 6
ENDMDL
MODEL 7
REMARK VINA RESULT:      -7.5      2.927      5.156
REMARK  Name = 
REMARK  7 active torsions:
REMARK  status: ('A' for Active; 'I' for Inactive)
REMARK    1  A    between atoms: C_1  and  O_2
REMARK    2  A    between atoms: O_2  and  C_3
REMARK    3  A    between atoms: C_3  and  C_5
REMARK    4  A    between atoms: C_7  and  C_8
REMARK    5  A    between atoms: N_10  and  C_11
REMARK    6  A    between atoms: C_11  and  C_12
REMARK    7  A    between atoms: C_25  and  N_26
REMARK                            x       y       z     vdW  Elec       q    Type
REMARK                         _______ _______ _______ _____ _____    ______ ____
ROOT
ATOM      1  C   UNL     1       1.450   9.125  18.404  0.00  0.00    +0.000 C 
ATOM      2  O   UNL     1       2.162   8.841  17.438  0.00  0.00    +0.000 OA
ATOM      3  N   UNL     1       1.580   8.484  19.642  0.00  0.00    +0.000 N 
ATOM      4  C   UNL     1       0.945   8.922  20.824  0.00  0.00    +0.000 A 
ATOM      5  C   UNL     1       0.212   7.995  21.566  0.00  0.00    +0.000 A 
ATOM      6  C   UNL     1      -0.525   8.439  22.660  0.00  0.00    +0.000 A 
ATOM      7  C   UNL     1      -0.477   9.780  23.006  0.00  0.00    +0.000 A 
ATOM      8  C   UNL     1       0.285  10.632  22.224  0.00  0.00    +0.000 A 
ATOM      9  N   UNL     1       0.962  10.237  21.123  0.00  0.00    +0.000 NA
ENDROOT
BRANCH   1  12
ATOM     10  C   UNL     1      -0.330  12.474  18.430  0.00  0.00    +0.000 A 
ATOM     11  C   UNL     1       0.652  11.477  18.541  0.00  0.00    +0.000 A 
ATOM     12  C   UNL     1       0.383  10.153  18.157  0.00  0.00    +0.000 A 
ATOM     13  C   UNL     1      -0.845   9.864  17.552  0.00  0.00    +0.000 A 
ATOM     14  C   UNL     1      -1.853  10.836  17.514  0.00  0.00    +0.000 A 
ATOM     15  C   UNL     1      -1.600  12.143  17.946  0.00  0.00    +0.000 A 
BRANCH  14  16
ATOM     16  N   UNL     1      -3.203  10.461  17.075  0.00  0.00    +0.000 N 
ATOM     17  O   UNL     1      -3.974   9.990  17.923  0.00  0.00    +0.000 OA
ATOM     18  O   UNL     1      -3.500  10.653  15.890  0.00  0.00    +0.000 OA
ENDBRANCH  14  16
BRANCH  10  19
ATOM     19  C   UNL     1      -0.075  13.888  18.812  0.00  0.00    +0.000 C 
ATOM     20  O   UNL     1      -0.903  14.589  19.372  0.00  0.00    +0.000 OA
BRANCH  19  22
ATOM     21  C   UNL     1       1.653  15.433  19.096  0.00  0.00    +0.000 C 
ATOM     22  O   UNL     1       1.165  14.269  18.431  0.00  0.00    +0.000 OA
ENDBRANCH  19  22
ENDBRANCH  10  19
ENDBRANCH   1  12
BRANCH   3  23
ATOM     23  C   UNL     1       2.608   7.453  19.808  0.00  0.00    +0.000 C 
BRANCH  23  24
ATOM     24  C   UNL     1       2.170   6.037  19.472  0.00  0.00    +0.000 A 
ATOM     25  C   UNL     1       1.631   5.197  20.463  0.00  0.00    +0.000 A 
ATOM     26  C   UNL     1       1.053   3.970  20.123  0.00  0.00    +0.000 A 
ATOM     27  C   UNL     1       1.025   3.557  18.793  0.00  0.00    +0.000 A 
ATOM     28  C   UNL     1       1.615   4.349  17.808  0.00  0.00    +0.000 A 
ATOM     29  C   UNL     1       2.191   5.577  18.147  0.00  0.00    +0.000 A 
ENDBRANCH  23  24
ENDBRANCH   3  23
TORSDOF 6
ENDMDL
MODEL 8
REMARK VINA RESULT:      -7.3      1.310      3.226
REMARK  Name = 
REMARK  7 active torsions:
REMARK  status: ('A' for Active; 'I' for Inactive)
REMARK    1  A    between atoms: C_1  and  O_2
REMARK    2  A    between atoms: O_2  and  C_3
REMARK    3  A    between atoms: C_3  and  C_5
REMARK    4  A    between atoms: C_7  and  C_8
REMARK    5  A    between atoms: N_10  and  C_11
REMARK    6  A    between atoms: C_11  and  C_12
REMARK    7  A    between atoms: C_25  and  N_26
REMARK                            x       y       z     vdW  Elec       q    Type
REMARK                         _______ _______ _______ _____ _____    ______ ____
ROOT
ATOM      1  C   UNL     1       2.858   8.175  17.734  0.00  0.00    +0.000 C 
ATOM      2  O   UNL     1       3.585   8.911  17.061  0.00  0.00    +0.000 OA
ATOM      3  N   UNL     1       3.071   6.795  17.825  0.00  0.00    +0.000 N 
ATOM      4  C   UNL     1       2.407   5.956  18.745  0.00  0.00    +0.000 A 
ATOM      5  C   UNL     1       1.786   4.802  18.266  0.00  0.00    +0.000 A 
ATOM      6  C   UNL     1       1.020   4.036  19.138  0.00  0.00    +0.000 A 
ATOM      7  C   UNL     1       0.929   4.418  20.468  0.00  0.00    +0.000 A 
ATOM      8  C   UNL     1       1.586   5.570  20.866  0.00  0.00    +0.000 A 
ATOM      9  N   UNL     1       2.287   6.363  20.026  0.00  0.00    +0.000 NA
ENDROOT
BRANCH   1  12
ATOM     10  C   UNL     1       0.673   9.601  20.487  0.00  0.00    +0.000 A 
ATOM     11  C   UNL     1       1.766   9.075  19.779  0.00  0.00    +0.000 A 
ATOM     12  C   UNL     1       1.685   8.837  18.398  0.00  0.00    +0.000 A 
ATOM     13  C   UNL     1       0.534   9.243  17.712  0.00  0.00    +0.000 A 
ATOM     14  C   UNL     1      -0.584   9.694  18.425  0.00  0.00    +0.000 A 
ATOM     15  C   UNL     1      -0.519   9.879  19.810  0.00  0.00    +0.000 A 
BRANCH  14  16
ATOM     16  N   UNL     1      -1.853   9.911  17.718  0.00  0.00    +0.000 N 
ATOM     17  O   UNL     1      -1.884   9.667  16.503  0.00  0.00    +0.000 OA
ATOM     18  O   UNL     1      -2.821  10.306  18.378  0.00  0.00    +0.000 OA
ENDBRANCH  14  16
BRANCH  10  19
ATOM     19  C   UNL     1       0.730   9.879  21.946  0.00  0.00    +0.000 C 
ATOM     20  O   UNL     1       1.361   9.192  22.734  0.00  0.00    +0.000 OA
BRANCH  19  22
ATOM     21  C   UNL     1      -1.090  10.689  23.168  0.00  0.00    +0.000 C 
ATOM     22  O   UNL     1      -0.025  10.958  22.256  0.00  0.00    +0.000 OA
ENDBRANCH  19  22
ENDBRANCH  10  19
ENDBRANCH   1  12
BRANCH   3  23
ATOM     23  C   UNL     1       4.205   6.199  17.113  0.00  0.00    +0.000 C 
BRANCH  23  24
ATOM     24  C   UNL     1       5.545   6.301  17.823  0.00  0.00    +0.000 A 
ATOM     25  C   UNL     1       5.849   5.462  18.910  0.00  0.00    +0.000 A 
ATOM     26  C   UNL     1       7.142   5.419  19.441  0.00  0.00    +0.000 A 
ATOM     27  C   UNL     1       8.141   6.229  18.908  0.00  0.00    +0.000 A 
ATOM     28  C   UNL     1       7.839   7.114  17.874  0.00  0.00    +0.000 A 
ATOM     29  C   UNL     1       6.547   7.156  17.341  0.00  0.00    +0.000 A 
ENDBRANCH  23  24
ENDBRANCH   3  23
TORSDOF 6
ENDMDL
MODEL 9
REMARK VINA RESULT:      -7.2      2.901      4.719
REMARK  Name = 
REMARK  7 active torsions:
REMARK  status: ('A' for Active; 'I' for Inactive)
REMARK    1  A    between atoms: C_1  and  O_2
REMARK    2  A    between atoms: O_2  and  C_3
REMARK    3  A    between atoms: C_3  and  C_5
REMARK    4  A    between atoms: C_7  and  C_8
REMARK    5  A    between atoms: N_10  and  C_11
REMARK    6  A    between atoms: C_11  and  C_12
REMARK    7  A    between atoms: C_25  and  N_26
REMARK                            x       y       z     vdW  Elec       q    Type
REMARK                         _______ _______ _______ _____ _____    ______ ____
ROOT
ATOM      1  C   UNL     1       1.476   9.205  18.458  0.00  0.00    +0.000 C 
ATOM      2  O   UNL     1       2.168   8.970  17.464  0.00  0.00    +0.000 OA
ATOM      3  N   UNL     1       1.623   8.497  19.656  0.00  0.00    +0.000 N 
ATOM      4  C   UNL     1       1.013   8.873  20.872  0.00  0.00    +0.000 A 
ATOM      5  C   UNL     1       0.287   7.912  21.576  0.00  0.00    +0.000 A 
ATOM      6  C   UNL     1      -0.427   8.300  22.706  0.00  0.00    +0.000 A 
ATOM      7  C   UNL     1      -0.362   9.621  23.123  0.00  0.00    +0.000 A 
ATOM      8  C   UNL     1       0.392  10.509  22.375  0.00  0.00    +0.000 A 
ATOM      9  N   UNL     1       1.046  10.170  21.242  0.00  0.00    +0.000 NA
ENDROOT
BRANCH   1  12
ATOM     10  C   UNL     1      -1.767  10.828  17.343  0.00  0.00    +0.000 A 
ATOM     11  C   UNL     1      -0.769   9.881  17.625  0.00  0.00    +0.000 A 
ATOM     12  C   UNL     1       0.413  10.253  18.287  0.00  0.00    +0.000 A 
ATOM     13  C   UNL     1       0.532  11.562  18.767  0.00  0.00    +0.000 A 
ATOM     14  C   UNL     1      -0.424  12.526  18.419  0.00  0.00    +0.000 A 
ATOM     15  C   UNL     1      -1.576  12.164  17.712  0.00  0.00    +0.000 A 
BRANCH  14  16
ATOM     16  N   UNL     1      -0.179  13.937  18.744  0.00  0.00    +0.000 N 
ATOM     17  O   UNL     1      -1.062  14.546  19.364  0.00  0.00    +0.000 OA
ATOM     18  O   UNL     1       0.900  14.431  18.396  0.00  0.00    +0.000 OA
ENDBRANCH  14  16
BRANCH  10  19
ATOM     19  C   UNL     1      -3.035  10.467  16.658  0.00  0.00    +0.000 C 
ATOM     20  O   UNL     1      -3.130   9.535  15.874  0.00  0.00    +0.000 OA
BRANCH  19  22
ATOM     21  C   UNL     1      -4.937  10.799  17.973  0.00  0.00    +0.000 C 
ATOM     22  O   UNL     1      -4.025  11.319  17.006  0.00  0.00    +0.000 OA
ENDBRANCH  19  22
ENDBRANCH  10  19
ENDBRANCH   1  12
BRANCH   3  23
ATOM     23  C   UNL     1       2.646   7.451  19.746  0.00  0.00    +0.000 C 
BRANCH  23  24
ATOM     24  C   UNL     1       2.172   6.046  19.413  0.00  0.00    +0.000 A 
ATOM     25  C   UNL     1       1.646   5.210  20.412  0.00  0.00    +0.000 A 
ATOM     26  C   UNL     1       1.035   3.996  20.081  0.00  0.00    +0.000 A 
ATOM     27  C   UNL     1       0.962   3.594  18.749  0.00  0.00    +0.000 A 
ATOM     28  C   UNL     1       1.539   4.381  17.754  0.00  0.00    +0.000 A 
ATOM     29  C   UNL     1       2.147   5.596  18.085  0.00  0.00    +0.000 A 
ENDBRANCH  23  24
ENDBRANCH   3  23
TORSDOF 6
ENDMDL
