MODEL 1
REMARK VINA RESULT:      -8.2      0.000      0.000
REMARK  Name = 
REMARK  6 active torsions:
REMARK  status: ('A' for Active; 'I' for Inactive)
REMARK    1  A    between atoms: C_1  and  C_2
REMARK    2  A    between atoms: C_11  and  N_12
REMARK    3  A    between atoms: C_13  and  C_15
REMARK    4  A    between atoms: C_15  and  C_16
REMARK    5  A    between atoms: C_16  and  C_17
REMARK    6  A    between atoms: C_22  and  O_23
REMARK                            x       y       z     vdW  Elec       q    Type
REMARK                         _______ _______ _______ _____ _____    ______ ____
ROOT
ATOM      1  N   UNL     1       3.178   6.815  18.095  0.00  0.00    +0.000 N 
ATOM      2  C   UNL     1       2.470   7.800  18.739  0.00  0.00    +0.000 C 
ATOM      3  O   UNL     1       2.251   7.820  19.946  0.00  0.00    +0.000 OA
ATOM      4  H   UNL     1       3.339   6.906  17.102  0.00  0.00    +0.000 HD
ENDROOT
BRANCH   1  15
ATOM      5  C   UNL     1       6.096   6.336  17.842  0.00  0.00    +0.000 C 
ATOM      6  C   UNL     1       5.093   5.210  18.088  0.00  0.00    +0.000 C 
ATOM      7  C   UNL     1       4.768   4.475  16.780  0.00  0.00    +0.000 C 
ATOM      8  C   UNL     1       3.982   3.202  17.077  0.00  0.00    +0.000 C 
ATOM      9  C   UNL     1       2.861   3.399  18.067  0.00  0.00    +0.000 A 
ATOM     10  C   UNL     1       1.922   2.368  18.223  0.00  0.00    +0.000 A 
ATOM     11  C   UNL     1       0.896   2.472  19.161  0.00  0.00    +0.000 A 
ATOM     12  C   UNL     1       0.801   3.610  19.956  0.00  0.00    +0.000 A 
ATOM     13  C   UNL     1       1.735   4.635  19.822  0.00  0.00    +0.000 A 
ATOM     14  C   UNL     1       2.781   4.542  18.886  0.00  0.00    +0.000 A 
ATOM     15  C   UNL     1       3.786   5.682  18.781  0.00  0.00    +0.000 C 
ENDBRANCH   1  15
BRANCH   2  16
ATOM     16  C   UNL     1       1.953   8.888  17.816  0.00  0.00    +0.000 C 
BRANCH  16  17
ATOM     17  C   UNL     1       0.439   9.032  17.935  0.00  0.00    +0.000 C 
BRANCH  17  18
ATOM     18  C   UNL     1       0.035  10.416  18.419  0.00  0.00    +0.000 C 
ATOM     19  O   UNL     1       0.762  11.060  19.176  0.00  0.00    +0.000 OA
ATOM     20  N   UNL     1      -1.176  10.917  17.967  0.00  0.00    +0.000 N 
ATOM     21  C   UNL     1      -2.029  10.299  16.951  0.00  0.00    +0.000 C 
ATOM     22  C   UNL     1      -3.421  10.032  17.513  0.00  0.00    +0.000 C 
ATOM     23  C   UNL     1      -4.029  11.282  18.154  0.00  0.00    +0.000 C 
ATOM     24  C   UNL     1      -3.066  11.956  19.134  0.00  0.00    +0.000 C 
ATOM     25  C   UNL     1      -1.682  12.169  18.524  0.00  0.00    +0.000 C 
BRANCH  23  26
ATOM     26  O   UNL     1      -4.445  12.200  17.145  0.00  0.00    +0.000 OA
ATOM     27  H   UNL     1      -3.682  12.449  16.598  0.00  0.00    +0.000 HD
ENDBRANCH  23  26
ENDBRANCH  17  18
ENDBRANCH  16  17
ENDBRANCH   2  16
TORSDOF 5
ENDMDL
MODEL 2
REMARK VINA RESULT:      -7.8      2.486      8.723
REMARK  Name = 
REMARK  6 active torsions:
REMARK  status: ('A' for Active; 'I' for Inactive)
REMARK    1  A    between atoms: C_1  and  C_2
REMARK    2  A    between atoms: C_11  and  N_12
REMARK    3  A    between atoms: C_13  and  C_15
REMARK    4  A    between atoms: C_15  and  C_16
REMARK    5  A    between atoms: C_16  and  C_17
REMARK    6  A    between atoms: C_22  and  O_23
REMARK                            x       y       z     vdW  Elec       q    Type
REMARK                         _______ _______ _______ _____ _____    ______ ____
ROOT
ATOM      1  N   UNL     1       0.401  10.032  19.014  0.00  0.00    +0.000 N 
ATOM      2  C   UNL     1       1.452   9.363  18.438  0.00  0.00    +0.000 C 
ATOM      3  O   UNL     1       2.054   9.746  17.440  0.00  0.00    +0.000 OA
ATOM      4  H   UNL     1      -0.007   9.657  19.859  0.00  0.00    +0.000 HD
ENDROOT
BRANCH   1  15
ATOM      5  C   UNL     1       1.485  12.572  20.100  0.00  0.00    +0.000 C 
ATOM      6  C   UNL     1       0.062  12.447  19.559  0.00  0.00    +0.000 C 
ATOM      7  C   UNL     1      -0.944  12.281  20.706  0.00  0.00    +0.000 C 
ATOM      8  C   UNL     1      -2.369  12.423  20.178  0.00  0.00    +0.000 C 
ATOM      9  C   UNL     1      -2.622  11.651  18.906  0.00  0.00    +0.000 A 
ATOM     10  C   UNL     1      -3.948  11.504  18.471  0.00  0.00    +0.000 A 
ATOM     11  C   UNL     1      -4.238  10.846  17.277  0.00  0.00    +0.000 A 
ATOM     12  C   UNL     1      -3.203  10.333  16.502  0.00  0.00    +0.000 A 
ATOM     13  C   UNL     1      -1.881  10.485  16.915  0.00  0.00    +0.000 A 
ATOM     14  C   UNL     1      -1.570  11.152  18.113  0.00  0.00    +0.000 A 
ATOM     15  C   UNL     1      -0.110  11.305  18.521  0.00  0.00    +0.000 C 
ENDBRANCH   1  15
BRANCH   2  16
ATOM     16  C   UNL     1       1.819   8.070  19.144  0.00  0.00    +0.000 C 
BRANCH  16  17
ATOM     17  C   UNL     1       2.561   7.127  18.203  0.00  0.00    +0.000 C 
BRANCH  17  18
ATOM     18  C   UNL     1       3.376   6.091  18.962  0.00  0.00    +0.000 C 
ATOM     19  O   UNL     1       2.992   5.653  20.047  0.00  0.00    +0.000 OA
ATOM     20  N   UNL     1       4.559   5.663  18.379  0.00  0.00    +0.000 N 
ATOM     21  C   UNL     1       5.018   6.005  17.033  0.00  0.00    +0.000 C 
ATOM     22  C   UNL     1       6.387   6.675  17.089  0.00  0.00    +0.000 C 
ATOM     23  C   UNL     1       7.393   5.852  17.895  0.00  0.00    +0.000 C 
ATOM     24  C   UNL     1       6.836   5.428  19.256  0.00  0.00    +0.000 C 
ATOM     25  C   UNL     1       5.453   4.792  19.137  0.00  0.00    +0.000 C 
BRANCH  23  26
ATOM     26  O   UNL     1       7.813   4.712  17.146  0.00  0.00    +0.000 OA
ATOM     27  H   UNL     1       8.780   4.633  17.191  0.00  0.00    +0.000 HD
ENDBRANCH  23  26
ENDBRANCH  17  18
ENDBRANCH  16  17
ENDBRANCH   2  16
TORSDOF 5
ENDMDL
MODEL 3
REMARK VINA RESULT:      -7.8      1.730      2.557
REMARK  Name = 
REMARK  6 active torsions:
REMARK  status: ('A' for Active; 'I' for Inactive)
REMARK    1  A    between atoms: C_1  and  C_2
REMARK    2  A    between atoms: C_11  and  N_12
REMARK    3  A    between atoms: C_13  and  C_15
REMARK    4  A    between atoms: C_15  and  C_16
REMARK    5  A    between atoms: C_16  and  C_17
REMARK    6  A    between atoms: C_22  and  O_23
REMARK                            x       y       z     vdW  Elec       q    Type
REMARK                         _______ _______ _______ _____ _____    ______ ____
ROOT
ATOM      1  N   UNL     1       2.914   6.805  17.948  0.00  0.00    +0.000 N 
ATOM      2  C   UNL     1       2.256   7.825  18.589  0.00  0.00    +0.000 C 
ATOM      3  O   UNL     1       2.179   7.943  19.808  0.00  0.00    +0.000 OA
ATOM      4  H   UNL     1       2.956   6.814  16.939  0.00  0.00    +0.000 HD
ENDROOT
BRANCH   1  15
ATOM      5  C   UNL     1       5.861   6.591  17.663  0.00  0.00    +0.000 C 
ATOM      6  C   UNL     1       4.969   5.383  17.945  0.00  0.00    +0.000 C 
ATOM      7  C   UNL     1       4.697   4.595  16.657  0.00  0.00    +0.000 C 
ATOM      8  C   UNL     1       4.036   3.260  16.989  0.00  0.00    +0.000 C 
ATOM      9  C   UNL     1       2.914   3.374  17.992  0.00  0.00    +0.000 A 
ATOM     10  C   UNL     1       2.077   2.264  18.181  0.00  0.00    +0.000 A 
ATOM     11  C   UNL     1       1.057   2.293  19.131  0.00  0.00    +0.000 A 
ATOM     12  C   UNL     1       0.867   3.434  19.906  0.00  0.00    +0.000 A 
ATOM     13  C   UNL     1       1.701   4.537  19.738  0.00  0.00    +0.000 A 
ATOM     14  C   UNL     1       2.739   4.522  18.789  0.00  0.00    +0.000 A 
ATOM     15  C   UNL     1       3.633   5.747  18.647  0.00  0.00    +0.000 C 
ENDBRANCH   1  15
BRANCH   2  16
ATOM     16  C   UNL     1       1.602   8.820  17.648  0.00  0.00    +0.000 C 
BRANCH  16  17
ATOM     17  C   UNL     1       1.499  10.198  18.296  0.00  0.00    +0.000 C 
BRANCH  17  18
ATOM     18  C   UNL     1       0.064  10.553  18.652  0.00  0.00    +0.000 C 
ATOM     19  O   UNL     1      -0.869  10.240  17.912  0.00  0.00    +0.000 OA
ATOM     20  N   UNL     1      -0.143  11.236  19.841  0.00  0.00    +0.000 N 
ATOM     21  C   UNL     1       0.875  11.513  20.854  0.00  0.00    +0.000 C 
ATOM     22  C   UNL     1       0.986  13.013  21.104  0.00  0.00    +0.000 C 
ATOM     23  C   UNL     1      -0.375  13.644  21.407  0.00  0.00    +0.000 C 
ATOM     24  C   UNL     1      -1.437  13.247  20.380  0.00  0.00    +0.000 C 
ATOM     25  C   UNL     1      -1.479  11.738  20.151  0.00  0.00    +0.000 C 
BRANCH  23  26
ATOM     26  O   UNL     1      -0.796  13.300  22.726  0.00  0.00    +0.000 OA
ATOM     27  H   UNL     1      -0.271  13.799  23.374  0.00  0.00    +0.000 HD
ENDBRANCH  23  26
ENDBRANCH  17  18
ENDBRANCH  16  17
ENDBRANCH   2  16
TORSDOF 5
ENDMDL
MODEL 4
REMARK VINA RESULT:      -7.8      1.749      3.416
REMARK  Name = 
REMARK  6 active torsions:
REMARK  status: ('A' for Active; 'I' for Inactive)
REMARK    1  A    between atoms: C_1  and  C_2
REMARK    2  A    between atoms: C_11  and  N_12
REMARK    3  A    between atoms: C_13  and  C_15
REMARK    4  A    between atoms: C_15  and  C_16
REMARK    5  A    between atoms: C_16  and  C_17
REMARK    6  A    between atoms: C_22  and  O_23
REMARK                            x       y       z     vdW  Elec       q    Type
REMARK                         _______ _______ _______ _____ _____    ______ ____
ROOT
ATOM      1  N   UNL     1       2.562   6.241  19.836  0.00  0.00    +0.000 N 
ATOM      2  C   UNL     1       2.077   7.520  19.712  0.00  0.00    +0.000 C 
ATOM      3  O   UNL     1       1.869   8.082  18.642  0.00  0.00    +0.000 OA
ATOM      4  H   UNL     1       2.664   5.850  20.762  0.00  0.00    +0.000 HD
ENDROOT
BRANCH   1  15
ATOM      5  C   UNL     1       1.078   3.696  19.484  0.00  0.00    +0.000 C 
ATOM      6  C   UNL     1       2.505   3.896  18.976  0.00  0.00    +0.000 C 
ATOM      7  C   UNL     1       3.520   3.275  19.945  0.00  0.00    +0.000 C 
ATOM      8  C   UNL     1       4.905   3.246  19.305  0.00  0.00    +0.000 C 
ATOM      9  C   UNL     1       5.284   4.539  18.626  0.00  0.00    +0.000 A 
ATOM     10  C   UNL     1       6.618   4.714  18.227  0.00  0.00    +0.000 A 
ATOM     11  C   UNL     1       7.015   5.865  17.549  0.00  0.00    +0.000 A 
ATOM     12  C   UNL     1       6.080   6.853  17.259  0.00  0.00    +0.000 A 
ATOM     13  C   UNL     1       4.749   6.686  17.636  0.00  0.00    +0.000 A 
ATOM     14  C   UNL     1       4.330   5.527  18.315  0.00  0.00    +0.000 A 
ATOM     15  C   UNL     1       2.863   5.382  18.699  0.00  0.00    +0.000 C 
ENDBRANCH   1  15
BRANCH   2  16
ATOM     16  C   UNL     1       1.818   8.210  21.039  0.00  0.00    +0.000 C 
BRANCH  16  17
ATOM     17  C   UNL     1       0.376   8.699  21.128  0.00  0.00    +0.000 C 
BRANCH  17  18
ATOM     18  C   UNL     1       0.286  10.216  21.097  0.00  0.00    +0.000 C 
ATOM     19  O   UNL     1       0.611  10.891  22.074  0.00  0.00    +0.000 OA
ATOM     20  N   UNL     1      -0.168  10.801  19.924  0.00  0.00    +0.000 N 
ATOM     21  C   UNL     1      -0.426  10.099  18.666  0.00  0.00    +0.000 C 
ATOM     22  C   UNL     1      -1.870  10.311  18.223  0.00  0.00    +0.000 C 
ATOM     23  C   UNL     1      -2.247  11.793  18.193  0.00  0.00    +0.000 C 
ATOM     24  C   UNL     1      -1.868  12.513  19.489  0.00  0.00    +0.000 C 
ATOM     25  C   UNL     1      -0.422  12.239  19.896  0.00  0.00    +0.000 C 
BRANCH  23  26
ATOM     26  O   UNL     1      -1.648  12.433  17.068  0.00  0.00    +0.000 OA
ATOM     27  H   UNL     1      -1.988  12.035  16.250  0.00  0.00    +0.000 HD
ENDBRANCH  23  26
ENDBRANCH  17  18
ENDBRANCH  16  17
ENDBRANCH   2  16
TORSDOF 5
ENDMDL
MODEL 5
REMARK VINA RESULT:      -7.7      2.063      2.951
REMARK  Name = 
REMARK  6 active torsions:
REMARK  status: ('A' for Active; 'I' for Inactive)
REMARK    1  A    between atoms: C_1  and  C_2
REMARK    2  A    between atoms: C_11  and  N_12
REMARK    3  A    between atoms: C_13  and  C_15
REMARK    4  A    between atoms: C_15  and  C_16
REMARK    5  A    between atoms: C_16  and  C_17
REMARK    6  A    between atoms: C_22  and  O_23
REMARK                            x       y       z     vdW  Elec       q    Type
REMARK                         _______ _______ _______ _____ _____    ______ ____
ROOT
ATOM      1  N   UNL     1       2.874   6.914  18.015  0.00  0.00    +0.000 N 
ATOM      2  C   UNL     1       2.213   7.912  18.688  0.00  0.00    +0.000 C 
ATOM      3  O   UNL     1       2.151   8.001  19.911  0.00  0.00    +0.000 OA
ATOM      4  H   UNL     1       2.901   6.948  17.006  0.00  0.00    +0.000 HD
ENDROOT
BRANCH   1  15
ATOM      5  C   UNL     1       5.807   6.693  17.618  0.00  0.00    +0.000 C 
ATOM      6  C   UNL     1       4.922   5.486  17.926  0.00  0.00    +0.000 C 
ATOM      7  C   UNL     1       4.600   4.707  16.643  0.00  0.00    +0.000 C 
ATOM      8  C   UNL     1       3.946   3.373  16.990  0.00  0.00    +0.000 C 
ATOM      9  C   UNL     1       2.863   3.484  18.035  0.00  0.00    +0.000 A 
ATOM     10  C   UNL     1       2.029   2.375  18.248  0.00  0.00    +0.000 A 
ATOM     11  C   UNL     1       1.046   2.401  19.235  0.00  0.00    +0.000 A 
ATOM     12  C   UNL     1       0.889   3.536  20.024  0.00  0.00    +0.000 A 
ATOM     13  C   UNL     1       1.720   4.638  19.833  0.00  0.00    +0.000 A 
ATOM     14  C   UNL     1       2.721   4.626  18.846  0.00  0.00    +0.000 A 
ATOM     15  C   UNL     1       3.614   5.850  18.680  0.00  0.00    +0.000 C 
ENDBRANCH   1  15
BRANCH   2  16
ATOM     16  C   UNL     1       1.534   8.921  17.780  0.00  0.00    +0.000 C 
BRANCH  16  17
ATOM     17  C   UNL     1       1.917  10.346  18.165  0.00  0.00    +0.000 C 
BRANCH  17  18
ATOM     18  C   UNL     1       0.767  11.083  18.835  0.00  0.00    +0.000 C 
ATOM     19  O   UNL     1      -0.328  10.541  18.991  0.00  0.00    +0.000 OA
ATOM     20  N   UNL     1       1.009  12.380  19.263  0.00  0.00    +0.000 N 
ATOM     21  C   UNL     1       2.310  13.049  19.264  0.00  0.00    +0.000 C 
ATOM     22  C   UNL     1       2.250  14.332  18.442  0.00  0.00    +0.000 C 
ATOM     23  C   UNL     1       1.091  15.233  18.874  0.00  0.00    +0.000 C 
ATOM     24  C   UNL     1      -0.233  14.471  18.959  0.00  0.00    +0.000 C 
ATOM     25  C   UNL     1      -0.102  13.182  19.767  0.00  0.00    +0.000 C 
BRANCH  23  26
ATOM     26  O   UNL     1       1.391  15.863  20.118  0.00  0.00    +0.000 OA
ATOM     27  H   UNL     1       1.212  15.244  20.845  0.00  0.00    +0.000 HD
ENDBRANCH  23  26
ENDBRANCH  17  18
ENDBRANCH  16  17
ENDBRANCH   2  16
TORSDOF 5
ENDMDL
MODEL 6
REMARK VINA RESULT:      -7.7      2.288      3.796
REMARK  Name = 
REMARK  6 active torsions:
REMARK  status: ('A' for Active; 'I' for Inactive)
REMARK    1  A    between atoms: C_1  and  C_2
REMARK    2  A    between atoms: C_11  and  N_12
REMARK    3  A    between atoms: C_13  and  C_15
REMARK    4  A    between atoms: C_15  and  C_16
REMARK    5  A    between atoms: C_16  and  C_17
REMARK    6  A    between atoms: C_22  and  O_23
REMARK                            x       y       z     vdW  Elec       q    Type
REMARK                         _______ _______ _______ _____ _____    ______ ____
ROOT
ATOM      1  N   UNL     1       2.441   6.354  20.010  0.00  0.00    +0.000 N 
ATOM      2  C   UNL     1       1.916   7.618  19.906  0.00  0.00    +0.000 C 
ATOM      3  O   UNL     1       1.613   8.158  18.846  0.00  0.00    +0.000 OA
ATOM      4  H   UNL     1       2.623   5.980  20.931  0.00  0.00    +0.000 HD
ENDROOT
BRANCH   1  15
ATOM      5  C   UNL     1       0.919   3.819  19.756  0.00  0.00    +0.000 C 
ATOM      6  C   UNL     1       2.319   4.003  19.172  0.00  0.00    +0.000 C 
ATOM      7  C   UNL     1       3.378   3.379  20.092  0.00  0.00    +0.000 C 
ATOM      8  C   UNL     1       4.727   3.334  19.382  0.00  0.00    +0.000 C 
ATOM      9  C   UNL     1       5.082   4.618  18.674  0.00  0.00    +0.000 A 
ATOM     10  C   UNL     1       6.395   4.778  18.205  0.00  0.00    +0.000 A 
ATOM     11  C   UNL     1       6.766   5.921  17.498  0.00  0.00    +0.000 A 
ATOM     12  C   UNL     1       5.825   6.915  17.249  0.00  0.00    +0.000 A 
ATOM     13  C   UNL     1       4.514   6.762  17.696  0.00  0.00    +0.000 A 
ATOM     14  C   UNL     1       4.121   5.613  18.404  0.00  0.00    +0.000 A 
ATOM     15  C   UNL     1       2.675   5.483  18.865  0.00  0.00    +0.000 C 
ENDBRANCH   1  15
BRANCH   2  16
ATOM     16  C   UNL     1       1.743   8.323  21.238  0.00  0.00    +0.000 C 
BRANCH  16  17
ATOM     17  C   UNL     1       0.269   8.591  21.526  0.00  0.00    +0.000 C 
BRANCH  17  18
ATOM     18  C   UNL     1       0.057   9.937  22.203  0.00  0.00    +0.000 C 
ATOM     19  O   UNL     1       0.182  10.061  23.422  0.00  0.00    +0.000 OA
ATOM     20  N   UNL     1      -0.275  11.010  21.389  0.00  0.00    +0.000 N 
ATOM     21  C   UNL     1      -0.293  10.998  19.927  0.00  0.00    +0.000 C 
ATOM     22  C   UNL     1      -1.673  11.387  19.407  0.00  0.00    +0.000 C 
ATOM     23  C   UNL     1      -2.166  12.699  20.020  0.00  0.00    +0.000 C 
ATOM     24  C   UNL     1      -2.035  12.710  21.545  0.00  0.00    +0.000 C 
ATOM     25  C   UNL     1      -0.643  12.283  22.004  0.00  0.00    +0.000 C 
BRANCH  23  26
ATOM     26  O   UNL     1      -1.470  13.804  19.447  0.00  0.00    +0.000 OA
ATOM     27  H   UNL     1      -0.645  13.492  19.041  0.00  0.00    +0.000 HD
ENDBRANCH  23  26
ENDBRANCH  17  18
ENDBRANCH  16  17
ENDBRANCH   2  16
TORSDOF 5
ENDMDL
MODEL 7
REMARK VINA RESULT:      -7.7      1.431      3.267
REMARK  Name = 
REMARK  6 active torsions:
REMARK  status: ('A' for Active; 'I' for Inactive)
REMARK    1  A    between atoms: C_1  and  C_2
REMARK    2  A    between atoms: C_11  and  N_12
REMARK    3  A    between atoms: C_13  and  C_15
REMARK    4  A    between atoms: C_15  and  C_16
REMARK    5  A    between atoms: C_16  and  C_17
REMARK    6  A    between atoms: C_22  and  O_23
REMARK                            x       y       z     vdW  Elec       q    Type
REMARK                         _______ _______ _______ _____ _____    ______ ____
ROOT
ATOM      1  N   UNL     1       2.814   6.953  18.662  0.00  0.00    +0.000 N 
ATOM      2  C   UNL     1       2.306   8.184  18.329  0.00  0.00    +0.000 C 
ATOM      3  O   UNL     1       2.337   8.665  17.200  0.00  0.00    +0.000 OA
ATOM      4  H   UNL     1       2.706   6.625  19.612  0.00  0.00    +0.000 HD
ENDROOT
BRANCH   1  15
ATOM      5  C   UNL     1       1.381   4.490  17.831  0.00  0.00    +0.000 C 
ATOM      6  C   UNL     1       2.905   4.595  17.840  0.00  0.00    +0.000 C 
ATOM      7  C   UNL     1       3.488   3.938  19.100  0.00  0.00    +0.000 C 
ATOM      8  C   UNL     1       5.003   3.814  18.972  0.00  0.00    +0.000 C 
ATOM      9  C   UNL     1       5.672   5.065  18.460  0.00  0.00    +0.000 A 
ATOM     10  C   UNL     1       7.070   5.152  18.541  0.00  0.00    +0.000 A 
ATOM     11  C   UNL     1       7.747   6.261  18.037  0.00  0.00    +0.000 A 
ATOM     12  C   UNL     1       7.031   7.295  17.441  0.00  0.00    +0.000 A 
ATOM     13  C   UNL     1       5.643   7.215  17.341  0.00  0.00    +0.000 A 
ATOM     14  C   UNL     1       4.946   6.100  17.839  0.00  0.00    +0.000 A 
ATOM     15  C   UNL     1       3.430   6.049  17.698  0.00  0.00    +0.000 C 
ENDBRANCH   1  15
BRANCH   2  16
ATOM     16  C   UNL     1       1.693   8.932  19.498  0.00  0.00    +0.000 C 
BRANCH  16  17
ATOM     17  C   UNL     1       0.175   8.999  19.369  0.00  0.00    +0.000 C 
BRANCH  17  18
ATOM     18  C   UNL     1      -0.348  10.418  19.527  0.00  0.00    +0.000 C 
ATOM     19  O   UNL     1       0.079  11.156  20.415  0.00  0.00    +0.000 OA
ATOM     20  N   UNL     1      -1.316  10.840  18.628  0.00  0.00    +0.000 N 
ATOM     21  C   UNL     1      -1.770  10.097  17.452  0.00  0.00    +0.000 C 
ATOM     22  C   UNL     1      -3.275   9.861  17.518  0.00  0.00    +0.000 C 
ATOM     23  C   UNL     1      -4.047  11.160  17.764  0.00  0.00    +0.000 C 
ATOM     24  C   UNL     1      -3.476  11.957  18.939  0.00  0.00    +0.000 C 
ATOM     25  C   UNL     1      -1.963  12.133  18.832  0.00  0.00    +0.000 C 
BRANCH  23  26
ATOM     26  O   UNL     1      -4.068  11.954  16.580  0.00  0.00    +0.000 OA
ATOM     27  H   UNL     1      -4.855  12.523  16.585  0.00  0.00    +0.000 HD
ENDBRANCH  23  26
ENDBRANCH  17  18
ENDBRANCH  16  17
ENDBRANCH   2  16
TORSDOF 5
ENDMDL
MODEL 8
REMARK VINA RESULT:      -7.7      1.562      2.002
REMARK  Name = 
REMARK  6 active torsions:
REMARK  status: ('A' for Active; 'I' for Inactive)
REMARK    1  A    between atoms: C_1  and  C_2
REMARK    2  A    between atoms: C_11  and  N_12
REMARK    3  A    between atoms: C_13  and  C_15
REMARK    4  A    between atoms: C_15  and  C_16
REMARK    5  A    between atoms: C_16  and  C_17
REMARK    6  A    between atoms: C_22  and  O_23
REMARK                            x       y       z     vdW  Elec       q    Type
REMARK                         _______ _______ _______ _____ _____    ______ ____
ROOT
ATOM      1  N   UNL     1       2.997   6.911  18.021  0.00  0.00    +0.000 N 
ATOM      2  C   UNL     1       2.291   7.873  18.701  0.00  0.00    +0.000 C 
ATOM      3  O   UNL     1       2.152   7.899  19.920  0.00  0.00    +0.000 OA
ATOM      4  H   UNL     1       3.089   6.997  17.019  0.00  0.00    +0.000 HD
ENDROOT
BRANCH   1  15
ATOM      5  C   UNL     1       5.929   6.617  17.668  0.00  0.00    +0.000 C 
ATOM      6  C   UNL     1       5.007   5.429  17.936  0.00  0.00    +0.000 C 
ATOM      7  C   UNL     1       4.685   4.685  16.633  0.00  0.00    +0.000 C 
ATOM      8  C   UNL     1       3.989   3.363  16.943  0.00  0.00    +0.000 C 
ATOM      9  C   UNL     1       2.892   3.483  17.972  0.00  0.00    +0.000 A 
ATOM     10  C   UNL     1       2.025   2.394  18.149  0.00  0.00    +0.000 A 
ATOM     11  C   UNL     1       1.026   2.427  19.120  0.00  0.00    +0.000 A 
ATOM     12  C   UNL     1       0.887   3.551  19.929  0.00  0.00    +0.000 A 
ATOM     13  C   UNL     1       1.751   4.633  19.774  0.00  0.00    +0.000 A 
ATOM     14  C   UNL     1       2.768   4.613  18.804  0.00  0.00    +0.000 A 
ATOM     15  C   UNL     1       3.697   5.814  18.676  0.00  0.00    +0.000 C 
ENDBRANCH   1  15
BRANCH   2  16
ATOM     16  C   UNL     1       1.669   8.927  17.805  0.00  0.00    +0.000 C 
BRANCH  16  17
ATOM     17  C   UNL     1       0.686   9.795  18.583  0.00  0.00    +0.000 C 
BRANCH  17  18
ATOM     18  C   UNL     1       1.095  11.260  18.583  0.00  0.00    +0.000 C 
ATOM     19  O   UNL     1       2.243  11.598  18.290  0.00  0.00    +0.000 OA
ATOM     20  N   UNL     1       0.123  12.190  18.919  0.00  0.00    +0.000 N 
ATOM     21  C   UNL     1      -1.296  11.902  19.127  0.00  0.00    +0.000 C 
ATOM     22  C   UNL     1      -1.731  12.341  20.521  0.00  0.00    +0.000 C 
ATOM     23  C   UNL     1      -1.346  13.794  20.809  0.00  0.00    +0.000 C 
ATOM     24  C   UNL     1       0.122  14.079  20.481  0.00  0.00    +0.000 C 
ATOM     25  C   UNL     1       0.504  13.590  19.086  0.00  0.00    +0.000 C 
BRANCH  23  26
ATOM     26  O   UNL     1      -2.203  14.683  20.095  0.00  0.00    +0.000 OA
ATOM     27  H   UNL     1      -2.125  14.513  19.142  0.00  0.00    +0.000 HD
ENDBRANCH  23  26
ENDBRANCH  17  18
ENDBRANCH  16  17
ENDBRANCH   2  16
TORSDOF 5
ENDMDL
MODEL 9
REMARK VINA RESULT:      -7.6      2.267      8.335
REMARK  Name = 
REMARK  6 active torsions:
REMARK  status: ('A' for Active; 'I' for Inactive)
REMARK    1  A    between atoms: C_1  and  C_2
REMARK    2  A    between atoms: C_11  and  N_12
REMARK    3  A    between atoms: C_13  and  C_15
REMARK    4  A    between atoms: C_15  and  C_16
REMARK    5  A    between atoms: C_16  and  C_17
REMARK    6  A    between atoms: C_22  and  O_23
REMARK                            x       y       z     vdW  Elec       q    Type
REMARK                         _______ _______ _______ _____ _____    ______ ____
ROOT
ATOM      1  N   UNL     1       0.514  10.129  19.039  0.00  0.00    +0.000 N 
ATOM      2  C   UNL     1       1.544   9.450  18.438  0.00  0.00    +0.000 C 
ATOM      3  O   UNL     1       2.084   9.794  17.391  0.00  0.00    +0.000 OA
ATOM      4  H   UNL     1       0.160   9.788  19.922  0.00  0.00    +0.000 HD
ENDROOT
BRANCH   1  15
ATOM      5  C   UNL     1       1.529  12.735  20.031  0.00  0.00    +0.000 C 
ATOM      6  C   UNL     1       0.103  12.547  19.516  0.00  0.00    +0.000 C 
ATOM      7  C   UNL     1      -0.879  12.384  20.684  0.00  0.00    +0.000 C 
ATOM      8  C   UNL     1      -2.315  12.463  20.174  0.00  0.00    +0.000 C 
ATOM      9  C   UNL     1      -2.562  11.645  18.931  0.00  0.00    +0.000 A 
ATOM     10  C   UNL     1      -3.889  11.441  18.521  0.00  0.00    +0.000 A 
ATOM     11  C   UNL     1      -4.175  10.738  17.352  0.00  0.00    +0.000 A 
ATOM     12  C   UNL     1      -3.135  10.235  16.577  0.00  0.00    +0.000 A 
ATOM     13  C   UNL     1      -1.813  10.443  16.964  0.00  0.00    +0.000 A 
ATOM     14  C   UNL     1      -1.506  11.155  18.137  0.00  0.00    +0.000 A 
ATOM     15  C   UNL     1      -0.046  11.368  18.516  0.00  0.00    +0.000 C 
ENDBRANCH   1  15
BRANCH   2  16
ATOM     16  C   UNL     1       1.972   8.198  19.182  0.00  0.00    +0.000 C 
BRANCH  16  17
ATOM     17  C   UNL     1       1.987   6.989  18.252  0.00  0.00    +0.000 C 
BRANCH  17  18
ATOM     18  C   UNL     1       3.151   6.056  18.550  0.00  0.00    +0.000 C 
ATOM     19  O   UNL     1       4.187   6.102  17.885  0.00  0.00    +0.000 OA
ATOM     20  N   UNL     1       2.995   5.163  19.600  0.00  0.00    +0.000 N 
ATOM     21  C   UNL     1       1.874   5.139  20.539  0.00  0.00    +0.000 C 
ATOM     22  C   UNL     1       1.187   3.778  20.516  0.00  0.00    +0.000 C 
ATOM     23  C   UNL     1       2.183   2.632  20.712  0.00  0.00    +0.000 C 
ATOM     24  C   UNL     1       3.391   2.751  19.781  0.00  0.00    +0.000 C 
ATOM     25  C   UNL     1       4.016   4.143  19.825  0.00  0.00    +0.000 C 
BRANCH  23  26
ATOM     26  O   UNL     1       2.601   2.569  22.074  0.00  0.00    +0.000 OA
ATOM     27  H   UNL     1       3.188   1.805  22.198  0.00  0.00    +0.000 HD
ENDBRANCH  23  26
ENDBRANCH  17  18
ENDBRANCH  16  17
ENDBRANCH   2  16
TORSDOF 5
ENDMDL
