MODEL 1
REMARK VINA RESULT:      -7.6      0.000      0.000
REMARK  Name = 
REMARK  5 active torsions:
REMARK  status: ('A' for Active; 'I' for Inactive)
REMARK    1  A    between atoms: C_1  and  S_2
REMARK    2  A    between atoms: S_2  and  C_3
REMARK    3  A    between atoms: C_6  and  S_7
REMARK    4  A    between atoms: S_7  and  N_10
REMARK    5  A    between atoms: N_10  and  C_11
REMARK                            x       y       z     vdW  Elec       q    Type
REMARK                         _______ _______ _______ _____ _____    ______ ____
ROOT
ATOM      1  N   UNL     1       5.991   4.065  17.958  0.00  0.00    +0.000 N 
ATOM      2  H   UNL     1       6.307   4.561  18.794  0.00  0.00    +0.000 HD
ENDROOT
BRANCH   1   3
ATOM      3  C   UNL     1       4.588   3.747  18.096  0.00  0.00    +0.000 A 
ATOM      4  C   UNL     1       4.100   2.600  17.437  0.00  0.00    +0.000 A 
ATOM      5  C   UNL     1       2.807   2.095  17.677  0.00  0.00    +0.000 A 
ATOM      6  C   UNL     1       2.085   2.722  18.683  0.00  0.00    +0.000 A 
ATOM      7  C   UNL     1       2.549   3.890  19.258  0.00  0.00    +0.000 A 
ATOM      8  C   UNL     1       1.606   4.413  20.123  0.00  0.00    +0.000 A 
ATOM      9  C   UNL     1       1.600   5.767  20.410  0.00  0.00    +0.000 A 
ATOM     10  C   UNL     1       2.714   6.493  19.953  0.00  0.00    +0.000 A 
ATOM     11  C   UNL     1       3.807   5.866  19.314  0.00  0.00    +0.000 A 
ATOM     12  C   UNL     1       3.710   4.519  18.898  0.00  0.00    +0.000 A 
ATOM     13  C   UNL     1       0.603   3.361  20.440  0.00  0.00    +0.000 C 
ATOM     14  C   UNL     1       0.708   2.434  19.192  0.00  0.00    +0.000 C 
ENDBRANCH   1   3
BRANCH   1  15
ATOM     15  S   UNL     1       6.439   5.016  16.627  0.00  0.00    +0.000 S 
ATOM     16  O   UNL     1       5.214   5.459  16.009  0.00  0.00    +0.000 OA
ATOM     17  O   UNL     1       7.487   4.365  15.883  0.00  0.00    +0.000 OA
BRANCH  15  21
ATOM     18  C   UNL     1       8.457   8.628  18.613  0.00  0.00    +0.000 A 
ATOM     19  C   UNL     1       8.526   7.359  19.200  0.00  0.00    +0.000 A 
ATOM     20  C   UNL     1       7.886   6.265  18.610  0.00  0.00    +0.000 A 
ATOM     21  C   UNL     1       7.157   6.442  17.433  0.00  0.00    +0.000 A 
ATOM     22  C   UNL     1       7.076   7.700  16.839  0.00  0.00    +0.000 A 
ATOM     23  C   UNL     1       7.700   8.799  17.436  0.00  0.00    +0.000 A 
BRANCH  18  25
ATOM     24  C   UNL     1       9.007  11.289  18.050  0.00  0.00    +0.000 C 
ATOM     25  S   UNL     1       9.240  10.049  19.358  0.00  0.00    +0.000 S 
ENDBRANCH  18  25
ENDBRANCH  15  21
ENDBRANCH   1  15
TORSDOF 4
ENDMDL
MODEL 2
REMARK VINA RESULT:      -7.6      1.015      1.485
REMARK  Name = 
REMARK  5 active torsions:
REMARK  status: ('A' for Active; 'I' for Inactive)
REMARK    1  A    between atoms: C_1  and  S_2
REMARK    2  A    between atoms: S_2  and  C_3
REMARK    3  A    between atoms: C_6  and  S_7
REMARK    4  A    between atoms: S_7  and  N_10
REMARK    5  A    between atoms: N_10  and  C_11
REMARK                            x       y       z     vdW  Elec       q    Type
REMARK                         _______ _______ _______ _____ _____    ______ ____
ROOT
ATOM      1  N   UNL     1       5.029   5.630  16.738  0.00  0.00    +0.000 N 
ATOM      2  H   UNL     1       4.938   5.571  15.722  0.00  0.00    +0.000 HD
ENDROOT
BRANCH   1   3
ATOM      3  C   UNL     1       3.897   4.978  17.355  0.00  0.00    +0.000 A 
ATOM      4  C   UNL     1       3.511   3.714  16.865  0.00  0.00    +0.000 A 
ATOM      5  C   UNL     1       2.561   2.913  17.530  0.00  0.00    +0.000 A 
ATOM      6  C   UNL     1       2.114   3.389  18.754  0.00  0.00    +0.000 A 
ATOM      7  C   UNL     1       2.442   4.663  19.176  0.00  0.00    +0.000 A 
ATOM      8  C   UNL     1       1.772   4.977  20.344  0.00  0.00    +0.000 A 
ATOM      9  C   UNL     1       1.528   6.298  20.674  0.00  0.00    +0.000 A 
ATOM     10  C   UNL     1       2.184   7.257  19.881  0.00  0.00    +0.000 A 
ATOM     11  C   UNL     1       3.096   6.892  18.866  0.00  0.00    +0.000 A 
ATOM     12  C   UNL     1       3.199   5.545  18.452  0.00  0.00    +0.000 A 
ATOM     13  C   UNL     1       1.248   3.724  20.953  0.00  0.00    +0.000 C 
ATOM     14  C   UNL     1       1.129   2.791  19.710  0.00  0.00    +0.000 C 
ENDBRANCH   1   3
BRANCH   1  15
ATOM     15  S   UNL     1       6.569   5.036  17.127  0.00  0.00    +0.000 S 
ATOM     16  O   UNL     1       7.192   4.667  15.880  0.00  0.00    +0.000 OA
ATOM     17  O   UNL     1       6.483   4.129  18.244  0.00  0.00    +0.000 OA
BRANCH  15  21
ATOM     18  C   UNL     1       8.507   8.894  18.680  0.00  0.00    +0.000 A 
ATOM     19  C   UNL     1       7.757   8.897  17.498  0.00  0.00    +0.000 A 
ATOM     20  C   UNL     1       7.192   7.715  17.010  0.00  0.00    +0.000 A 
ATOM     21  C   UNL     1       7.390   6.518  17.698  0.00  0.00    +0.000 A 
ATOM     22  C   UNL     1       8.138   6.497  18.873  0.00  0.00    +0.000 A 
ATOM     23  C   UNL     1       8.719   7.674  19.355  0.00  0.00    +0.000 A 
BRANCH  18  25
ATOM     24  C   UNL     1       8.970  11.526  17.933  0.00  0.00    +0.000 C 
ATOM     25  S   UNL     1       9.265  10.382  19.313  0.00  0.00    +0.000 S 
ENDBRANCH  18  25
ENDBRANCH  15  21
ENDBRANCH   1  15
TORSDOF 4
ENDMDL
MODEL 3
REMARK VINA RESULT:      -7.6      1.048      1.151
REMARK  Name = 
REMARK  5 active torsions:
REMARK  status: ('A' for Active; 'I' for Inactive)
REMARK    1  A    between atoms: C_1  and  S_2
REMARK    2  A    between atoms: S_2  and  C_3
REMARK    3  A    between atoms: C_6  and  S_7
REMARK    4  A    between atoms: S_7  and  N_10
REMARK    5  A    between atoms: N_10  and  C_11
REMARK                            x       y       z     vdW  Elec       q    Type
REMARK                         _______ _______ _______ _____ _____    ______ ____
ROOT
ATOM      1  N   UNL     1       5.119   5.504  16.606  0.00  0.00    +0.000 N 
ATOM      2  H   UNL     1       5.095   5.314  15.602  0.00  0.00    +0.000 HD
ENDROOT
BRANCH   1   3
ATOM      3  C   UNL     1       3.972   4.891  17.234  0.00  0.00    +0.000 A 
ATOM      4  C   UNL     1       3.564   3.622  16.777  0.00  0.00    +0.000 A 
ATOM      5  C   UNL     1       2.594   2.859  17.458  0.00  0.00    +0.000 A 
ATOM      6  C   UNL     1       2.150   3.377  18.666  0.00  0.00    +0.000 A 
ATOM      7  C   UNL     1       2.501   4.656  19.055  0.00  0.00    +0.000 A 
ATOM      8  C   UNL     1       1.831   5.015  20.209  0.00  0.00    +0.000 A 
ATOM      9  C   UNL     1       1.611   6.350  20.500  0.00  0.00    +0.000 A 
ATOM     10  C   UNL     1       2.290   7.273  19.686  0.00  0.00    +0.000 A 
ATOM     11  C   UNL     1       3.201   6.862  18.686  0.00  0.00    +0.000 A 
ATOM     12  C   UNL     1       3.279   5.502  18.311  0.00  0.00    +0.000 A 
ATOM     13  C   UNL     1       1.279   3.791  20.849  0.00  0.00    +0.000 C 
ATOM     14  C   UNL     1       1.149   2.826  19.632  0.00  0.00    +0.000 C 
ENDBRANCH   1   3
BRANCH   1  15
ATOM     15  S   UNL     1       6.649   5.023  17.157  0.00  0.00    +0.000 S 
ATOM     16  O   UNL     1       7.420   4.687  15.986  0.00  0.00    +0.000 OA
ATOM     17  O   UNL     1       6.514   4.125  18.276  0.00  0.00    +0.000 OA
BRANCH  15  21
ATOM     18  C   UNL     1       8.501   8.943  18.665  0.00  0.00    +0.000 A 
ATOM     19  C   UNL     1       8.744   7.736  19.331  0.00  0.00    +0.000 A 
ATOM     20  C   UNL     1       8.155   6.547  18.888  0.00  0.00    +0.000 A 
ATOM     21  C   UNL     1       7.305   6.566  17.782  0.00  0.00    +0.000 A 
ATOM     22  C   UNL     1       7.050   7.760  17.112  0.00  0.00    +0.000 A 
ATOM     23  C   UNL     1       7.623   8.953  17.562  0.00  0.00    +0.000 A 
BRANCH  18  25
ATOM     24  C   UNL     1      10.119  10.995  17.734  0.00  0.00    +0.000 C 
ATOM     25  S   UNL     1       9.215  10.481  19.223  0.00  0.00    +0.000 S 
ENDBRANCH  18  25
ENDBRANCH  15  21
ENDBRANCH   1  15
TORSDOF 4
ENDMDL
MODEL 4
REMARK VINA RESULT:      -7.3      0.277      1.024
REMARK  Name = 
REMARK  5 active torsions:
REMARK  status: ('A' for Active; 'I' for Inactive)
REMARK    1  A    between atoms: C_1  and  S_2
REMARK    2  A    between atoms: S_2  and  C_3
REMARK    3  A    between atoms: C_6  and  S_7
REMARK    4  A    between atoms: S_7  and  N_10
REMARK    5  A    between atoms: N_10  and  C_11
REMARK                            x       y       z     vdW  Elec       q    Type
REMARK                         _______ _______ _______ _____ _____    ______ ____
ROOT
ATOM      1  N   UNL     1       6.075   4.288  18.311  0.00  0.00    +0.000 N 
ATOM      2  H   UNL     1       6.240   4.941  19.081  0.00  0.00    +0.000 HD
ENDROOT
BRANCH   1   3
ATOM      3  C   UNL     1       4.690   3.878  18.324  0.00  0.00    +0.000 A 
ATOM      4  C   UNL     1       4.330   2.731  17.588  0.00  0.00    +0.000 A 
ATOM      5  C   UNL     1       3.057   2.137  17.704  0.00  0.00    +0.000 A 
ATOM      6  C   UNL     1       2.220   2.677  18.670  0.00  0.00    +0.000 A 
ATOM      7  C   UNL     1       2.560   3.847  19.322  0.00  0.00    +0.000 A 
ATOM      8  C   UNL     1       1.521   4.276  20.126  0.00  0.00    +0.000 A 
ATOM      9  C   UNL     1       1.404   5.613  20.459  0.00  0.00    +0.000 A 
ATOM     10  C   UNL     1       2.501   6.425  20.121  0.00  0.00    +0.000 A 
ATOM     11  C   UNL     1       3.679   5.893  19.550  0.00  0.00    +0.000 A 
ATOM     12  C   UNL     1       3.703   4.561  19.079  0.00  0.00    +0.000 A 
ATOM     13  C   UNL     1       0.566   3.152  20.323  0.00  0.00    +0.000 C 
ATOM     14  C   UNL     1       0.829   2.284  19.055  0.00  0.00    +0.000 C 
ENDBRANCH   1   3
BRANCH   1  15
ATOM     15  S   UNL     1       6.645   5.040  16.902  0.00  0.00    +0.000 S 
ATOM     16  O   UNL     1       5.482   5.504  16.187  0.00  0.00    +0.000 OA
ATOM     17  O   UNL     1       7.659   4.226  16.280  0.00  0.00    +0.000 OA
BRANCH  15  21
ATOM     18  C   UNL     1       8.542   8.815  18.692  0.00  0.00    +0.000 A 
ATOM     19  C   UNL     1       7.908   8.858  17.445  0.00  0.00    +0.000 A 
ATOM     20  C   UNL     1       7.356   7.700  16.887  0.00  0.00    +0.000 A 
ATOM     21  C   UNL     1       7.453   6.488  17.571  0.00  0.00    +0.000 A 
ATOM     22  C   UNL     1       8.086   6.429  18.811  0.00  0.00    +0.000 A 
ATOM     23  C   UNL     1       8.653   7.581  19.364  0.00  0.00    +0.000 A 
BRANCH  18  25
ATOM     24  C   UNL     1       9.077  11.465  18.063  0.00  0.00    +0.000 C 
ATOM     25  S   UNL     1       9.281  10.270  19.417  0.00  0.00    +0.000 S 
ENDBRANCH  18  25
ENDBRANCH  15  21
ENDBRANCH   1  15
TORSDOF 4
ENDMDL
MODEL 5
REMARK VINA RESULT:      -7.3      1.363      1.824
REMARK  Name = 
REMARK  5 active torsions:
REMARK  status: ('A' for Active; 'I' for Inactive)
REMARK    1  A    between atoms: C_1  and  S_2
REMARK    2  A    between atoms: S_2  and  C_3
REMARK    3  A    between atoms: C_6  and  S_7
REMARK    4  A    between atoms: S_7  and  N_10
REMARK    5  A    between atoms: N_10  and  C_11
REMARK                            x       y       z     vdW  Elec       q    Type
REMARK                         _______ _______ _______ _____ _____    ______ ____
ROOT
ATOM      1  N   UNL     1       5.450   4.894  16.657  0.00  0.00    +0.000 N 
ATOM      2  H   UNL     1       5.448   4.194  15.911  0.00  0.00    +0.000 HD
ENDROOT
BRANCH   1   3
ATOM      3  C   UNL     1       4.223   4.787  17.412  0.00  0.00    +0.000 A 
ATOM      4  C   UNL     1       3.699   3.500  17.649  0.00  0.00    +0.000 A 
ATOM      5  C   UNL     1       2.631   3.281  18.542  0.00  0.00    +0.000 A 
ATOM      6  C   UNL     1       2.203   4.387  19.261  0.00  0.00    +0.000 A 
ATOM      7  C   UNL     1       2.674   5.650  18.957  0.00  0.00    +0.000 A 
ATOM      8  C   UNL     1       2.006   6.610  19.695  0.00  0.00    +0.000 A 
ATOM      9  C   UNL     1       1.919   7.910  19.230  0.00  0.00    +0.000 A 
ATOM     10  C   UNL     1       2.720   8.215  18.116  0.00  0.00    +0.000 A 
ATOM     11  C   UNL     1       3.615   7.277  17.557  0.00  0.00    +0.000 A 
ATOM     12  C   UNL     1       3.563   5.920  17.951  0.00  0.00    +0.000 A 
ATOM     13  C   UNL     1       1.306   5.948  20.828  0.00  0.00    +0.000 C 
ATOM     14  C   UNL     1       1.116   4.500  20.284  0.00  0.00    +0.000 C 
ENDBRANCH   1   3
BRANCH   1  15
ATOM     15  S   UNL     1       6.902   4.694  17.511  0.00  0.00    +0.000 S 
ATOM     16  O   UNL     1       7.855   4.150  16.576  0.00  0.00    +0.000 OA
ATOM     17  O   UNL     1       6.644   4.086  18.792  0.00  0.00    +0.000 OA
BRANCH  15  21
ATOM     18  C   UNL     1       8.297   9.014  18.180  0.00  0.00    +0.000 A 
ATOM     19  C   UNL     1       8.682   7.996  19.059  0.00  0.00    +0.000 A 
ATOM     20  C   UNL     1       8.232   6.685  18.871  0.00  0.00    +0.000 A 
ATOM     21  C   UNL     1       7.378   6.392  17.807  0.00  0.00    +0.000 A 
ATOM     22  C   UNL     1       6.983   7.397  16.926  0.00  0.00    +0.000 A 
ATOM     23  C   UNL     1       7.417   8.711  17.121  0.00  0.00    +0.000 A 
BRANCH  18  25
ATOM     24  C   UNL     1       9.505  10.617  20.096  0.00  0.00    +0.000 C 
ATOM     25  S   UNL     1       8.832  10.702  18.410  0.00  0.00    +0.000 S 
ENDBRANCH  18  25
ENDBRANCH  15  21
ENDBRANCH   1  15
TORSDOF 4
ENDMDL
MODEL 6
REMARK VINA RESULT:      -7.2      3.684      5.783
REMARK  Name = 
REMARK  5 active torsions:
REMARK  status: ('A' for Active; 'I' for Inactive)
REMARK    1  A    between atoms: C_1  and  S_2
REMARK    2  A    between atoms: S_2  and  C_3
REMARK    3  A    between atoms: C_6  and  S_7
REMARK    4  A    between atoms: S_7  and  N_10
REMARK    5  A    between atoms: N_10  and  C_11
REMARK                            x       y       z     vdW  Elec       q    Type
REMARK                         _______ _______ _______ _____ _____    ______ ____
ROOT
ATOM      1  N   UNL     1       2.687   6.155  20.553  0.00  0.00    +0.000 N 
ATOM      2  H   UNL     1       3.702   6.228  20.644  0.00  0.00    +0.000 HD
ENDROOT
BRANCH   1   3
ATOM      3  C   UNL     1       2.180   7.346  19.910  0.00  0.00    +0.000 A 
ATOM      4  C   UNL     1       2.523   7.569  18.561  0.00  0.00    +0.000 A 
ATOM      5  C   UNL     1       1.915   8.582  17.793  0.00  0.00    +0.000 A 
ATOM      6  C   UNL     1       0.879   9.271  18.407  0.00  0.00    +0.000 A 
ATOM      7  C   UNL     1       0.614   9.093  19.751  0.00  0.00    +0.000 A 
ATOM      8  C   UNL     1      -0.354   9.982  20.178  0.00  0.00    +0.000 A 
ATOM      9  C   UNL     1      -0.423  10.351  21.510  0.00  0.00    +0.000 A 
ATOM     10  C   UNL     1       0.385   9.611  22.391  0.00  0.00    +0.000 A 
ATOM     11  C   UNL     1       1.156   8.509  21.955  0.00  0.00    +0.000 A 
ATOM     12  C   UNL     1       1.326   8.262  20.574  0.00  0.00    +0.000 A 
ATOM     13  C   UNL     1      -1.053  10.544  18.991  0.00  0.00    +0.000 C 
ATOM     14  C   UNL     1       0.027  10.383  17.880  0.00  0.00    +0.000 C 
ENDBRANCH   1   3
BRANCH   1  15
ATOM     15  S   UNL     1       2.370   4.673  19.791  0.00  0.00    +0.000 S 
ATOM     16  O   UNL     1       1.168   4.859  19.017  0.00  0.00    +0.000 OA
ATOM     17  O   UNL     1       2.524   3.590  20.730  0.00  0.00    +0.000 OA
BRANCH  15  21
ATOM     18  C   UNL     1       5.793   4.595  16.735  0.00  0.00    +0.000 A 
ATOM     19  C   UNL     1       4.499   4.208  16.368  0.00  0.00    +0.000 A 
ATOM     20  C   UNL     1       3.463   4.204  17.308  0.00  0.00    +0.000 A 
ATOM     21  C   UNL     1       3.724   4.573  18.628  0.00  0.00    +0.000 A 
ATOM     22  C   UNL     1       5.008   4.956  19.009  0.00  0.00    +0.000 A 
ATOM     23  C   UNL     1       6.050   4.945  18.077  0.00  0.00    +0.000 A 
BRANCH  18  25
ATOM     24  C   UNL     1       6.291   3.990  14.074  0.00  0.00    +0.000 C 
ATOM     25  S   UNL     1       7.142   4.583  15.566  0.00  0.00    +0.000 S 
ENDBRANCH  18  25
ENDBRANCH  15  21
ENDBRANCH   1  15
TORSDOF 4
ENDMDL
MODEL 7
REMARK VINA RESULT:      -7.1      3.309      5.587
REMARK  Name = 
REMARK  5 active torsions:
REMARK  status: ('A' for Active; 'I' for Inactive)
REMARK    1  A    between atoms: C_1  and  S_2
REMARK    2  A    between atoms: S_2  and  C_3
REMARK    3  A    between atoms: C_6  and  S_7
REMARK    4  A    between atoms: S_7  and  N_10
REMARK    5  A    between atoms: N_10  and  C_11
REMARK                            x       y       z     vdW  Elec       q    Type
REMARK                         _______ _______ _______ _____ _____    ______ ____
ROOT
ATOM      1  N   UNL     1       3.972   3.396  20.187  0.00  0.00    +0.000 N 
ATOM      2  H   UNL     1       4.160   2.448  20.518  0.00  0.00    +0.000 HD
ENDROOT
BRANCH   1   3
ATOM      3  C   UNL     1       4.499   3.547  18.850  0.00  0.00    +0.000 A 
ATOM      4  C   UNL     1       4.008   2.690  17.843  0.00  0.00    +0.000 A 
ATOM      5  C   UNL     1       4.304   2.894  16.480  0.00  0.00    +0.000 A 
ATOM      6  C   UNL     1       5.007   4.051  16.176  0.00  0.00    +0.000 A 
ATOM      7  C   UNL     1       5.545   4.832  17.181  0.00  0.00    +0.000 A 
ATOM      8  C   UNL     1       6.322   5.843  16.648  0.00  0.00    +0.000 A 
ATOM      9  C   UNL     1       7.337   6.410  17.398  0.00  0.00    +0.000 A 
ATOM     10  C   UNL     1       7.365   6.053  18.757  0.00  0.00    +0.000 A 
ATOM     11  C   UNL     1       6.372   5.232  19.337  0.00  0.00    +0.000 A 
ATOM     12  C   UNL     1       5.449   4.545  18.516  0.00  0.00    +0.000 A 
ATOM     13  C   UNL     1       6.002   5.989  15.202  0.00  0.00    +0.000 C 
ATOM     14  C   UNL     1       5.467   4.568  14.850  0.00  0.00    +0.000 C 
ENDBRANCH   1   3
BRANCH   1  15
ATOM     15  S   UNL     1       2.311   3.666  20.397  0.00  0.00    +0.000 S 
ATOM     16  O   UNL     1       2.088   3.764  21.818  0.00  0.00    +0.000 OA
ATOM     17  O   UNL     1       1.553   2.773  19.557  0.00  0.00    +0.000 OA
BRANCH  15  21
ATOM     18  C   UNL     1       2.040   7.930  18.721  0.00  0.00    +0.000 A 
ATOM     19  C   UNL     1       1.957   7.697  20.099  0.00  0.00    +0.000 A 
ATOM     20  C   UNL     1       2.009   6.395  20.606  0.00  0.00    +0.000 A 
ATOM     21  C   UNL     1       2.129   5.316  19.730  0.00  0.00    +0.000 A 
ATOM     22  C   UNL     1       2.208   5.531  18.356  0.00  0.00    +0.000 A 
ATOM     23  C   UNL     1       2.139   6.830  17.844  0.00  0.00    +0.000 A 
BRANCH  18  25
ATOM     24  C   UNL     1       0.488  10.222  18.913  0.00  0.00    +0.000 C 
ATOM     25  S   UNL     1       1.946   9.578  18.041  0.00  0.00    +0.000 S 
ENDBRANCH  18  25
ENDBRANCH  15  21
ENDBRANCH   1  15
TORSDOF 4
ENDMDL
MODEL 8
REMARK VINA RESULT:      -7.1      3.322      5.650
REMARK  Name = 
REMARK  5 active torsions:
REMARK  status: ('A' for Active; 'I' for Inactive)
REMARK    1  A    between atoms: C_1  and  S_2
REMARK    2  A    between atoms: S_2  and  C_3
REMARK    3  A    between atoms: C_6  and  S_7
REMARK    4  A    between atoms: S_7  and  N_10
REMARK    5  A    between atoms: N_10  and  C_11
REMARK                            x       y       z     vdW  Elec       q    Type
REMARK                         _______ _______ _______ _____ _____    ______ ____
ROOT
ATOM      1  N   UNL     1       3.841   3.554  20.111  0.00  0.00    +0.000 N 
ATOM      2  H   UNL     1       3.958   2.601  20.463  0.00  0.00    +0.000 HD
ENDROOT
BRANCH   1   3
ATOM      3  C   UNL     1       4.415   3.647  18.788  0.00  0.00    +0.000 A 
ATOM      4  C   UNL     1       3.931   2.774  17.793  0.00  0.00    +0.000 A 
ATOM      5  C   UNL     1       4.276   2.925  16.435  0.00  0.00    +0.000 A 
ATOM      6  C   UNL     1       5.023   4.051  16.119  0.00  0.00    +0.000 A 
ATOM      7  C   UNL     1       5.553   4.847  17.117  0.00  0.00    +0.000 A 
ATOM      8  C   UNL     1       6.378   5.817  16.578  0.00  0.00    +0.000 A 
ATOM      9  C   UNL     1       7.385   6.378  17.344  0.00  0.00    +0.000 A 
ATOM     10  C   UNL     1       7.358   6.063  18.713  0.00  0.00    +0.000 A 
ATOM     11  C   UNL     1       6.323   5.290  19.285  0.00  0.00    +0.000 A 
ATOM     12  C   UNL     1       5.405   4.605  18.456  0.00  0.00    +0.000 A 
ATOM     13  C   UNL     1       6.108   5.927  15.119  0.00  0.00    +0.000 C 
ATOM     14  C   UNL     1       5.541   4.513  14.793  0.00  0.00    +0.000 C 
ENDBRANCH   1   3
BRANCH   1  15
ATOM     15  S   UNL     1       2.196   3.935  20.267  0.00  0.00    +0.000 S 
ATOM     16  O   UNL     1       1.912   3.953  21.681  0.00  0.00    +0.000 OA
ATOM     17  O   UNL     1       1.417   3.160  19.335  0.00  0.00    +0.000 OA
BRANCH  15  21
ATOM     18  C   UNL     1       1.935   8.270  18.785  0.00  0.00    +0.000 A 
ATOM     19  C   UNL     1       2.215   7.226  17.895  0.00  0.00    +0.000 A 
ATOM     20  C   UNL     1       2.324   5.910  18.353  0.00  0.00    +0.000 A 
ATOM     21  C   UNL     1       2.168   5.634  19.712  0.00  0.00    +0.000 A 
ATOM     22  C   UNL     1       1.893   6.663  20.610  0.00  0.00    +0.000 A 
ATOM     23  C   UNL     1       1.801   7.983  20.159  0.00  0.00    +0.000 A 
BRANCH  18  25
ATOM     24  C   UNL     1       0.226  10.449  18.963  0.00  0.00    +0.000 C 
ATOM     25  S   UNL     1       1.819   9.964  18.235  0.00  0.00    +0.000 S 
ENDBRANCH  18  25
ENDBRANCH  15  21
ENDBRANCH   1  15
TORSDOF 4
ENDMDL
MODEL 9
REMARK VINA RESULT:      -7.1      0.930      2.356
REMARK  Name = 
REMARK  5 active torsions:
REMARK  status: ('A' for Active; 'I' for Inactive)
REMARK    1  A    between atoms: C_1  and  S_2
REMARK    2  A    between atoms: S_2  and  C_3
REMARK    3  A    between atoms: C_6  and  S_7
REMARK    4  A    between atoms: S_7  and  N_10
REMARK    5  A    between atoms: N_10  and  C_11
REMARK                            x       y       z     vdW  Elec       q    Type
REMARK                         _______ _______ _______ _____ _____    ______ ____
ROOT
ATOM      1  N   UNL     1       5.064   5.610  16.443  0.00  0.00    +0.000 N 
ATOM      2  H   UNL     1       4.681   5.045  15.681  0.00  0.00    +0.000 HD
ENDROOT
BRANCH   1   3
ATOM      3  C   UNL     1       4.270   5.406  17.632  0.00  0.00    +0.000 A 
ATOM      4  C   UNL     1       4.068   6.505  18.491  0.00  0.00    +0.000 A 
ATOM      5  C   UNL     1       3.146   6.460  19.557  0.00  0.00    +0.000 A 
ATOM      6  C   UNL     1       2.367   5.315  19.639  0.00  0.00    +0.000 A 
ATOM      7  C   UNL     1       2.636   4.221  18.839  0.00  0.00    +0.000 A 
ATOM      8  C   UNL     1       1.836   3.151  19.193  0.00  0.00    +0.000 A 
ATOM      9  C   UNL     1       2.244   1.857  18.921  0.00  0.00    +0.000 A 
ATOM     10  C   UNL     1       3.373   1.733  18.094  0.00  0.00    +0.000 A 
ATOM     11  C   UNL     1       4.002   2.856  17.511  0.00  0.00    +0.000 A 
ATOM     12  C   UNL     1       3.662   4.161  17.934  0.00  0.00    +0.000 A 
ATOM     13  C   UNL     1       0.706   3.645  20.025  0.00  0.00    +0.000 C 
ATOM     14  C   UNL     1       1.301   4.954  20.626  0.00  0.00    +0.000 C 
ENDBRANCH   1   3
BRANCH   1  15
ATOM     15  S   UNL     1       6.716   5.236  16.543  0.00  0.00    +0.000 S 
ATOM     16  O   UNL     1       7.232   5.299  15.198  0.00  0.00    +0.000 OA
ATOM     17  O   UNL     1       6.915   4.090  17.393  0.00  0.00    +0.000 OA
BRANCH  15  21
ATOM     18  C   UNL     1       8.531   8.862  18.693  0.00  0.00    +0.000 A 
ATOM     19  C   UNL     1       8.600   7.585  19.263  0.00  0.00    +0.000 A 
ATOM     20  C   UNL     1       8.020   6.486  18.621  0.00  0.00    +0.000 A 
ATOM     21  C   UNL     1       7.353   6.665  17.409  0.00  0.00    +0.000 A 
ATOM     22  C   UNL     1       7.271   7.931  16.832  0.00  0.00    +0.000 A 
ATOM     23  C   UNL     1       7.835   9.035  17.479  0.00  0.00    +0.000 A 
BRANCH  18  25
ATOM     24  C   UNL     1       9.106  11.527  18.180  0.00  0.00    +0.000 C 
ATOM     25  S   UNL     1       9.236  10.289  19.502  0.00  0.00    +0.000 S 
ENDBRANCH  18  25
ENDBRANCH  15  21
ENDBRANCH   1  15
TORSDOF 4
ENDMDL
