MODEL 1
REMARK VINA RESULT:      -8.2      0.000      0.000
REMARK  Name = 
REMARK  13 active torsions:
REMARK  status: ('A' for Active; 'I' for Inactive)
REMARK    1  A    between atoms: C_1  and  C_2
REMARK    2  A    between atoms: C_2  and  C_4
REMARK    3  A    between atoms: C_4  and  C_5
REMARK    4  A    between atoms: C_5  and  C_6
REMARK    5  A    between atoms: C_6  and  C_7
REMARK    6  A    between atoms: C_7  and  C_8
REMARK    7  A    between atoms: C_8  and  C_9
REMARK    8  A    between atoms: C_9  and  N_10
REMARK    9  A    between atoms: C_9  and  C_20
REMARK   10  A    between atoms: C_11  and  C_13
REMARK   11  A    between atoms: N_16  and  C_17
REMARK   12  A    between atoms: C_23  and  C_24
REMARK   13  A    between atoms: C_27  and  C_28
REMARK                            x       y       z     vdW  Elec       q    Type
REMARK                         _______ _______ _______ _____ _____    ______ ____
ROOT
ATOM      1  C   UNL     1       5.492   6.023  16.826  0.00  0.00    +0.000 C 
ENDROOT
BRANCH   1   2
ATOM      2  C   UNL     1       6.674   6.703  17.453  0.00  0.00    +0.000 A 
ATOM      3  N   UNL     1       7.560   6.147  18.255  0.00  0.00    +0.000 NA
ATOM      4  C   UNL     1       8.320   7.177  18.730  0.00  0.00    +0.000 A 
ATOM      5  C   UNL     1       7.972   8.380  18.147  0.00  0.00    +0.000 A 
ATOM      6  N   UNL     1       6.923   8.049  17.314  0.00  0.00    +0.000 N 
ATOM      7  H   UNL     1       6.384   8.690  16.753  0.00  0.00    +0.000 HD
BRANCH   5   8
ATOM      8  C   UNL     1       8.513   9.721  18.326  0.00  0.00    +0.000 A 
ATOM      9  C   UNL     1       8.123  10.784  17.510  0.00  0.00    +0.000 A 
ATOM     10  C   UNL     1       8.698  12.054  17.666  0.00  0.00    +0.000 A 
ATOM     11  C   UNL     1       9.667  12.313  18.654  0.00  0.00    +0.000 A 
ATOM     12  C   UNL     1      10.040  11.235  19.472  0.00  0.00    +0.000 A 
ATOM     13  C   UNL     1       9.480   9.962  19.308  0.00  0.00    +0.000 A 
BRANCH  11  14
ATOM     14  C   UNL     1      10.264  13.661  18.821  0.00  0.00    +0.000 A 
ATOM     15  C   UNL     1      10.503  14.497  17.716  0.00  0.00    +0.000 A 
ATOM     16  C   UNL     1      11.074  15.766  17.864  0.00  0.00    +0.000 A 
ATOM     17  C   UNL     1      11.407  16.235  19.131  0.00  0.00    +0.000 A 
ATOM     18  C   UNL     1      11.173  15.436  20.244  0.00  0.00    +0.000 A 
ATOM     19  C   UNL     1      10.614  14.163  20.089  0.00  0.00    +0.000 A 
ENDBRANCH  11  14
ENDBRANCH   5   8
ENDBRANCH   1   2
BRANCH   1  20
ATOM     20  N   UNL     1       4.307   6.696  17.317  0.00  0.00    +0.000 N 
ATOM     21  C   UNL     1       3.217   6.015  17.803  0.00  0.00    +0.000 C 
ATOM     22  O   UNL     1       3.142   4.790  17.787  0.00  0.00    +0.000 OA
ATOM     23  H   UNL     1       4.250   7.694  17.154  0.00  0.00    +0.000 HD
BRANCH  21  24
ATOM     24  C   UNL     1       2.138   6.925  18.394  0.00  0.00    +0.000 C 
ATOM     25  C   UNL     1       2.232   8.309  17.738  0.00  0.00    +0.000 C 
ATOM     26  C   UNL     1       1.320   9.331  18.406  0.00  0.00    +0.000 C 
ATOM     27  N   UNL     1       1.612   9.422  19.837  0.00  0.00    +0.000 NA
ATOM     28  C   UNL     1       0.816  10.482  20.454  0.00  0.00    +0.000 C 
ATOM     29  C   UNL     1       1.374   8.134  20.501  0.00  0.00    +0.000 C 
ATOM     30  C   UNL     1       2.277   7.044  19.918  0.00  0.00    +0.000 C 
ENDBRANCH  21  24
ENDBRANCH   1  20
BRANCH   1  31
ATOM     31  C   UNL     1       5.585   6.071  15.289  0.00  0.00    +0.000 C 
BRANCH  31  32
ATOM     32  C   UNL     1       6.835   5.330  14.800  0.00  0.00    +0.000 C 
BRANCH  32  33
ATOM     33  C   UNL     1       6.564   3.886  14.387  0.00  0.00    +0.000 C 
BRANCH  33  34
ATOM     34  C   UNL     1       6.314   3.764  12.878  0.00  0.00    +0.000 C 
BRANCH  34  35
ATOM     35  C   UNL     1       4.826   3.717  12.533  0.00  0.00    +0.000 C 
BRANCH  35  37
ATOM     36  C   UNL     1       3.404   3.356  10.440  0.00  0.00    +0.000 C 
ATOM     37  C   UNL     1       4.506   2.848  11.334  0.00  0.00    +0.000 C 
ATOM     38  O   UNL     1       5.089   1.793  11.096  0.00  0.00    +0.000 OA
ENDBRANCH  35  37
ENDBRANCH  34  35
ENDBRANCH  33  34
ENDBRANCH  32  33
ENDBRANCH  31  32
ENDBRANCH   1  31
TORSDOF 11
ENDMDL
MODEL 2
REMARK VINA RESULT:      -8.1      6.061     10.176
REMARK  Name = 
REMARK  13 active torsions:
REMARK  status: ('A' for Active; 'I' for Inactive)
REMARK    1  A    between atoms: C_1  and  C_2
REMARK    2  A    between atoms: C_2  and  C_4
REMARK    3  A    between atoms: C_4  and  C_5
REMARK    4  A    between atoms: C_5  and  C_6
REMARK    5  A    between atoms: C_6  and  C_7
REMARK    6  A    between atoms: C_7  and  C_8
REMARK    7  A    between atoms: C_8  and  C_9
REMARK    8  A    between atoms: C_9  and  N_10
REMARK    9  A    between atoms: C_9  and  C_20
REMARK   10  A    between atoms: C_11  and  C_13
REMARK   11  A    between atoms: N_16  and  C_17
REMARK   12  A    between atoms: C_23  and  C_24
REMARK   13  A    between atoms: C_27  and  C_28
REMARK                            x       y       z     vdW  Elec       q    Type
REMARK                         _______ _______ _______ _____ _____    ______ ____
ROOT
ATOM      1  C   UNL     1       1.128   8.971  20.871  0.00  0.00    +0.000 C 
ENDROOT
BRANCH   1   2
ATOM      2  C   UNL     1       1.656   7.714  20.244  0.00  0.00    +0.000 A 
ATOM      3  N   UNL     1       1.613   6.504  20.766  0.00  0.00    +0.000 NA
ATOM      4  C   UNL     1       2.380   5.726  19.946  0.00  0.00    +0.000 A 
ATOM      5  C   UNL     1       2.830   6.431  18.846  0.00  0.00    +0.000 A 
ATOM      6  N   UNL     1       2.337   7.704  19.048  0.00  0.00    +0.000 N 
ATOM      7  H   UNL     1       2.503   8.505  18.461  0.00  0.00    +0.000 HD
BRANCH   5   8
ATOM      8  C   UNL     1       3.648   6.016  17.714  0.00  0.00    +0.000 A 
ATOM      9  C   UNL     1       4.349   6.939  16.938  0.00  0.00    +0.000 A 
ATOM     10  C   UNL     1       5.085   6.521  15.820  0.00  0.00    +0.000 A 
ATOM     11  C   UNL     1       5.164   5.166  15.448  0.00  0.00    +0.000 A 
ATOM     12  C   UNL     1       4.461   4.249  16.245  0.00  0.00    +0.000 A 
ATOM     13  C   UNL     1       3.711   4.666  17.353  0.00  0.00    +0.000 A 
BRANCH  11  14
ATOM     14  C   UNL     1       5.953   4.729  14.271  0.00  0.00    +0.000 A 
ATOM     15  C   UNL     1       7.188   5.326  13.954  0.00  0.00    +0.000 A 
ATOM     16  C   UNL     1       7.934   4.925  12.841  0.00  0.00    +0.000 A 
ATOM     17  C   UNL     1       7.467   3.902  12.022  0.00  0.00    +0.000 A 
ATOM     18  C   UNL     1       6.256   3.285  12.315  0.00  0.00    +0.000 A 
ATOM     19  C   UNL     1       5.507   3.698  13.421  0.00  0.00    +0.000 A 
ENDBRANCH  11  14
ENDBRANCH   5   8
ENDBRANCH   1   2
BRANCH   1  20
ATOM     20  N   UNL     1       0.183   9.546  19.935  0.00  0.00    +0.000 N 
ATOM     21  C   UNL     1       0.272  10.846  19.498  0.00  0.00    +0.000 C 
ATOM     22  O   UNL     1       1.113  11.630  19.924  0.00  0.00    +0.000 OA
ATOM     23  H   UNL     1      -0.640   8.994  19.724  0.00  0.00    +0.000 HD
BRANCH  21  24
ATOM     24  C   UNL     1      -0.746  11.198  18.411  0.00  0.00    +0.000 C 
ATOM     25  C   UNL     1      -1.978  11.839  19.063  0.00  0.00    +0.000 C 
ATOM     26  C   UNL     1      -3.119  12.043  18.072  0.00  0.00    +0.000 C 
ATOM     27  N   UNL     1      -3.477  10.777  17.433  0.00  0.00    +0.000 NA
ATOM     28  C   UNL     1      -4.644  10.954  16.569  0.00  0.00    +0.000 C 
ATOM     29  C   UNL     1      -2.343  10.234  16.676  0.00  0.00    +0.000 C 
ATOM     30  C   UNL     1      -1.152   9.960  17.598  0.00  0.00    +0.000 C 
ENDBRANCH  21  24
ENDBRANCH   1  20
BRANCH   1  31
ATOM     31  C   UNL     1       0.476   8.671  22.235  0.00  0.00    +0.000 C 
BRANCH  31  32
ATOM     32  C   UNL     1       0.289   9.961  23.039  0.00  0.00    +0.000 C 
BRANCH  32  33
ATOM     33  C   UNL     1      -1.174  10.357  23.225  0.00  0.00    +0.000 C 
BRANCH  33  34
ATOM     34  C   UNL     1      -1.520  11.631  22.442  0.00  0.00    +0.000 C 
BRANCH  34  35
ATOM     35  C   UNL     1      -2.027  12.754  23.346  0.00  0.00    +0.000 C 
BRANCH  35  37
ATOM     36  C   UNL     1      -0.130  14.102  22.290  0.00  0.00    +0.000 C 
ATOM     37  C   UNL     1      -1.074  13.926  23.452  0.00  0.00    +0.000 C 
ATOM     38  O   UNL     1      -1.050  14.687  24.417  0.00  0.00    +0.000 OA
ENDBRANCH  35  37
ENDBRANCH  34  35
ENDBRANCH  33  34
ENDBRANCH  32  33
ENDBRANCH  31  32
ENDBRANCH   1  31
TORSDOF 11
ENDMDL
MODEL 3
REMARK VINA RESULT:      -7.4      6.430     11.450
REMARK  Name = 
REMARK  13 active torsions:
REMARK  status: ('A' for Active; 'I' for Inactive)
REMARK    1  A    between atoms: C_1  and  C_2
REMARK    2  A    between atoms: C_2  and  C_4
REMARK    3  A    between atoms: C_4  and  C_5
REMARK    4  A    between atoms: C_5  and  C_6
REMARK    5  A    between atoms: C_6  and  C_7
REMARK    6  A    between atoms: C_7  and  C_8
REMARK    7  A    between atoms: C_8  and  C_9
REMARK    8  A    between atoms: C_9  and  N_10
REMARK    9  A    between atoms: C_9  and  C_20
REMARK   10  A    between atoms: C_11  and  C_13
REMARK   11  A    between atoms: N_16  and  C_17
REMARK   12  A    between atoms: C_23  and  C_24
REMARK   13  A    between atoms: C_27  and  C_28
REMARK                            x       y       z     vdW  Elec       q    Type
REMARK                         _______ _______ _______ _____ _____    ______ ____
ROOT
ATOM      1  C   UNL     1      -0.747  12.032  21.168  0.00  0.00    +0.000 C 
ENDROOT
BRANCH   1   2
ATOM      2  C   UNL     1      -0.221  10.628  21.092  0.00  0.00    +0.000 A 
ATOM      3  N   UNL     1      -0.351   9.696  22.015  0.00  0.00    +0.000 NA
ATOM      4  C   UNL     1       0.446   8.664  21.607  0.00  0.00    +0.000 A 
ATOM      5  C   UNL     1       1.006   8.911  20.368  0.00  0.00    +0.000 A 
ATOM      6  N   UNL     1       0.548  10.172  20.046  0.00  0.00    +0.000 N 
ATOM      7  H   UNL     1       0.790  10.700  19.224  0.00  0.00    +0.000 HD
BRANCH   5   8
ATOM      8  C   UNL     1       1.892   8.101  19.541  0.00  0.00    +0.000 A 
ATOM      9  C   UNL     1       2.250   8.492  18.250  0.00  0.00    +0.000 A 
ATOM     10  C   UNL     1       3.060   7.670  17.453  0.00  0.00    +0.000 A 
ATOM     11  C   UNL     1       3.556   6.439  17.922  0.00  0.00    +0.000 A 
ATOM     12  C   UNL     1       3.194   6.066  19.226  0.00  0.00    +0.000 A 
ATOM     13  C   UNL     1       2.372   6.878  20.019  0.00  0.00    +0.000 A 
BRANCH  11  14
ATOM     14  C   UNL     1       4.421   5.579  17.078  0.00  0.00    +0.000 A 
ATOM     15  C   UNL     1       4.195   4.194  16.972  0.00  0.00    +0.000 A 
ATOM     16  C   UNL     1       5.012   3.374  16.186  0.00  0.00    +0.000 A 
ATOM     17  C   UNL     1       6.070   3.926  15.472  0.00  0.00    +0.000 A 
ATOM     18  C   UNL     1       6.312   5.293  15.547  0.00  0.00    +0.000 A 
ATOM     19  C   UNL     1       5.502   6.106  16.346  0.00  0.00    +0.000 A 
ENDBRANCH  11  14
ENDBRANCH   5   8
ENDBRANCH   1   2
BRANCH   1  20
ATOM     20  N   UNL     1      -2.079  12.015  20.597  0.00  0.00    +0.000 N 
ATOM     21  C   UNL     1      -2.305  11.871  19.250  0.00  0.00    +0.000 C 
ATOM     22  O   UNL     1      -1.395  11.818  18.429  0.00  0.00    +0.000 OA
ATOM     23  H   UNL     1      -2.842  12.263  21.216  0.00  0.00    +0.000 HD
BRANCH  21  24
ATOM     24  C   UNL     1      -3.786  11.742  18.886  0.00  0.00    +0.000 C 
ATOM     25  C   UNL     1      -3.933  11.762  17.358  0.00  0.00    +0.000 C 
ATOM     26  C   UNL     1      -5.390  11.833  16.917  0.00  0.00    +0.000 C 
ATOM     27  N   UNL     1      -6.051  12.995  17.510  0.00  0.00    +0.000 NA
ATOM     28  C   UNL     1      -7.414  13.124  16.996  0.00  0.00    +0.000 C 
ATOM     29  C   UNL     1      -6.050  12.905  18.975  0.00  0.00    +0.000 C 
ATOM     30  C   UNL     1      -4.620  12.865  19.519  0.00  0.00    +0.000 C 
ENDBRANCH  21  24
ENDBRANCH   1  20
BRANCH   1  31
ATOM     31  C   UNL     1      -0.751  12.537  22.623  0.00  0.00    +0.000 C 
BRANCH  31  32
ATOM     32  C   UNL     1      -1.464  13.890  22.722  0.00  0.00    +0.000 C 
BRANCH  32  33
ATOM     33  C   UNL     1      -2.531  13.938  23.813  0.00  0.00    +0.000 C 
BRANCH  33  34
ATOM     34  C   UNL     1      -3.395  12.670  23.819  0.00  0.00    +0.000 C 
BRANCH  34  35
ATOM     35  C   UNL     1      -4.599  12.777  22.883  0.00  0.00    +0.000 C 
BRANCH  35  37
ATOM     36  C   UNL     1      -6.556  14.238  23.634  0.00  0.00    +0.000 C 
ATOM     37  C   UNL     1      -5.926  12.869  23.608  0.00  0.00    +0.000 C 
ATOM     38  O   UNL     1      -6.462  11.906  24.151  0.00  0.00    +0.000 OA
ENDBRANCH  35  37
ENDBRANCH  34  35
ENDBRANCH  33  34
ENDBRANCH  32  33
ENDBRANCH  31  32
ENDBRANCH   1  31
TORSDOF 11
ENDMDL
MODEL 4
REMARK VINA RESULT:      -7.4      2.480      5.041
REMARK  Name = 
REMARK  13 active torsions:
REMARK  status: ('A' for Active; 'I' for Inactive)
REMARK    1  A    between atoms: C_1  and  C_2
REMARK    2  A    between atoms: C_2  and  C_4
REMARK    3  A    between atoms: C_4  and  C_5
REMARK    4  A    between atoms: C_5  and  C_6
REMARK    5  A    between atoms: C_6  and  C_7
REMARK    6  A    between atoms: C_7  and  C_8
REMARK    7  A    between atoms: C_8  and  C_9
REMARK    8  A    between atoms: C_9  and  N_10
REMARK    9  A    between atoms: C_9  and  C_20
REMARK   10  A    between atoms: C_11  and  C_13
REMARK   11  A    between atoms: N_16  and  C_17
REMARK   12  A    between atoms: C_23  and  C_24
REMARK   13  A    between atoms: C_27  and  C_28
REMARK                            x       y       z     vdW  Elec       q    Type
REMARK                         _______ _______ _______ _____ _____    ______ ____
ROOT
ATOM      1  C   UNL     1       5.599   6.239  16.474  0.00  0.00    +0.000 C 
ENDROOT
BRANCH   1   2
ATOM      2  C   UNL     1       6.741   6.803  17.268  0.00  0.00    +0.000 A 
ATOM      3  N   UNL     1       7.483   6.149  18.140  0.00  0.00    +0.000 NA
ATOM      4  C   UNL     1       8.251   7.100  18.750  0.00  0.00    +0.000 A 
ATOM      5  C   UNL     1       8.060   8.348  18.191  0.00  0.00    +0.000 A 
ATOM      6  N   UNL     1       7.098   8.131  17.225  0.00  0.00    +0.000 N 
ATOM      7  H   UNL     1       6.677   8.832  16.638  0.00  0.00    +0.000 HD
BRANCH   5   8
ATOM      8  C   UNL     1       8.667   9.637  18.498  0.00  0.00    +0.000 A 
ATOM      9  C   UNL     1       9.361   9.855  19.688  0.00  0.00    +0.000 A 
ATOM     10  C   UNL     1       9.891  11.120  19.986  0.00  0.00    +0.000 A 
ATOM     11  C   UNL     1       9.764  12.204  19.098  0.00  0.00    +0.000 A 
ATOM     12  C   UNL     1       9.071  11.965  17.901  0.00  0.00    +0.000 A 
ATOM     13  C   UNL     1       8.527  10.707  17.608  0.00  0.00    +0.000 A 
BRANCH  11  14
ATOM     14  C   UNL     1      10.335  13.537  19.413  0.00  0.00    +0.000 A 
ATOM     15  C   UNL     1      10.913  14.340  18.413  0.00  0.00    +0.000 A 
ATOM     16  C   UNL     1      11.462  15.594  18.704  0.00  0.00    +0.000 A 
ATOM     17  C   UNL     1      11.432  16.081  20.006  0.00  0.00    +0.000 A 
ATOM     18  C   UNL     1      10.859  15.315  21.015  0.00  0.00    +0.000 A 
ATOM     19  C   UNL     1      10.323  14.057  20.722  0.00  0.00    +0.000 A 
ENDBRANCH  11  14
ENDBRANCH   5   8
ENDBRANCH   1   2
BRANCH   1  20
ATOM     20  N   UNL     1       4.953   5.247  17.310  0.00  0.00    +0.000 N 
ATOM     21  C   UNL     1       4.793   3.940  16.918  0.00  0.00    +0.000 C 
ATOM     22  O   UNL     1       5.120   3.539  15.806  0.00  0.00    +0.000 OA
ATOM     23  H   UNL     1       4.487   5.588  18.144  0.00  0.00    +0.000 HD
BRANCH  21  24
ATOM     24  C   UNL     1       4.210   3.039  18.009  0.00  0.00    +0.000 C 
ATOM     25  C   UNL     1       2.679   3.148  17.988  0.00  0.00    +0.000 C 
ATOM     26  C   UNL     1       2.030   2.433  19.167  0.00  0.00    +0.000 C 
ATOM     27  N   UNL     1       2.562   2.939  20.432  0.00  0.00    +0.000 NA
ATOM     28  C   UNL     1       1.858   2.332  21.561  0.00  0.00    +0.000 C 
ATOM     29  C   UNL     1       4.007   2.697  20.525  0.00  0.00    +0.000 C 
ATOM     30  C   UNL     1       4.754   3.411  19.396  0.00  0.00    +0.000 C 
ENDBRANCH  21  24
ENDBRANCH   1  20
BRANCH   1  31
ATOM     31  C   UNL     1       4.625   7.354  16.048  0.00  0.00    +0.000 C 
BRANCH  31  32
ATOM     32  C   UNL     1       3.337   7.290  16.875  0.00  0.00    +0.000 C 
BRANCH  32  33
ATOM     33  C   UNL     1       2.903   8.643  17.433  0.00  0.00    +0.000 C 
BRANCH  33  34
ATOM     34  C   UNL     1       2.049   8.488  18.699  0.00  0.00    +0.000 C 
BRANCH  34  35
ATOM     35  C   UNL     1       2.449   7.269  19.529  0.00  0.00    +0.000 C 
BRANCH  35  37
ATOM     36  C   UNL     1       1.059   8.203  21.459  0.00  0.00    +0.000 C 
ATOM     37  C   UNL     1       1.516   6.990  20.689  0.00  0.00    +0.000 C 
ATOM     38  O   UNL     1       1.154   5.858  21.002  0.00  0.00    +0.000 OA
ENDBRANCH  35  37
ENDBRANCH  34  35
ENDBRANCH  33  34
ENDBRANCH  32  33
ENDBRANCH  31  32
ENDBRANCH   1  31
TORSDOF 11
ENDMDL
MODEL 5
REMARK VINA RESULT:      -7.4      2.695      3.973
REMARK  Name = 
REMARK  13 active torsions:
REMARK  status: ('A' for Active; 'I' for Inactive)
REMARK    1  A    between atoms: C_1  and  C_2
REMARK    2  A    between atoms: C_2  and  C_4
REMARK    3  A    between atoms: C_4  and  C_5
REMARK    4  A    between atoms: C_5  and  C_6
REMARK    5  A    between atoms: C_6  and  C_7
REMARK    6  A    between atoms: C_7  and  C_8
REMARK    7  A    between atoms: C_8  and  C_9
REMARK    8  A    between atoms: C_9  and  N_10
REMARK    9  A    between atoms: C_9  and  C_20
REMARK   10  A    between atoms: C_11  and  C_13
REMARK   11  A    between atoms: N_16  and  C_17
REMARK   12  A    between atoms: C_23  and  C_24
REMARK   13  A    between atoms: C_27  and  C_28
REMARK                            x       y       z     vdW  Elec       q    Type
REMARK                         _______ _______ _______ _____ _____    ______ ____
ROOT
ATOM      1  C   UNL     1       4.724   5.491  17.657  0.00  0.00    +0.000 C 
ENDROOT
BRANCH   1   2
ATOM      2  C   UNL     1       5.896   6.356  17.294  0.00  0.00    +0.000 A 
ATOM      3  N   UNL     1       6.816   6.085  16.390  0.00  0.00    +0.000 NA
ATOM      4  C   UNL     1       7.776   7.045  16.546  0.00  0.00    +0.000 A 
ATOM      5  C   UNL     1       7.411   7.983  17.492  0.00  0.00    +0.000 A 
ATOM      6  N   UNL     1       6.189   7.532  17.948  0.00  0.00    +0.000 N 
ATOM      7  H   UNL     1       5.637   7.948  18.680  0.00  0.00    +0.000 HD
BRANCH   5   8
ATOM      8  C   UNL     1       8.098   9.176  17.969  0.00  0.00    +0.000 A 
ATOM      9  C   UNL     1       8.920   9.148  19.096  0.00  0.00    +0.000 A 
ATOM     10  C   UNL     1       9.527  10.322  19.568  0.00  0.00    +0.000 A 
ATOM     11  C   UNL     1       9.351  11.559  18.921  0.00  0.00    +0.000 A 
ATOM     12  C   UNL     1       8.528  11.568  17.784  0.00  0.00    +0.000 A 
ATOM     13  C   UNL     1       7.907  10.401  17.319  0.00  0.00    +0.000 A 
BRANCH  11  14
ATOM     14  C   UNL     1      10.004  12.795  19.418  0.00  0.00    +0.000 A 
ATOM     15  C   UNL     1      10.715  13.646  18.552  0.00  0.00    +0.000 A 
ATOM     16  C   UNL     1      11.341  14.809  19.015  0.00  0.00    +0.000 A 
ATOM     17  C   UNL     1      11.258  15.156  20.359  0.00  0.00    +0.000 A 
ATOM     18  C   UNL     1      10.554  14.340  21.238  0.00  0.00    +0.000 A 
ATOM     19  C   UNL     1       9.941  13.172  20.773  0.00  0.00    +0.000 A 
ENDBRANCH  11  14
ENDBRANCH   5   8
ENDBRANCH   1   2
BRANCH   1  20
ATOM     20  N   UNL     1       3.579   6.368  17.795  0.00  0.00    +0.000 N 
ATOM     21  C   UNL     1       2.958   6.589  19.001  0.00  0.00    +0.000 C 
ATOM     22  O   UNL     1       3.285   6.006  20.029  0.00  0.00    +0.000 OA
ATOM     23  H   UNL     1       3.156   6.703  16.937  0.00  0.00    +0.000 HD
BRANCH  21  24
ATOM     24  C   UNL     1       1.861   7.654  18.940  0.00  0.00    +0.000 C 
ATOM     25  C   UNL     1       2.299   8.776  17.989  0.00  0.00    +0.000 C 
ATOM     26  C   UNL     1       1.350   9.967  18.019  0.00  0.00    +0.000 C 
ATOM     27  N   UNL     1       1.209  10.478  19.383  0.00  0.00    +0.000 NA
ATOM     28  C   UNL     1       0.387  11.688  19.393  0.00  0.00    +0.000 C 
ATOM     29  C   UNL     1       0.641   9.453  20.268  0.00  0.00    +0.000 C 
ATOM     30  C   UNL     1       1.550   8.222  20.331  0.00  0.00    +0.000 C 
ENDBRANCH  21  24
ENDBRANCH   1  20
BRANCH   1  31
ATOM     31  C   UNL     1       4.493   4.408  16.587  0.00  0.00    +0.000 C 
BRANCH  31  32
ATOM     32  C   UNL     1       4.325   3.032  17.240  0.00  0.00    +0.000 C 
BRANCH  32  33
ATOM     33  C   UNL     1       2.888   2.516  17.215  0.00  0.00    +0.000 C 
BRANCH  33  34
ATOM     34  C   UNL     1       2.066   3.068  18.387  0.00  0.00    +0.000 C 
BRANCH  34  35
ATOM     35  C   UNL     1       2.375   2.359  19.705  0.00  0.00    +0.000 C 
BRANCH  35  37
ATOM     36  C   UNL     1       0.722   4.095  20.591  0.00  0.00    +0.000 C 
ATOM     37  C   UNL     1       1.602   2.908  20.886  0.00  0.00    +0.000 C 
ATOM     38  O   UNL     1       1.682   2.435  22.018  0.00  0.00    +0.000 OA
ENDBRANCH  35  37
ENDBRANCH  34  35
ENDBRANCH  33  34
ENDBRANCH  32  33
ENDBRANCH  31  32
ENDBRANCH   1  31
TORSDOF 11
ENDMDL
MODEL 6
REMARK VINA RESULT:      -7.3      6.452     11.396
REMARK  Name = 
REMARK  13 active torsions:
REMARK  status: ('A' for Active; 'I' for Inactive)
REMARK    1  A    between atoms: C_1  and  C_2
REMARK    2  A    between atoms: C_2  and  C_4
REMARK    3  A    between atoms: C_4  and  C_5
REMARK    4  A    between atoms: C_5  and  C_6
REMARK    5  A    between atoms: C_6  and  C_7
REMARK    6  A    between atoms: C_7  and  C_8
REMARK    7  A    between atoms: C_8  and  C_9
REMARK    8  A    between atoms: C_9  and  N_10
REMARK    9  A    between atoms: C_9  and  C_20
REMARK   10  A    between atoms: C_11  and  C_13
REMARK   11  A    between atoms: N_16  and  C_17
REMARK   12  A    between atoms: C_23  and  C_24
REMARK   13  A    between atoms: C_27  and  C_28
REMARK                            x       y       z     vdW  Elec       q    Type
REMARK                         _______ _______ _______ _____ _____    ______ ____
ROOT
ATOM      1  C   UNL     1      -1.293  12.963  21.917  0.00  0.00    +0.000 C 
ENDROOT
BRANCH   1   2
ATOM      2  C   UNL     1      -0.724  11.575  21.960  0.00  0.00    +0.000 A 
ATOM      3  N   UNL     1      -0.599  10.816  23.031  0.00  0.00    +0.000 NA
ATOM      4  C   UNL     1       0.141   9.740  22.631  0.00  0.00    +0.000 A 
ATOM      5  C   UNL     1       0.402   9.775  21.274  0.00  0.00    +0.000 A 
ATOM      6  N   UNL     1      -0.180  10.955  20.859  0.00  0.00    +0.000 N 
ATOM      7  H   UNL     1      -0.154  11.335  19.926  0.00  0.00    +0.000 HD
BRANCH   5   8
ATOM      8  C   UNL     1       1.126   8.846  20.416  0.00  0.00    +0.000 A 
ATOM      9  C   UNL     1       1.561   7.605  20.881  0.00  0.00    +0.000 A 
ATOM     10  C   UNL     1       2.303   6.751  20.052  0.00  0.00    +0.000 A 
ATOM     11  C   UNL     1       2.619   7.096  18.726  0.00  0.00    +0.000 A 
ATOM     12  C   UNL     1       2.166   8.344  18.270  0.00  0.00    +0.000 A 
ATOM     13  C   UNL     1       1.438   9.206  19.101  0.00  0.00    +0.000 A 
BRANCH  11  14
ATOM     14  C   UNL     1       3.395   6.183  17.850  0.00  0.00    +0.000 A 
ATOM     15  C   UNL     1       4.409   6.668  17.003  0.00  0.00    +0.000 A 
ATOM     16  C   UNL     1       5.139   5.815  16.168  0.00  0.00    +0.000 A 
ATOM     17  C   UNL     1       4.881   4.449  16.172  0.00  0.00    +0.000 A 
ATOM     18  C   UNL     1       3.892   3.938  17.005  0.00  0.00    +0.000 A 
ATOM     19  C   UNL     1       3.156   4.796  17.828  0.00  0.00    +0.000 A 
ENDBRANCH  11  14
ENDBRANCH   5   8
ENDBRANCH   1   2
BRANCH   1  20
ATOM     20  N   UNL     1      -0.336  13.791  21.212  0.00  0.00    +0.000 N 
ATOM     21  C   UNL     1       0.424  14.746  21.844  0.00  0.00    +0.000 C 
ATOM     22  O   UNL     1       0.292  15.014  23.033  0.00  0.00    +0.000 OA
ATOM     23  H   UNL     1      -0.350  13.742  20.199  0.00  0.00    +0.000 HD
BRANCH  21  24
ATOM     24  C   UNL     1       1.464  15.404  20.934  0.00  0.00    +0.000 C 
ATOM     25  C   UNL     1       0.899  16.727  20.398  0.00  0.00    +0.000 C 
ATOM     26  C   UNL     1       1.794  17.350  19.333  0.00  0.00    +0.000 C 
ATOM     27  N   UNL     1       2.021  16.408  18.237  0.00  0.00    +0.000 NA
ATOM     28  C   UNL     1       2.785  17.047  17.165  0.00  0.00    +0.000 C 
ATOM     29  C   UNL     1       2.703  15.201  18.718  0.00  0.00    +0.000 C 
ATOM     30  C   UNL     1       1.860  14.481  19.773  0.00  0.00    +0.000 C 
ENDBRANCH  21  24
ENDBRANCH   1  20
BRANCH   1  31
ATOM     31  C   UNL     1      -2.673  12.968  21.231  0.00  0.00    +0.000 C 
BRANCH  31  32
ATOM     32  C   UNL     1      -3.771  12.574  22.224  0.00  0.00    +0.000 C 
BRANCH  32  33
ATOM     33  C   UNL     1      -5.033  13.424  22.106  0.00  0.00    +0.000 C 
BRANCH  33  34
ATOM     34  C   UNL     1      -6.171  12.660  21.416  0.00  0.00    +0.000 C 
BRANCH  34  35
ATOM     35  C   UNL     1      -6.651  13.350  20.140  0.00  0.00    +0.000 C 
BRANCH  35  37
ATOM     36  C   UNL     1      -5.494  11.475  18.845  0.00  0.00    +0.000 C 
ATOM     37  C   UNL     1      -6.640  12.451  18.921  0.00  0.00    +0.000 C 
ATOM     38  O   UNL     1      -7.494  12.507  18.039  0.00  0.00    +0.000 OA
ENDBRANCH  35  37
ENDBRANCH  34  35
ENDBRANCH  33  34
ENDBRANCH  32  33
ENDBRANCH  31  32
ENDBRANCH   1  31
TORSDOF 11
ENDMDL
MODEL 7
REMARK VINA RESULT:      -7.3      1.288      1.768
REMARK  Name = 
REMARK  13 active torsions:
REMARK  status: ('A' for Active; 'I' for Inactive)
REMARK    1  A    between atoms: C_1  and  C_2
REMARK    2  A    between atoms: C_2  and  C_4
REMARK    3  A    between atoms: C_4  and  C_5
REMARK    4  A    between atoms: C_5  and  C_6
REMARK    5  A    between atoms: C_6  and  C_7
REMARK    6  A    between atoms: C_7  and  C_8
REMARK    7  A    between atoms: C_8  and  C_9
REMARK    8  A    between atoms: C_9  and  N_10
REMARK    9  A    between atoms: C_9  and  C_20
REMARK   10  A    between atoms: C_11  and  C_13
REMARK   11  A    between atoms: N_16  and  C_17
REMARK   12  A    between atoms: C_23  and  C_24
REMARK   13  A    between atoms: C_27  and  C_28
REMARK                            x       y       z     vdW  Elec       q    Type
REMARK                         _______ _______ _______ _____ _____    ______ ____
ROOT
ATOM      1  C   UNL     1       4.847   4.620  17.466  0.00  0.00    +0.000 C 
ENDROOT
BRANCH   1   2
ATOM      2  C   UNL     1       6.099   5.327  17.898  0.00  0.00    +0.000 A 
ATOM      3  N   UNL     1       7.062   4.823  18.643  0.00  0.00    +0.000 NA
ATOM      4  C   UNL     1       7.882   5.875  18.940  0.00  0.00    +0.000 A 
ATOM      5  C   UNL     1       7.483   7.030  18.297  0.00  0.00    +0.000 A 
ATOM      6  N   UNL     1       6.345   6.651  17.616  0.00  0.00    +0.000 N 
ATOM      7  H   UNL     1       5.754   7.252  17.064  0.00  0.00    +0.000 HD
BRANCH   5   8
ATOM      8  C   UNL     1       8.056   8.371  18.298  0.00  0.00    +0.000 A 
ATOM      9  C   UNL     1       8.998   8.765  19.248  0.00  0.00    +0.000 A 
ATOM     10  C   UNL     1       9.494  10.077  19.262  0.00  0.00    +0.000 A 
ATOM     11  C   UNL     1       9.082  11.035  18.318  0.00  0.00    +0.000 A 
ATOM     12  C   UNL     1       8.141  10.619  17.363  0.00  0.00    +0.000 A 
ATOM     13  C   UNL     1       7.631   9.314  17.356  0.00  0.00    +0.000 A 
BRANCH  11  14
ATOM     14  C   UNL     1       9.618  12.418  18.331  0.00  0.00    +0.000 A 
ATOM     15  C   UNL     1      10.953  12.689  17.979  0.00  0.00    +0.000 A 
ATOM     16  C   UNL     1      11.469  13.990  17.997  0.00  0.00    +0.000 A 
ATOM     17  C   UNL     1      10.652  15.057  18.356  0.00  0.00    +0.000 A 
ATOM     18  C   UNL     1       9.325  14.823  18.700  0.00  0.00    +0.000 A 
ATOM     19  C   UNL     1       8.818  13.519  18.693  0.00  0.00    +0.000 A 
ENDBRANCH  11  14
ENDBRANCH   5   8
ENDBRANCH   1   2
BRANCH   1  20
ATOM     20  N   UNL     1       3.754   5.556  17.633  0.00  0.00    +0.000 N 
ATOM     21  C   UNL     1       3.275   5.921  18.868  0.00  0.00    +0.000 C 
ATOM     22  O   UNL     1       3.692   5.427  19.911  0.00  0.00    +0.000 OA
ATOM     23  H   UNL     1       3.251   5.823  16.794  0.00  0.00    +0.000 HD
BRANCH  21  24
ATOM     24  C   UNL     1       2.214   7.022  18.814  0.00  0.00    +0.000 C 
ATOM     25  C   UNL     1       2.668   8.112  17.832  0.00  0.00    +0.000 C 
ATOM     26  C   UNL     1       1.761   9.336  17.864  0.00  0.00    +0.000 C 
ATOM     27  N   UNL     1       1.671   9.874  19.221  0.00  0.00    +0.000 NA
ATOM     28  C   UNL     1       0.892  11.113  19.228  0.00  0.00    +0.000 C 
ATOM     29  C   UNL     1       1.090   8.885  20.137  0.00  0.00    +0.000 C 
ATOM     30  C   UNL     1       1.956   7.625  20.202  0.00  0.00    +0.000 C 
ENDBRANCH  21  24
ENDBRANCH   1  20
BRANCH   1  31
ATOM     31  C   UNL     1       4.969   4.132  16.010  0.00  0.00    +0.000 C 
BRANCH  31  32
ATOM     32  C   UNL     1       6.439   3.922  15.632  0.00  0.00    +0.000 C 
BRANCH  32  33
ATOM     33  C   UNL     1       6.954   4.927  14.605  0.00  0.00    +0.000 C 
BRANCH  33  34
ATOM     34  C   UNL     1       6.495   4.573  13.184  0.00  0.00    +0.000 C 
BRANCH  34  35
ATOM     35  C   UNL     1       6.468   3.065  12.936  0.00  0.00    +0.000 C 
BRANCH  35  37
ATOM     36  C   UNL     1       5.851   1.349  11.146  0.00  0.00    +0.000 C 
ATOM     37  C   UNL     1       5.514   2.646  11.836  0.00  0.00    +0.000 C 
ATOM     38  O   UNL     1       4.534   3.310  11.509  0.00  0.00    +0.000 OA
ENDBRANCH  35  37
ENDBRANCH  34  35
ENDBRANCH  33  34
ENDBRANCH  32  33
ENDBRANCH  31  32
ENDBRANCH   1  31
TORSDOF 11
ENDMDL
MODEL 8
REMARK VINA RESULT:      -7.2      5.571     11.630
REMARK  Name = 
REMARK  13 active torsions:
REMARK  status: ('A' for Active; 'I' for Inactive)
REMARK    1  A    between atoms: C_1  and  C_2
REMARK    2  A    between atoms: C_2  and  C_4
REMARK    3  A    between atoms: C_4  and  C_5
REMARK    4  A    between atoms: C_5  and  C_6
REMARK    5  A    between atoms: C_6  and  C_7
REMARK    6  A    between atoms: C_7  and  C_8
REMARK    7  A    between atoms: C_8  and  C_9
REMARK    8  A    between atoms: C_9  and  N_10
REMARK    9  A    between atoms: C_9  and  C_20
REMARK   10  A    between atoms: C_11  and  C_13
REMARK   11  A    between atoms: N_16  and  C_17
REMARK   12  A    between atoms: C_23  and  C_24
REMARK   13  A    between atoms: C_27  and  C_28
REMARK                            x       y       z     vdW  Elec       q    Type
REMARK                         _______ _______ _______ _____ _____    ______ ____
ROOT
ATOM      1  C   UNL     1       0.220  14.281  21.054  0.00  0.00    +0.000 C 
ENDROOT
BRANCH   1   2
ATOM      2  C   UNL     1      -0.012  12.997  20.312  0.00  0.00    +0.000 A 
ATOM      3  N   UNL     1      -1.133  12.627  19.725  0.00  0.00    +0.000 NA
ATOM      4  C   UNL     1      -0.942  11.324  19.362  0.00  0.00    +0.000 A 
ATOM      5  C   UNL     1       0.344  10.901  19.637  0.00  0.00    +0.000 A 
ATOM      6  N   UNL     1       0.931  11.999  20.231  0.00  0.00    +0.000 N 
ATOM      7  H   UNL     1       1.865  12.044  20.605  0.00  0.00    +0.000 HD
BRANCH   5   8
ATOM      8  C   UNL     1       0.997   9.618  19.409  0.00  0.00    +0.000 A 
ATOM      9  C   UNL     1       1.201   8.704  20.443  0.00  0.00    +0.000 A 
ATOM     10  C   UNL     1       1.880   7.500  20.210  0.00  0.00    +0.000 A 
ATOM     11  C   UNL     1       2.363   7.156  18.934  0.00  0.00    +0.000 A 
ATOM     12  C   UNL     1       2.141   8.082  17.902  0.00  0.00    +0.000 A 
ATOM     13  C   UNL     1       1.477   9.293  18.135  0.00  0.00    +0.000 A 
BRANCH  11  14
ATOM     14  C   UNL     1       3.072   5.876  18.691  0.00  0.00    +0.000 A 
ATOM     15  C   UNL     1       2.562   4.915  17.797  0.00  0.00    +0.000 A 
ATOM     16  C   UNL     1       3.220   3.701  17.569  0.00  0.00    +0.000 A 
ATOM     17  C   UNL     1       4.417   3.426  18.222  0.00  0.00    +0.000 A 
ATOM     18  C   UNL     1       4.951   4.359  19.102  0.00  0.00    +0.000 A 
ATOM     19  C   UNL     1       4.283   5.565  19.337  0.00  0.00    +0.000 A 
ENDBRANCH  11  14
ENDBRANCH   5   8
ENDBRANCH   1   2
BRANCH   1  20
ATOM     20  N   UNL     1       1.422  14.876  20.503  0.00  0.00    +0.000 N 
ATOM     21  C   UNL     1       2.572  15.036  21.238  0.00  0.00    +0.000 C 
ATOM     22  O   UNL     1       2.639  14.753  22.430  0.00  0.00    +0.000 OA
ATOM     23  H   UNL     1       1.338  15.308  19.590  0.00  0.00    +0.000 HD
BRANCH  21  24
ATOM     24  C   UNL     1       3.755  15.556  20.420  0.00  0.00    +0.000 C 
ATOM     25  C   UNL     1       3.556  15.174  18.946  0.00  0.00    +0.000 C 
ATOM     26  C   UNL     1       4.781  15.485  18.095  0.00  0.00    +0.000 C 
ATOM     27  N   UNL     1       5.967  14.825  18.640  0.00  0.00    +0.000 NA
ATOM     28  C   UNL     1       7.117  15.033  17.760  0.00  0.00    +0.000 C 
ATOM     29  C   UNL     1       6.254  15.304  19.998  0.00  0.00    +0.000 C 
ATOM     30  C   UNL     1       5.088  15.001  20.942  0.00  0.00    +0.000 C 
ENDBRANCH  21  24
ENDBRANCH   1  20
BRANCH   1  31
ATOM     31  C   UNL     1      -0.997  15.217  20.922  0.00  0.00    +0.000 C 
BRANCH  31  32
ATOM     32  C   UNL     1      -1.106  16.135  22.144  0.00  0.00    +0.000 C 
BRANCH  32  33
ATOM     33  C   UNL     1      -2.305  15.824  23.036  0.00  0.00    +0.000 C 
BRANCH  33  34
ATOM     34  C   UNL     1      -2.015  14.658  23.991  0.00  0.00    +0.000 C 
BRANCH  34  35
ATOM     35  C   UNL     1      -3.227  13.747  24.188  0.00  0.00    +0.000 C 
BRANCH  35  37
ATOM     36  C   UNL     1      -2.020  11.756  23.136  0.00  0.00    +0.000 C 
ATOM     37  C   UNL     1      -3.277  12.583  23.221  0.00  0.00    +0.000 C 
ATOM     38  O   UNL     1      -4.263  12.322  22.536  0.00  0.00    +0.000 OA
ENDBRANCH  35  37
ENDBRANCH  34  35
ENDBRANCH  33  34
ENDBRANCH  32  33
ENDBRANCH  31  32
ENDBRANCH   1  31
TORSDOF 11
ENDMDL
MODEL 9
REMARK VINA RESULT:      -7.2      6.713     11.098
REMARK  Name = 
REMARK  13 active torsions:
REMARK  status: ('A' for Active; 'I' for Inactive)
REMARK    1  A    between atoms: C_1  and  C_2
REMARK    2  A    between atoms: C_2  and  C_4
REMARK    3  A    between atoms: C_4  and  C_5
REMARK    4  A    between atoms: C_5  and  C_6
REMARK    5  A    between atoms: C_6  and  C_7
REMARK    6  A    between atoms: C_7  and  C_8
REMARK    7  A    between atoms: C_8  and  C_9
REMARK    8  A    between atoms: C_9  and  N_10
REMARK    9  A    between atoms: C_9  and  C_20
REMARK   10  A    between atoms: C_11  and  C_13
REMARK   11  A    between atoms: N_16  and  C_17
REMARK   12  A    between atoms: C_23  and  C_24
REMARK   13  A    between atoms: C_27  and  C_28
REMARK                            x       y       z     vdW  Elec       q    Type
REMARK                         _______ _______ _______ _____ _____    ______ ____
ROOT
ATOM      1  C   UNL     1       1.444   9.322  19.578  0.00  0.00    +0.000 C 
ENDROOT
BRANCH   1   2
ATOM      2  C   UNL     1       0.745   9.731  20.842  0.00  0.00    +0.000 A 
ATOM      3  N   UNL     1       0.504   8.961  21.884  0.00  0.00    +0.000 NA
ATOM      4  C   UNL     1      -0.317   9.692  22.696  0.00  0.00    +0.000 A 
ATOM      5  C   UNL     1      -0.515  10.968  22.205  0.00  0.00    +0.000 A 
ATOM      6  N   UNL     1       0.193  10.978  21.021  0.00  0.00    +0.000 N 
ATOM      7  H   UNL     1       0.242  11.740  20.365  0.00  0.00    +0.000 HD
BRANCH   5   8
ATOM      8  C   UNL     1      -1.285  12.086  22.734  0.00  0.00    +0.000 A 
ATOM      9  C   UNL     1      -2.567  11.911  23.259  0.00  0.00    +0.000 A 
ATOM     10  C   UNL     1      -3.310  13.011  23.713  0.00  0.00    +0.000 A 
ATOM     11  C   UNL     1      -2.795  14.320  23.676  0.00  0.00    +0.000 A 
ATOM     12  C   UNL     1      -1.501  14.477  23.154  0.00  0.00    +0.000 A 
ATOM     13  C   UNL     1      -0.762  13.383  22.686  0.00  0.00    +0.000 A 
BRANCH  11  14
ATOM     14  C   UNL     1      -3.582  15.478  24.167  0.00  0.00    +0.000 A 
ATOM     15  C   UNL     1      -2.973  16.526  24.882  0.00  0.00    +0.000 A 
ATOM     16  C   UNL     1      -3.710  17.617  25.356  0.00  0.00    +0.000 A 
ATOM     17  C   UNL     1      -5.077  17.692  25.112  0.00  0.00    +0.000 A 
ATOM     18  C   UNL     1      -5.705  16.677  24.399  0.00  0.00    +0.000 A 
ATOM     19  C   UNL     1      -4.967  15.582  23.939  0.00  0.00    +0.000 A 
ENDBRANCH  11  14
ENDBRANCH   5   8
ENDBRANCH   1   2
BRANCH   1  20
ATOM     20  N   UNL     1       1.522   7.874  19.588  0.00  0.00    +0.000 N 
ATOM     21  C   UNL     1       2.441   7.178  18.842  0.00  0.00    +0.000 C 
ATOM     22  O   UNL     1       3.211   7.728  18.061  0.00  0.00    +0.000 OA
ATOM     23  H   UNL     1       0.770   7.382  20.057  0.00  0.00    +0.000 HD
BRANCH  21  24
ATOM     24  C   UNL     1       2.435   5.672  19.110  0.00  0.00    +0.000 C 
ATOM     25  C   UNL     1       3.875   5.197  19.350  0.00  0.00    +0.000 C 
ATOM     26  C   UNL     1       3.978   3.678  19.434  0.00  0.00    +0.000 C 
ATOM     27  N   UNL     1       3.428   3.058  18.228  0.00  0.00    +0.000 NA
ATOM     28  C   UNL     1       3.632   1.610  18.262  0.00  0.00    +0.000 C 
ATOM     29  C   UNL     1       2.005   3.384  18.077  0.00  0.00    +0.000 C 
ATOM     30  C   UNL     1       1.802   4.896  17.947  0.00  0.00    +0.000 C 
ENDBRANCH  21  24
ENDBRANCH   1  20
BRANCH   1  31
ATOM     31  C   UNL     1       0.690   9.848  18.341  0.00  0.00    +0.000 C 
BRANCH  31  32
ATOM     32  C   UNL     1      -0.822   9.683  18.520  0.00  0.00    +0.000 C 
BRANCH  32  33
ATOM     33  C   UNL     1      -1.644  10.371  17.432  0.00  0.00    +0.000 C 
BRANCH  33  34
ATOM     34  C   UNL     1      -2.119  11.762  17.873  0.00  0.00    +0.000 C 
BRANCH  34  35
ATOM     35  C   UNL     1      -3.420  11.710  18.673  0.00  0.00    +0.000 C 
BRANCH  35  37
ATOM     36  C   UNL     1      -5.763  10.712  18.451  0.00  0.00    +0.000 C 
ATOM     37  C   UNL     1      -4.653  11.510  17.816  0.00  0.00    +0.000 C 
ATOM     38  O   UNL     1      -4.756  11.953  16.674  0.00  0.00    +0.000 OA
ENDBRANCH  35  37
ENDBRANCH  34  35
ENDBRANCH  33  34
ENDBRANCH  32  33
ENDBRANCH  31  32
ENDBRANCH   1  31
TORSDOF 11
ENDMDL
