MODEL 1
REMARK VINA RESULT:      -8.5      0.000      0.000
REMARK  Name = 
REMARK  7 active torsions:
REMARK  status: ('A' for Active; 'I' for Inactive)
REMARK    1  A    between atoms: C_1  and  C_2
REMARK    2  A    between atoms: C_2  and  C_3
REMARK    3  A    between atoms: C_3  and  C_4
REMARK    4  A    between atoms: C_4  and  N_5
REMARK    5  A    between atoms: C_6  and  C_8
REMARK    6  A    between atoms: C_14  and  N_15
REMARK    7  A    between atoms: C_16  and  C_18
REMARK                            x       y       z     vdW  Elec       q    Type
REMARK                         _______ _______ _______ _____ _____    ______ ____
ROOT
ATOM      1  C   UNL     1       6.795   4.983  15.905  0.00  0.00    +0.000 A 
ATOM      2  C   UNL     1       7.467   5.249  14.692  0.00  0.00    +0.000 A 
ATOM      3  C   UNL     1       7.068   4.635  13.505  0.00  0.00    +0.000 A 
ATOM      4  C   UNL     1       6.020   3.727  13.525  0.00  0.00    +0.000 A 
ATOM      5 CL   UNL     1       5.581   2.901  12.082  0.00  0.00    +0.000 Cl
ATOM      6  C   UNL     1       5.340   3.462  14.713  0.00  0.00    +0.000 A 
ATOM      7  C   UNL     1       5.691   4.099  15.916  0.00  0.00    +0.000 A 
ENDROOT
BRANCH   1   9
ATOM      8  N   UNL     1       7.469   6.966  17.174  0.00  0.00    +0.000 N 
ATOM      9  C   UNL     1       7.326   5.590  17.163  0.00  0.00    +0.000 C 
ATOM     10  O   UNL     1       7.632   4.869  18.107  0.00  0.00    +0.000 OA
ATOM     11  H   UNL     1       7.048   7.525  16.445  0.00  0.00    +0.000 HD
BRANCH   8  12
ATOM     12  C   UNL     1       8.155   7.672  18.243  0.00  0.00    +0.000 C 
BRANCH  12  13
ATOM     13  C   UNL     1       8.191   9.187  18.027  0.00  0.00    +0.000 C 
BRANCH  13  15
ATOM     14  C   UNL     1       9.800  11.111  18.337  0.00  0.00    +0.000 C 
ATOM     15  C   UNL     1       9.129   9.914  18.998  0.00  0.00    +0.000 C 
ENDBRANCH  13  15
ENDBRANCH  12  13
ENDBRANCH   8  12
ENDBRANCH   1   9
BRANCH   7  16
ATOM     16  N   UNL     1       4.966   3.829  17.115  0.00  0.00    +0.000 N 
ATOM     17  C   UNL     1       4.007   4.667  17.668  0.00  0.00    +0.000 C 
ATOM     18  O   UNL     1       3.759   5.805  17.270  0.00  0.00    +0.000 OA
ATOM     19  H   UNL     1       5.258   2.999  17.635  0.00  0.00    +0.000 HD
BRANCH  17  20
ATOM     20  C   UNL     1       3.188   4.176  18.809  0.00  0.00    +0.000 A 
ATOM     21  C   UNL     1       2.801   5.161  19.741  0.00  0.00    +0.000 A 
ATOM     22  C   UNL     1       2.064   4.833  20.880  0.00  0.00    +0.000 A 
ATOM     23  C   UNL     1       1.702   3.511  21.104  0.00  0.00    +0.000 A 
ATOM     24  C   UNL     1       2.088   2.523  20.193  0.00  0.00    +0.000 A 
ATOM     25  C   UNL     1       2.837   2.846  19.051  0.00  0.00    +0.000 A 
ATOM     26 CL   UNL     1       3.341   1.532  18.056  0.00  0.00    +0.000 Cl
ENDBRANCH  17  20
ENDBRANCH   7  16
TORSDOF 6
ENDMDL
MODEL 2
REMARK VINA RESULT:      -8.3      1.216      1.561
REMARK  Name = 
REMARK  7 active torsions:
REMARK  status: ('A' for Active; 'I' for Inactive)
REMARK    1  A    between atoms: C_1  and  C_2
REMARK    2  A    between atoms: C_2  and  C_3
REMARK    3  A    between atoms: C_3  and  C_4
REMARK    4  A    between atoms: C_4  and  N_5
REMARK    5  A    between atoms: C_6  and  C_8
REMARK    6  A    between atoms: C_14  and  N_15
REMARK    7  A    between atoms: C_16  and  C_18
REMARK                            x       y       z     vdW  Elec       q    Type
REMARK                         _______ _______ _______ _____ _____    ______ ____
ROOT
ATOM      1  C   UNL     1       6.695   5.070  15.905  0.00  0.00    +0.000 A 
ATOM      2  C   UNL     1       7.440   5.296  14.727  0.00  0.00    +0.000 A 
ATOM      3  C   UNL     1       7.086   4.678  13.528  0.00  0.00    +0.000 A 
ATOM      4  C   UNL     1       6.008   3.805  13.502  0.00  0.00    +0.000 A 
ATOM      5 CL   UNL     1       5.621   2.973  12.048  0.00  0.00    +0.000 Cl
ATOM      6  C   UNL     1       5.257   3.579  14.654  0.00  0.00    +0.000 A 
ATOM      7  C   UNL     1       5.564   4.222  15.867  0.00  0.00    +0.000 A 
ENDROOT
BRANCH   1   9
ATOM      8  N   UNL     1       7.427   7.038  17.165  0.00  0.00    +0.000 N 
ATOM      9  C   UNL     1       7.178   5.677  17.181  0.00  0.00    +0.000 C 
ATOM     10  O   UNL     1       7.356   4.968  18.166  0.00  0.00    +0.000 OA
ATOM     11  H   UNL     1       7.107   7.602  16.389  0.00  0.00    +0.000 HD
BRANCH   8  12
ATOM     12  C   UNL     1       8.086   7.726  18.262  0.00  0.00    +0.000 C 
BRANCH  12  13
ATOM     13  C   UNL     1       8.245   9.228  18.012  0.00  0.00    +0.000 C 
BRANCH  13  15
ATOM     14  C   UNL     1       9.701  11.239  18.481  0.00  0.00    +0.000 C 
ATOM     15  C   UNL     1       9.180   9.912  19.016  0.00  0.00    +0.000 C 
ENDBRANCH  13  15
ENDBRANCH  12  13
ENDBRANCH   8  12
ENDBRANCH   1   9
BRANCH   7  16
ATOM     16  N   UNL     1       4.767   3.993  17.028  0.00  0.00    +0.000 N 
ATOM     17  C   UNL     1       3.827   4.882  17.533  0.00  0.00    +0.000 C 
ATOM     18  O   UNL     1       3.660   6.031  17.124  0.00  0.00    +0.000 OA
ATOM     19  H   UNL     1       4.988   3.149  17.561  0.00  0.00    +0.000 HD
BRANCH  17  20
ATOM     20  C   UNL     1       2.928   4.436  18.631  0.00  0.00    +0.000 A 
ATOM     21  C   UNL     1       2.616   3.060  18.633  0.00  0.00    +0.000 A 
ATOM     22  C   UNL     1       1.751   2.513  19.583  0.00  0.00    +0.000 A 
ATOM     23  C   UNL     1       1.184   3.337  20.547  0.00  0.00    +0.000 A 
ATOM     24  C   UNL     1       1.477   4.704  20.550  0.00  0.00    +0.000 A 
ATOM     25  C   UNL     1       2.337   5.261  19.591  0.00  0.00    +0.000 A 
ATOM     26 CL   UNL     1       2.542   6.971  19.632  0.00  0.00    +0.000 Cl
ENDBRANCH  17  20
ENDBRANCH   7  16
TORSDOF 6
ENDMDL
MODEL 3
REMARK VINA RESULT:      -8.2      1.376      1.612
REMARK  Name = 
REMARK  7 active torsions:
REMARK  status: ('A' for Active; 'I' for Inactive)
REMARK    1  A    between atoms: C_1  and  C_2
REMARK    2  A    between atoms: C_2  and  C_3
REMARK    3  A    between atoms: C_3  and  C_4
REMARK    4  A    between atoms: C_4  and  N_5
REMARK    5  A    between atoms: C_6  and  C_8
REMARK    6  A    between atoms: C_14  and  N_15
REMARK    7  A    between atoms: C_16  and  C_18
REMARK                            x       y       z     vdW  Elec       q    Type
REMARK                         _______ _______ _______ _____ _____    ______ ____
ROOT
ATOM      1  C   UNL     1       6.576   4.959  15.569  0.00  0.00    +0.000 A 
ATOM      2  C   UNL     1       7.469   4.864  14.479  0.00  0.00    +0.000 A 
ATOM      3  C   UNL     1       7.071   4.276  13.279  0.00  0.00    +0.000 A 
ATOM      4  C   UNL     1       5.793   3.749  13.167  0.00  0.00    +0.000 A 
ATOM      5 CL   UNL     1       5.326   2.945  11.720  0.00  0.00    +0.000 Cl
ATOM      6  C   UNL     1       4.896   3.845  14.229  0.00  0.00    +0.000 A 
ATOM      7  C   UNL     1       5.255   4.471  15.436  0.00  0.00    +0.000 A 
ENDROOT
BRANCH   1   9
ATOM      8  N   UNL     1       7.199   6.882  16.950  0.00  0.00    +0.000 N 
ATOM      9  C   UNL     1       7.084   5.506  16.862  0.00  0.00    +0.000 C 
ATOM     10  O   UNL     1       7.397   4.741  17.768  0.00  0.00    +0.000 OA
ATOM     11  H   UNL     1       6.774   7.471  16.248  0.00  0.00    +0.000 HD
BRANCH   8  12
ATOM     12  C   UNL     1       7.862   7.541  18.062  0.00  0.00    +0.000 C 
BRANCH  12  13
ATOM     13  C   UNL     1       8.039   9.047  17.841  0.00  0.00    +0.000 C 
BRANCH  13  15
ATOM     14  C   UNL     1       9.331  11.131  18.448  0.00  0.00    +0.000 C 
ATOM     15  C   UNL     1       9.009   9.693  18.835  0.00  0.00    +0.000 C 
ENDBRANCH  13  15
ENDBRANCH  12  13
ENDBRANCH   8  12
ENDBRANCH   1   9
BRANCH   7  16
ATOM     16  N   UNL     1       4.312   4.578  16.503  0.00  0.00    +0.000 N 
ATOM     17  C   UNL     1       3.915   3.528  17.319  0.00  0.00    +0.000 C 
ATOM     18  O   UNL     1       4.222   2.349  17.141  0.00  0.00    +0.000 OA
ATOM     19  H   UNL     1       3.841   5.481  16.592  0.00  0.00    +0.000 HD
BRANCH  17  20
ATOM     20  C   UNL     1       3.079   3.817  18.515  0.00  0.00    +0.000 A 
ATOM     21  C   UNL     1       1.837   3.150  18.558  0.00  0.00    +0.000 A 
ATOM     22  C   UNL     1       0.936   3.360  19.603  0.00  0.00    +0.000 A 
ATOM     23  C   UNL     1       1.264   4.242  20.624  0.00  0.00    +0.000 A 
ATOM     24  C   UNL     1       2.488   4.918  20.588  0.00  0.00    +0.000 A 
ATOM     25  C   UNL     1       3.394   4.719  19.535  0.00  0.00    +0.000 A 
ATOM     26 CL   UNL     1       4.822   5.682  19.546  0.00  0.00    +0.000 Cl
ENDBRANCH  17  20
ENDBRANCH   7  16
TORSDOF 6
ENDMDL
MODEL 4
REMARK VINA RESULT:      -8.0      1.028      1.121
REMARK  Name = 
REMARK  7 active torsions:
REMARK  status: ('A' for Active; 'I' for Inactive)
REMARK    1  A    between atoms: C_1  and  C_2
REMARK    2  A    between atoms: C_2  and  C_3
REMARK    3  A    between atoms: C_3  and  C_4
REMARK    4  A    between atoms: C_4  and  N_5
REMARK    5  A    between atoms: C_6  and  C_8
REMARK    6  A    between atoms: C_14  and  N_15
REMARK    7  A    between atoms: C_16  and  C_18
REMARK                            x       y       z     vdW  Elec       q    Type
REMARK                         _______ _______ _______ _____ _____    ______ ____
ROOT
ATOM      1  C   UNL     1       6.543   5.278  15.803  0.00  0.00    +0.000 A 
ATOM      2  C   UNL     1       7.510   5.101  14.790  0.00  0.00    +0.000 A 
ATOM      3  C   UNL     1       7.191   4.436  13.606  0.00  0.00    +0.000 A 
ATOM      4  C   UNL     1       5.917   3.914  13.439  0.00  0.00    +0.000 A 
ATOM      5 CL   UNL     1       5.543   3.017  12.020  0.00  0.00    +0.000 Cl
ATOM      6  C   UNL     1       4.948   4.091  14.425  0.00  0.00    +0.000 A 
ATOM      7  C   UNL     1       5.229   4.795  15.610  0.00  0.00    +0.000 A 
ENDROOT
BRANCH   1   9
ATOM      8  N   UNL     1       7.518   7.174  17.008  0.00  0.00    +0.000 N 
ATOM      9  C   UNL     1       6.967   5.908  17.090  0.00  0.00    +0.000 C 
ATOM     10  O   UNL     1       6.838   5.292  18.143  0.00  0.00    +0.000 OA
ATOM     11  H   UNL     1       7.447   7.703  16.149  0.00  0.00    +0.000 HD
BRANCH   8  12
ATOM     12  C   UNL     1       8.154   7.825  18.140  0.00  0.00    +0.000 C 
BRANCH  12  13
ATOM     13  C   UNL     1       8.255   9.344  17.974  0.00  0.00    +0.000 C 
BRANCH  13  15
ATOM     14  C   UNL     1       9.754  11.298  18.538  0.00  0.00    +0.000 C 
ATOM     15  C   UNL     1       9.116  10.013  19.050  0.00  0.00    +0.000 C 
ENDBRANCH  13  15
ENDBRANCH  12  13
ENDBRANCH   8  12
ENDBRANCH   1   9
BRANCH   7  16
ATOM     16  N   UNL     1       4.214   4.983  16.596  0.00  0.00    +0.000 N 
ATOM     17  C   UNL     1       3.794   4.014  17.496  0.00  0.00    +0.000 C 
ATOM     18  O   UNL     1       4.144   2.834  17.469  0.00  0.00    +0.000 OA
ATOM     19  H   UNL     1       3.713   5.873  16.555  0.00  0.00    +0.000 HD
BRANCH  17  20
ATOM     20  C   UNL     1       2.872   4.401  18.598  0.00  0.00    +0.000 A 
ATOM     21  C   UNL     1       3.095   5.682  19.147  0.00  0.00    +0.000 A 
ATOM     22  C   UNL     1       2.330   6.158  20.213  0.00  0.00    +0.000 A 
ATOM     23  C   UNL     1       1.327   5.358  20.747  0.00  0.00    +0.000 A 
ATOM     24  C   UNL     1       1.102   4.083  20.218  0.00  0.00    +0.000 A 
ATOM     25  C   UNL     1       1.876   3.596  19.153  0.00  0.00    +0.000 A 
ATOM     26 CL   UNL     1       1.575   1.974  18.655  0.00  0.00    +0.000 Cl
ENDBRANCH  17  20
ENDBRANCH   7  16
TORSDOF 6
ENDMDL
MODEL 5
REMARK VINA RESULT:      -8.0      1.058      1.210
REMARK  Name = 
REMARK  7 active torsions:
REMARK  status: ('A' for Active; 'I' for Inactive)
REMARK    1  A    between atoms: C_1  and  C_2
REMARK    2  A    between atoms: C_2  and  C_3
REMARK    3  A    between atoms: C_3  and  C_4
REMARK    4  A    between atoms: C_4  and  N_5
REMARK    5  A    between atoms: C_6  and  C_8
REMARK    6  A    between atoms: C_14  and  N_15
REMARK    7  A    between atoms: C_16  and  C_18
REMARK                            x       y       z     vdW  Elec       q    Type
REMARK                         _______ _______ _______ _____ _____    ______ ____
ROOT
ATOM      1  C   UNL     1       6.913   4.933  15.717  0.00  0.00    +0.000 A 
ATOM      2  C   UNL     1       7.561   5.286  14.514  0.00  0.00    +0.000 A 
ATOM      3  C   UNL     1       7.207   4.682  13.308  0.00  0.00    +0.000 A 
ATOM      4  C   UNL     1       6.229   3.699  13.298  0.00  0.00    +0.000 A 
ATOM      5 CL   UNL     1       5.850   2.889  11.828  0.00  0.00    +0.000 Cl
ATOM      6  C   UNL     1       5.572   3.347  14.475  0.00  0.00    +0.000 A 
ATOM      7  C   UNL     1       5.878   3.969  15.699  0.00  0.00    +0.000 A 
ENDROOT
BRANCH   1   9
ATOM      8  N   UNL     1       7.273   6.908  17.118  0.00  0.00    +0.000 N 
ATOM      9  C   UNL     1       7.400   5.537  16.994  0.00  0.00    +0.000 C 
ATOM     10  O   UNL     1       7.903   4.822  17.854  0.00  0.00    +0.000 OA
ATOM     11  H   UNL     1       6.704   7.426  16.462  0.00  0.00    +0.000 HD
BRANCH   8  12
ATOM     12  C   UNL     1       7.880   7.654  18.207  0.00  0.00    +0.000 C 
BRANCH  12  13
ATOM     13  C   UNL     1       8.304   9.067  17.797  0.00  0.00    +0.000 C 
BRANCH  13  15
ATOM     14  C   UNL     1       9.407  11.237  18.473  0.00  0.00    +0.000 C 
ATOM     15  C   UNL     1       8.992   9.843  18.925  0.00  0.00    +0.000 C 
ENDBRANCH  13  15
ENDBRANCH  12  13
ENDBRANCH   8  12
ENDBRANCH   1   9
BRANCH   7  16
ATOM     16  N   UNL     1       5.176   3.609  16.889  0.00  0.00    +0.000 N 
ATOM     17  C   UNL     1       4.293   4.435  17.569  0.00  0.00    +0.000 C 
ATOM     18  O   UNL     1       4.106   5.624  17.312  0.00  0.00    +0.000 OA
ATOM     19  H   UNL     1       5.431   2.708  17.300  0.00  0.00    +0.000 HD
BRANCH  17  20
ATOM     20  C   UNL     1       3.481   3.866  18.680  0.00  0.00    +0.000 A 
ATOM     21  C   UNL     1       4.207   3.132  19.641  0.00  0.00    +0.000 A 
ATOM     22  C   UNL     1       3.567   2.510  20.714  0.00  0.00    +0.000 A 
ATOM     23  C   UNL     1       2.187   2.614  20.843  0.00  0.00    +0.000 A 
ATOM     24  C   UNL     1       1.456   3.330  19.891  0.00  0.00    +0.000 A 
ATOM     25  C   UNL     1       2.093   3.949  18.804  0.00  0.00    +0.000 A 
ATOM     26 CL   UNL     1       1.077   4.715  17.642  0.00  0.00    +0.000 Cl
ENDBRANCH  17  20
ENDBRANCH   7  16
TORSDOF 6
ENDMDL
MODEL 6
REMARK VINA RESULT:      -7.3      2.202      2.682
REMARK  Name = 
REMARK  7 active torsions:
REMARK  status: ('A' for Active; 'I' for Inactive)
REMARK    1  A    between atoms: C_1  and  C_2
REMARK    2  A    between atoms: C_2  and  C_3
REMARK    3  A    between atoms: C_3  and  C_4
REMARK    4  A    between atoms: C_4  and  N_5
REMARK    5  A    between atoms: C_6  and  C_8
REMARK    6  A    between atoms: C_14  and  N_15
REMARK    7  A    between atoms: C_16  and  C_18
REMARK                            x       y       z     vdW  Elec       q    Type
REMARK                         _______ _______ _______ _____ _____    ______ ____
ROOT
ATOM      1  C   UNL     1       6.687   5.945  16.366  0.00  0.00    +0.000 A 
ATOM      2  C   UNL     1       7.606   5.225  15.572  0.00  0.00    +0.000 A 
ATOM      3  C   UNL     1       7.172   4.473  14.481  0.00  0.00    +0.000 A 
ATOM      4  C   UNL     1       5.817   4.407  14.193  0.00  0.00    +0.000 A 
ATOM      5 CL   UNL     1       5.268   3.411  12.902  0.00  0.00    +0.000 Cl
ATOM      6  C   UNL     1       4.898   5.120  14.961  0.00  0.00    +0.000 A 
ATOM      7  C   UNL     1       5.311   5.921  16.040  0.00  0.00    +0.000 A 
ENDROOT
BRANCH   1   9
ATOM      8  N   UNL     1       7.815   7.869  17.375  0.00  0.00    +0.000 N 
ATOM      9  C   UNL     1       7.194   6.651  17.581  0.00  0.00    +0.000 C 
ATOM     10  O   UNL     1       7.069   6.132  18.685  0.00  0.00    +0.000 OA
ATOM     11  H   UNL     1       7.744   8.329  16.478  0.00  0.00    +0.000 HD
BRANCH   8  12
ATOM     12  C   UNL     1       8.530   8.570  18.428  0.00  0.00    +0.000 C 
BRANCH  12  13
ATOM     13  C   UNL     1       8.543  10.088  18.230  0.00  0.00    +0.000 C 
BRANCH  13  15
ATOM     14  C   UNL     1      10.563  11.578  17.937  0.00  0.00    +0.000 C 
ATOM     15  C   UNL     1       9.722  10.778  18.924  0.00  0.00    +0.000 C 
ENDBRANCH  13  15
ENDBRANCH  12  13
ENDBRANCH   8  12
ENDBRANCH   1   9
BRANCH   7  16
ATOM     16  N   UNL     1       4.355   6.661  16.799  0.00  0.00    +0.000 N 
ATOM     17  C   UNL     1       3.418   6.102  17.657  0.00  0.00    +0.000 C 
ATOM     18  O   UNL     1       3.205   4.894  17.769  0.00  0.00    +0.000 OA
ATOM     19  H   UNL     1       4.315   7.665  16.608  0.00  0.00    +0.000 HD
BRANCH  17  20
ATOM     20  C   UNL     1       2.615   6.996  18.534  0.00  0.00    +0.000 A 
ATOM     21  C   UNL     1       2.298   8.255  17.980  0.00  0.00    +0.000 A 
ATOM     22  C   UNL     1       1.584   9.209  18.708  0.00  0.00    +0.000 A 
ATOM     23  C   UNL     1       1.175   8.916  20.004  0.00  0.00    +0.000 A 
ATOM     24  C   UNL     1       1.492   7.676  20.566  0.00  0.00    +0.000 A 
ATOM     25  C   UNL     1       2.218   6.718  19.843  0.00  0.00    +0.000 A 
ATOM     26 CL   UNL     1       2.636   5.269  20.676  0.00  0.00    +0.000 Cl
ENDBRANCH  17  20
ENDBRANCH   7  16
TORSDOF 6
ENDMDL
MODEL 7
REMARK VINA RESULT:      -7.2      1.078      1.139
REMARK  Name = 
REMARK  7 active torsions:
REMARK  status: ('A' for Active; 'I' for Inactive)
REMARK    1  A    between atoms: C_1  and  C_2
REMARK    2  A    between atoms: C_2  and  C_3
REMARK    3  A    between atoms: C_3  and  C_4
REMARK    4  A    between atoms: C_4  and  N_5
REMARK    5  A    between atoms: C_6  and  C_8
REMARK    6  A    between atoms: C_14  and  N_15
REMARK    7  A    between atoms: C_16  and  C_18
REMARK                            x       y       z     vdW  Elec       q    Type
REMARK                         _______ _______ _______ _____ _____    ______ ____
ROOT
ATOM      1  C   UNL     1       6.637   4.862  15.469  0.00  0.00    +0.000 A 
ATOM      2  C   UNL     1       7.318   5.194  14.278  0.00  0.00    +0.000 A 
ATOM      3  C   UNL     1       7.016   4.550  13.078  0.00  0.00    +0.000 A 
ATOM      4  C   UNL     1       6.056   3.549  13.064  0.00  0.00    +0.000 A 
ATOM      5 CL   UNL     1       5.741   2.692  11.607  0.00  0.00    +0.000 Cl
ATOM      6  C   UNL     1       5.367   3.217  14.229  0.00  0.00    +0.000 A 
ATOM      7  C   UNL     1       5.620   3.879  15.444  0.00  0.00    +0.000 A 
ENDROOT
BRANCH   1   9
ATOM      8  N   UNL     1       6.625   6.801  16.964  0.00  0.00    +0.000 N 
ATOM      9  C   UNL     1       7.070   5.510  16.743  0.00  0.00    +0.000 C 
ATOM     10  O   UNL     1       7.804   4.904  17.517  0.00  0.00    +0.000 OA
ATOM     11  H   UNL     1       5.893   7.190  16.386  0.00  0.00    +0.000 HD
BRANCH   8  12
ATOM     12  C   UNL     1       7.124   7.624  18.052  0.00  0.00    +0.000 C 
BRANCH  12  13
ATOM     13  C   UNL     1       8.203   8.613  17.604  0.00  0.00    +0.000 C 
BRANCH  13  15
ATOM     14  C   UNL     1       9.268  10.787  18.328  0.00  0.00    +0.000 C 
ATOM     15  C   UNL     1       8.825   9.397  18.765  0.00  0.00    +0.000 C 
ENDBRANCH  13  15
ENDBRANCH  12  13
ENDBRANCH   8  12
ENDBRANCH   1   9
BRANCH   7  16
ATOM     16  N   UNL     1       4.886   3.538  16.620  0.00  0.00    +0.000 N 
ATOM     17  C   UNL     1       3.950   4.358  17.236  0.00  0.00    +0.000 C 
ATOM     18  O   UNL     1       3.734   5.529  16.926  0.00  0.00    +0.000 OA
ATOM     19  H   UNL     1       5.154   2.662  17.074  0.00  0.00    +0.000 HD
BRANCH  17  20
ATOM     20  C   UNL     1       3.116   3.803  18.336  0.00  0.00    +0.000 A 
ATOM     21  C   UNL     1       1.722   3.910  18.147  0.00  0.00    +0.000 A 
ATOM     22  C   UNL     1       0.822   3.467  19.117  0.00  0.00    +0.000 A 
ATOM     23  C   UNL     1       1.304   2.908  20.294  0.00  0.00    +0.000 A 
ATOM     24  C   UNL     1       2.683   2.805  20.498  0.00  0.00    +0.000 A 
ATOM     25  C   UNL     1       3.593   3.258  19.530  0.00  0.00    +0.000 A 
ATOM     26 CL   UNL     1       5.265   3.173  19.935  0.00  0.00    +0.000 Cl
ENDBRANCH  17  20
ENDBRANCH   7  16
TORSDOF 6
ENDMDL
MODEL 8
REMARK VINA RESULT:      -7.2      3.594      6.296
REMARK  Name = 
REMARK  7 active torsions:
REMARK  status: ('A' for Active; 'I' for Inactive)
REMARK    1  A    between atoms: C_1  and  C_2
REMARK    2  A    between atoms: C_2  and  C_3
REMARK    3  A    between atoms: C_3  and  C_4
REMARK    4  A    between atoms: C_4  and  N_5
REMARK    5  A    between atoms: C_6  and  C_8
REMARK    6  A    between atoms: C_14  and  N_15
REMARK    7  A    between atoms: C_16  and  C_18
REMARK                            x       y       z     vdW  Elec       q    Type
REMARK                         _______ _______ _______ _____ _____    ______ ____
ROOT
ATOM      1  C   UNL     1       4.098   4.633  19.402  0.00  0.00    +0.000 A 
ATOM      2  C   UNL     1       4.281   3.239  19.534  0.00  0.00    +0.000 A 
ATOM      3  C   UNL     1       3.428   2.480  20.335  0.00  0.00    +0.000 A 
ATOM      4  C   UNL     1       2.410   3.109  21.035  0.00  0.00    +0.000 A 
ATOM      5 CL   UNL     1       1.410   2.191  22.093  0.00  0.00    +0.000 Cl
ATOM      6  C   UNL     1       2.210   4.482  20.907  0.00  0.00    +0.000 A 
ATOM      7  C   UNL     1       3.026   5.266  20.072  0.00  0.00    +0.000 A 
ENDROOT
BRANCH   1   9
ATOM      8  N   UNL     1       4.822   5.597  17.271  0.00  0.00    +0.000 N 
ATOM      9  C   UNL     1       5.100   5.411  18.613  0.00  0.00    +0.000 C 
ATOM     10  O   UNL     1       6.116   5.828  19.158  0.00  0.00    +0.000 OA
ATOM     11  H   UNL     1       3.902   5.385  16.910  0.00  0.00    +0.000 HD
BRANCH   8  12
ATOM     12  C   UNL     1       5.790   6.155  16.342  0.00  0.00    +0.000 C 
BRANCH  12  13
ATOM     13  C   UNL     1       6.904   5.168  15.980  0.00  0.00    +0.000 C 
BRANCH  13  15
ATOM     14  C   UNL     1       5.717   4.070  14.039  0.00  0.00    +0.000 C 
ATOM     15  C   UNL     1       6.955   4.836  14.485  0.00  0.00    +0.000 C 
ENDBRANCH  13  15
ENDBRANCH  12  13
ENDBRANCH   8  12
ENDBRANCH   1   9
BRANCH   7  16
ATOM     16  N   UNL     1       2.789   6.667  19.938  0.00  0.00    +0.000 N 
ATOM     17  C   UNL     1       2.169   7.266  18.850  0.00  0.00    +0.000 C 
ATOM     18  O   UNL     1       1.869   6.684  17.808  0.00  0.00    +0.000 OA
ATOM     19  H   UNL     1       3.196   7.260  20.665  0.00  0.00    +0.000 HD
BRANCH  17  20
ATOM     20  C   UNL     1       1.808   8.707  18.927  0.00  0.00    +0.000 A 
ATOM     21  C   UNL     1       2.361   9.521  17.916  0.00  0.00    +0.000 A 
ATOM     22  C   UNL     1       2.137  10.899  17.890  0.00  0.00    +0.000 A 
ATOM     23  C   UNL     1       1.353  11.484  18.877  0.00  0.00    +0.000 A 
ATOM     24  C   UNL     1       0.807  10.690  19.889  0.00  0.00    +0.000 A 
ATOM     25  C   UNL     1       1.038   9.306  19.926  0.00  0.00    +0.000 A 
ATOM     26 CL   UNL     1       0.399   8.448  21.277  0.00  0.00    +0.000 Cl
ENDBRANCH  17  20
ENDBRANCH   7  16
TORSDOF 6
ENDMDL
MODEL 9
REMARK VINA RESULT:      -7.1      1.025      1.272
REMARK  Name = 
REMARK  7 active torsions:
REMARK  status: ('A' for Active; 'I' for Inactive)
REMARK    1  A    between atoms: C_1  and  C_2
REMARK    2  A    between atoms: C_2  and  C_3
REMARK    3  A    between atoms: C_3  and  C_4
REMARK    4  A    between atoms: C_4  and  N_5
REMARK    5  A    between atoms: C_6  and  C_8
REMARK    6  A    between atoms: C_14  and  N_15
REMARK    7  A    between atoms: C_16  and  C_18
REMARK                            x       y       z     vdW  Elec       q    Type
REMARK                         _______ _______ _______ _____ _____    ______ ____
ROOT
ATOM      1  C   UNL     1       6.265   5.476  15.099  0.00  0.00    +0.000 A 
ATOM      2  C   UNL     1       7.189   5.523  14.033  0.00  0.00    +0.000 A 
ATOM      3  C   UNL     1       7.159   4.566  13.019  0.00  0.00    +0.000 A 
ATOM      4  C   UNL     1       6.232   3.537  13.080  0.00  0.00    +0.000 A 
ATOM      5 CL   UNL     1       6.248   2.304  11.880  0.00  0.00    +0.000 Cl
ATOM      6  C   UNL     1       5.306   3.482  14.120  0.00  0.00    +0.000 A 
ATOM      7  C   UNL     1       5.284   4.458  15.132  0.00  0.00    +0.000 A 
ENDROOT
BRANCH   1   9
ATOM      8  N   UNL     1       7.629   6.506  16.853  0.00  0.00    +0.000 N 
ATOM      9  C   UNL     1       6.406   6.467  16.209  0.00  0.00    +0.000 C 
ATOM     10  O   UNL     1       5.454   7.175  16.519  0.00  0.00    +0.000 OA
ATOM     11  H   UNL     1       8.427   6.029  16.454  0.00  0.00    +0.000 HD
BRANCH   8  12
ATOM     12  C   UNL     1       7.848   7.269  18.069  0.00  0.00    +0.000 C 
BRANCH  12  13
ATOM     13  C   UNL     1       8.041   8.765  17.807  0.00  0.00    +0.000 C 
BRANCH  13  15
ATOM     14  C   UNL     1       9.344  10.843  18.413  0.00  0.00    +0.000 C 
ATOM     15  C   UNL     1       8.903   9.458  18.868  0.00  0.00    +0.000 C 
ENDBRANCH  13  15
ENDBRANCH  12  13
ENDBRANCH   8  12
ENDBRANCH   1   9
BRANCH   7  16
ATOM     16  N   UNL     1       4.312   4.396  16.176  0.00  0.00    +0.000 N 
ATOM     17  C   UNL     1       4.601   4.186  17.517  0.00  0.00    +0.000 C 
ATOM     18  O   UNL     1       5.714   3.894  17.956  0.00  0.00    +0.000 OA
ATOM     19  H   UNL     1       3.335   4.416  15.876  0.00  0.00    +0.000 HD
BRANCH  17  20
ATOM     20  C   UNL     1       3.516   4.340  18.524  0.00  0.00    +0.000 A 
ATOM     21  C   UNL     1       3.335   5.650  19.017  0.00  0.00    +0.000 A 
ATOM     22  C   UNL     1       2.380   5.931  19.995  0.00  0.00    +0.000 A 
ATOM     23  C   UNL     1       1.588   4.904  20.495  0.00  0.00    +0.000 A 
ATOM     24  C   UNL     1       1.765   3.601  20.022  0.00  0.00    +0.000 A 
ATOM     25  C   UNL     1       2.732   3.310  19.046  0.00  0.00    +0.000 A 
ATOM     26 CL   UNL     1       2.927   1.653  18.616  0.00  0.00    +0.000 Cl
ENDBRANCH  17  20
ENDBRANCH   7  16
TORSDOF 6
ENDMDL
