MODEL 1
REMARK VINA RESULT:      -7.6      0.000      0.000
REMARK  Name = 
REMARK  5 active torsions:
REMARK  status: ('A' for Active; 'I' for Inactive)
REMARK    1  A    between atoms: C_1  and  C_8
REMARK    2  A    between atoms: C_2  and  C_3
REMARK    3  A    between atoms: C_8  and  C_9
REMARK    4  A    between atoms: C_9  and  N_10
REMARK    5  A    between atoms: C_13  and  C_14
REMARK                            x       y       z     vdW  Elec       q    Type
REMARK                         _______ _______ _______ _____ _____    ______ ____
ROOT
ATOM      1  N   UNL     1       6.707   5.881  17.956  0.00  0.00    +0.000 NA
ATOM      2  C   UNL     1       5.954   5.470  19.149  0.00  0.00    +0.000 C 
ATOM      3  C   UNL     1       4.652   4.719  18.848  0.00  0.00    +0.000 C 
ATOM      4  C   UNL     1       3.744   5.465  17.861  0.00  0.00    +0.000 C 
ATOM      5  C   UNL     1       4.588   5.763  16.612  0.00  0.00    +0.000 C 
ATOM      6  C   UNL     1       5.857   6.550  16.953  0.00  0.00    +0.000 C 
ENDROOT
BRANCH   4   7
ATOM      7  C   UNL     1       3.002   6.681  18.419  0.00  0.00    +0.000 A 
ATOM      8  C   UNL     1       2.479   6.726  19.721  0.00  0.00    +0.000 A 
ATOM      9  C   UNL     1       1.760   7.828  20.189  0.00  0.00    +0.000 A 
ATOM     10  C   UNL     1       1.521   8.907  19.348  0.00  0.00    +0.000 A 
ATOM     11  C   UNL     1       2.021   8.889  18.050  0.00  0.00    +0.000 A 
ATOM     12  C   UNL     1       2.757   7.790  17.590  0.00  0.00    +0.000 A 
ENDBRANCH   4   7
BRANCH   1  13
ATOM     13  C   UNL     1       7.821   6.791  18.338  0.00  0.00    +0.000 C 
BRANCH  13  14
ATOM     14  C   UNL     1       7.820   8.128  17.580  0.00  0.00    +0.000 C 
BRANCH  14  15
ATOM     15  C   UNL     1       8.505   9.196  18.328  0.00  0.00    +0.000 C 
ATOM     16  C   UNL     1       9.110  10.044  18.922  0.00  0.00    +0.000 C 
BRANCH  16  17
ATOM     17  C   UNL     1       9.848  11.052  19.602  0.00  0.00    +0.000 A 
ATOM     18  C   UNL     1      11.060  11.582  19.236  0.00  0.00    +0.000 A 
ATOM     19  N   UNL     1      11.337  12.512  20.201  0.00  0.00    +0.000 N 
ATOM     20  C   UNL     1      10.302  12.497  21.095  0.00  0.00    +0.000 A 
ATOM     21  N   UNL     1       9.384  11.619  20.758  0.00  0.00    +0.000 NA
ATOM     22  H   UNL     1      12.152  13.107  20.247  0.00  0.00    +0.000 HD
ENDBRANCH  16  17
ENDBRANCH  14  15
ENDBRANCH  13  14
ENDBRANCH   1  13
TORSDOF 5
ENDMDL
MODEL 2
REMARK VINA RESULT:      -7.5      0.606      1.336
REMARK  Name = 
REMARK  5 active torsions:
REMARK  status: ('A' for Active; 'I' for Inactive)
REMARK    1  A    between atoms: C_1  and  C_8
REMARK    2  A    between atoms: C_2  and  C_3
REMARK    3  A    between atoms: C_8  and  C_9
REMARK    4  A    between atoms: C_9  and  N_10
REMARK    5  A    between atoms: C_13  and  C_14
REMARK                            x       y       z     vdW  Elec       q    Type
REMARK                         _______ _______ _______ _____ _____    ______ ____
ROOT
ATOM      1  N   UNL     1       6.719   5.781  17.949  0.00  0.00    +0.000 NA
ATOM      2  C   UNL     1       5.912   5.335  19.093  0.00  0.00    +0.000 C 
ATOM      3  C   UNL     1       4.631   4.585  18.712  0.00  0.00    +0.000 C 
ATOM      4  C   UNL     1       3.765   5.352  17.703  0.00  0.00    +0.000 C 
ATOM      5  C   UNL     1       4.666   5.687  16.503  0.00  0.00    +0.000 C 
ATOM      6  C   UNL     1       5.912   6.471  16.924  0.00  0.00    +0.000 C 
ENDROOT
BRANCH   4   7
ATOM      7  C   UNL     1       2.990   6.550  18.255  0.00  0.00    +0.000 A 
ATOM      8  C   UNL     1       2.774   7.725  17.519  0.00  0.00    +0.000 A 
ATOM      9  C   UNL     1       2.108   8.825  18.064  0.00  0.00    +0.000 A 
ATOM     10  C   UNL     1       1.665   8.783  19.380  0.00  0.00    +0.000 A 
ATOM     11  C   UNL     1       1.871   7.635  20.137  0.00  0.00    +0.000 A 
ATOM     12  C   UNL     1       2.524   6.528  19.581  0.00  0.00    +0.000 A 
ENDBRANCH   4   7
BRANCH   1  13
ATOM     13  C   UNL     1       7.807   6.686  18.406  0.00  0.00    +0.000 C 
BRANCH  13  14
ATOM     14  C   UNL     1       7.852   8.030  17.662  0.00  0.00    +0.000 C 
BRANCH  14  15
ATOM     15  C   UNL     1       8.560   9.070  18.428  0.00  0.00    +0.000 C 
ATOM     16  C   UNL     1       9.116   9.953  19.019  0.00  0.00    +0.000 C 
BRANCH  16  17
ATOM     17  C   UNL     1       9.750  11.019  19.716  0.00  0.00    +0.000 A 
ATOM     18  C   UNL     1       9.290  11.668  20.834  0.00  0.00    +0.000 A 
ATOM     19  N   UNL     1      10.255  12.596  21.118  0.00  0.00    +0.000 N 
ATOM     20  C   UNL     1      11.233  12.473  20.170  0.00  0.00    +0.000 A 
ATOM     21  N   UNL     1      10.953  11.526  19.304  0.00  0.00    +0.000 NA
ATOM     22  H   UNL     1      10.253  13.251  21.887  0.00  0.00    +0.000 HD
ENDBRANCH  16  17
ENDBRANCH  14  15
ENDBRANCH  13  14
ENDBRANCH   1  13
TORSDOF 5
ENDMDL
MODEL 3
REMARK VINA RESULT:      -7.3      2.148      3.282
REMARK  Name = 
REMARK  5 active torsions:
REMARK  status: ('A' for Active; 'I' for Inactive)
REMARK    1  A    between atoms: C_1  and  C_8
REMARK    2  A    between atoms: C_2  and  C_3
REMARK    3  A    between atoms: C_8  and  C_9
REMARK    4  A    between atoms: C_9  and  N_10
REMARK    5  A    between atoms: C_13  and  C_14
REMARK                            x       y       z     vdW  Elec       q    Type
REMARK                         _______ _______ _______ _____ _____    ______ ____
ROOT
ATOM      1  N   UNL     1       5.130   5.824  17.447  0.00  0.00    +0.000 NA
ATOM      2  C   UNL     1       5.075   4.365  17.283  0.00  0.00    +0.000 C 
ATOM      3  C   UNL     1       3.715   3.830  16.820  0.00  0.00    +0.000 C 
ATOM      4  C   UNL     1       2.550   4.325  17.688  0.00  0.00    +0.000 C 
ATOM      5  C   UNL     1       2.633   5.859  17.719  0.00  0.00    +0.000 C 
ATOM      6  C   UNL     1       3.992   6.348  18.225  0.00  0.00    +0.000 C 
ENDROOT
BRANCH   4   7
ATOM      7  C   UNL     1       2.419   3.679  19.069  0.00  0.00    +0.000 A 
ATOM      8  C   UNL     1       1.297   3.860  19.894  0.00  0.00    +0.000 A 
ATOM      9  C   UNL     1       1.223   3.302  21.171  0.00  0.00    +0.000 A 
ATOM     10  C   UNL     1       2.292   2.568  21.669  0.00  0.00    +0.000 A 
ATOM     11  C   UNL     1       3.420   2.377  20.878  0.00  0.00    +0.000 A 
ATOM     12  C   UNL     1       3.483   2.923  19.590  0.00  0.00    +0.000 A 
ENDBRANCH   4   7
BRANCH   1  13
ATOM     13  C   UNL     1       6.401   6.220  18.110  0.00  0.00    +0.000 C 
BRANCH  13  14
ATOM     14  C   UNL     1       7.407   6.903  17.170  0.00  0.00    +0.000 C 
BRANCH  14  15
ATOM     15  C   UNL     1       7.918   8.169  17.722  0.00  0.00    +0.000 C 
ATOM     16  C   UNL     1       8.377   9.195  18.140  0.00  0.00    +0.000 C 
BRANCH  16  17
ATOM     17  C   UNL     1       8.931  10.420  18.607  0.00  0.00    +0.000 A 
ATOM     18  C   UNL     1       9.627  10.625  19.772  0.00  0.00    +0.000 A 
ATOM     19  N   UNL     1       9.949  11.954  19.754  0.00  0.00    +0.000 N 
ATOM     20  C   UNL     1       9.435  12.485  18.603  0.00  0.00    +0.000 A 
ATOM     21  N   UNL     1       8.810  11.578  17.888  0.00  0.00    +0.000 NA
ATOM     22  H   UNL     1      10.474  12.456  20.456  0.00  0.00    +0.000 HD
ENDBRANCH  16  17
ENDBRANCH  14  15
ENDBRANCH  13  14
ENDBRANCH   1  13
TORSDOF 5
ENDMDL
MODEL 4
REMARK VINA RESULT:      -7.3      1.805      2.573
REMARK  Name = 
REMARK  5 active torsions:
REMARK  status: ('A' for Active; 'I' for Inactive)
REMARK    1  A    between atoms: C_1  and  C_8
REMARK    2  A    between atoms: C_2  and  C_3
REMARK    3  A    between atoms: C_8  and  C_9
REMARK    4  A    between atoms: C_9  and  N_10
REMARK    5  A    between atoms: C_13  and  C_14
REMARK                            x       y       z     vdW  Elec       q    Type
REMARK                         _______ _______ _______ _____ _____    ______ ____
ROOT
ATOM      1  N   UNL     1       7.281   6.409  16.966  0.00  0.00    +0.000 NA
ATOM      2  C   UNL     1       7.296   5.022  17.452  0.00  0.00    +0.000 C 
ATOM      3  C   UNL     1       6.483   4.042  16.598  0.00  0.00    +0.000 C 
ATOM      4  C   UNL     1       5.045   4.517  16.348  0.00  0.00    +0.000 C 
ATOM      5  C   UNL     1       5.135   5.930  15.751  0.00  0.00    +0.000 C 
ATOM      6  C   UNL     1       5.920   6.884  16.655  0.00  0.00    +0.000 C 
ENDROOT
BRANCH   4   7
ATOM      7  C   UNL     1       4.083   4.399  17.532  0.00  0.00    +0.000 A 
ATOM      8  C   UNL     1       3.085   5.349  17.802  0.00  0.00    +0.000 A 
ATOM      9  C   UNL     1       2.253   5.247  18.919  0.00  0.00    +0.000 A 
ATOM     10  C   UNL     1       2.422   4.200  19.814  0.00  0.00    +0.000 A 
ATOM     11  C   UNL     1       3.407   3.246  19.578  0.00  0.00    +0.000 A 
ATOM     12  C   UNL     1       4.228   3.342  18.446  0.00  0.00    +0.000 A 
ENDBRANCH   4   7
BRANCH   1  13
ATOM     13  C   UNL     1       7.898   7.314  17.972  0.00  0.00    +0.000 C 
BRANCH  13  14
ATOM     14  C   UNL     1       7.501   8.790  17.807  0.00  0.00    +0.000 C 
BRANCH  14  15
ATOM     15  C   UNL     1       8.580   9.708  18.211  0.00  0.00    +0.000 C 
ATOM     16  C   UNL     1       9.492  10.427  18.510  0.00  0.00    +0.000 C 
BRANCH  16  17
ATOM     17  C   UNL     1      10.585  11.277  18.835  0.00  0.00    +0.000 A 
ATOM     18  C   UNL     1      11.503  11.816  17.968  0.00  0.00    +0.000 A 
ATOM     19  N   UNL     1      12.333  12.560  18.761  0.00  0.00    +0.000 N 
ATOM     20  C   UNL     1      11.893  12.433  20.050  0.00  0.00    +0.000 A 
ATOM     21  N   UNL     1      10.834  11.658  20.126  0.00  0.00    +0.000 NA
ATOM     22  H   UNL     1      13.125  13.108  18.457  0.00  0.00    +0.000 HD
ENDBRANCH  16  17
ENDBRANCH  14  15
ENDBRANCH  13  14
ENDBRANCH   1  13
TORSDOF 5
ENDMDL
MODEL 5
REMARK VINA RESULT:      -7.2      1.883      2.501
REMARK  Name = 
REMARK  5 active torsions:
REMARK  status: ('A' for Active; 'I' for Inactive)
REMARK    1  A    between atoms: C_1  and  C_8
REMARK    2  A    between atoms: C_2  and  C_3
REMARK    3  A    between atoms: C_8  and  C_9
REMARK    4  A    between atoms: C_9  and  N_10
REMARK    5  A    between atoms: C_13  and  C_14
REMARK                            x       y       z     vdW  Elec       q    Type
REMARK                         _______ _______ _______ _____ _____    ______ ____
ROOT
ATOM      1  N   UNL     1       7.231   6.301  16.762  0.00  0.00    +0.000 NA
ATOM      2  C   UNL     1       7.299   4.902  17.206  0.00  0.00    +0.000 C 
ATOM      3  C   UNL     1       6.470   3.927  16.363  0.00  0.00    +0.000 C 
ATOM      4  C   UNL     1       5.011   4.373  16.193  0.00  0.00    +0.000 C 
ATOM      5  C   UNL     1       5.042   5.804  15.633  0.00  0.00    +0.000 C 
ATOM      6  C   UNL     1       5.846   6.751  16.527  0.00  0.00    +0.000 C 
ENDROOT
BRANCH   4   7
ATOM      7  C   UNL     1       4.109   4.201  17.417  0.00  0.00    +0.000 A 
ATOM      8  C   UNL     1       4.252   3.143  18.328  0.00  0.00    +0.000 A 
ATOM      9  C   UNL     1       3.383   2.978  19.409  0.00  0.00    +0.000 A 
ATOM     10  C   UNL     1       2.324   3.858  19.586  0.00  0.00    +0.000 A 
ATOM     11  C   UNL     1       2.152   4.913  18.696  0.00  0.00    +0.000 A 
ATOM     12  C   UNL     1       3.037   5.086  17.624  0.00  0.00    +0.000 A 
ENDBRANCH   4   7
BRANCH   1  13
ATOM     13  C   UNL     1       7.873   7.193  17.764  0.00  0.00    +0.000 C 
BRANCH  13  14
ATOM     14  C   UNL     1       7.464   8.669  17.635  0.00  0.00    +0.000 C 
BRANCH  14  15
ATOM     15  C   UNL     1       8.473   9.580  18.201  0.00  0.00    +0.000 C 
ATOM     16  C   UNL     1       9.282  10.305  18.710  0.00  0.00    +0.000 C 
BRANCH  16  17
ATOM     17  C   UNL     1      10.247  11.142  19.335  0.00  0.00    +0.000 A 
ATOM     18  C   UNL     1      11.487  11.480  18.854  0.00  0.00    +0.000 A 
ATOM     19  N   UNL     1      12.018  12.303  19.810  0.00  0.00    +0.000 N 
ATOM     20  C   UNL     1      11.093  12.417  20.812  0.00  0.00    +0.000 A 
ATOM     21  N   UNL     1      10.009  11.721  20.552  0.00  0.00    +0.000 NA
ATOM     22  H   UNL     1      12.922  12.752  19.784  0.00  0.00    +0.000 HD
ENDBRANCH  16  17
ENDBRANCH  14  15
ENDBRANCH  13  14
ENDBRANCH   1  13
TORSDOF 5
ENDMDL
MODEL 6
REMARK VINA RESULT:      -7.2      2.110      3.180
REMARK  Name = 
REMARK  5 active torsions:
REMARK  status: ('A' for Active; 'I' for Inactive)
REMARK    1  A    between atoms: C_1  and  C_8
REMARK    2  A    between atoms: C_2  and  C_3
REMARK    3  A    between atoms: C_8  and  C_9
REMARK    4  A    between atoms: C_9  and  N_10
REMARK    5  A    between atoms: C_13  and  C_14
REMARK                            x       y       z     vdW  Elec       q    Type
REMARK                         _______ _______ _______ _____ _____    ______ ____
ROOT
ATOM      1  N   UNL     1       5.316   5.848  17.474  0.00  0.00    +0.000 NA
ATOM      2  C   UNL     1       5.413   4.382  17.495  0.00  0.00    +0.000 C 
ATOM      3  C   UNL     1       4.165   3.657  16.979  0.00  0.00    +0.000 C 
ATOM      4  C   UNL     1       2.874   4.126  17.664  0.00  0.00    +0.000 C 
ATOM      5  C   UNL     1       2.811   5.653  17.504  0.00  0.00    +0.000 C 
ATOM      6  C   UNL     1       4.058   6.339  18.069  0.00  0.00    +0.000 C 
ENDROOT
BRANCH   4   7
ATOM      7  C   UNL     1       2.658   3.638  19.098  0.00  0.00    +0.000 A 
ATOM      8  C   UNL     1       3.584   2.831  19.777  0.00  0.00    +0.000 A 
ATOM      9  C   UNL     1       3.340   2.356  21.067  0.00  0.00    +0.000 A 
ATOM     10  C   UNL     1       2.141   2.655  21.700  0.00  0.00    +0.000 A 
ATOM     11  C   UNL     1       1.201   3.447  21.050  0.00  0.00    +0.000 A 
ATOM     12  C   UNL     1       1.457   3.937  19.763  0.00  0.00    +0.000 A 
ENDBRANCH   4   7
BRANCH   1  13
ATOM     13  C   UNL     1       6.468   6.452  18.197  0.00  0.00    +0.000 C 
BRANCH  13  14
ATOM     14  C   UNL     1       7.511   7.099  17.274  0.00  0.00    +0.000 C 
BRANCH  14  15
ATOM     15  C   UNL     1       8.031   8.366  17.818  0.00  0.00    +0.000 C 
ATOM     16  C   UNL     1       8.499   9.372  18.271  0.00  0.00    +0.000 C 
BRANCH  16  17
ATOM     17  C   UNL     1       9.083  10.558  18.796  0.00  0.00    +0.000 A 
ATOM     18  C   UNL     1       9.642  10.728  20.039  0.00  0.00    +0.000 A 
ATOM     19  N   UNL     1      10.065  12.029  20.053  0.00  0.00    +0.000 N 
ATOM     20  C   UNL     1       9.742  12.579  18.843  0.00  0.00    +0.000 A 
ATOM     21  N   UNL     1       9.143  11.710  18.060  0.00  0.00    +0.000 NA
ATOM     22  H   UNL     1      10.535  12.501  20.812  0.00  0.00    +0.000 HD
ENDBRANCH  16  17
ENDBRANCH  14  15
ENDBRANCH  13  14
ENDBRANCH   1  13
TORSDOF 5
ENDMDL
MODEL 7
REMARK VINA RESULT:      -7.2      0.898      1.454
REMARK  Name = 
REMARK  5 active torsions:
REMARK  status: ('A' for Active; 'I' for Inactive)
REMARK    1  A    between atoms: C_1  and  C_8
REMARK    2  A    between atoms: C_2  and  C_3
REMARK    3  A    between atoms: C_8  and  C_9
REMARK    4  A    between atoms: C_9  and  N_10
REMARK    5  A    between atoms: C_13  and  C_14
REMARK                            x       y       z     vdW  Elec       q    Type
REMARK                         _______ _______ _______ _____ _____    ______ ____
ROOT
ATOM      1  N   UNL     1       6.133   5.262  18.257  0.00  0.00    +0.000 NA
ATOM      2  C   UNL     1       5.409   5.133  19.529  0.00  0.00    +0.000 C 
ATOM      3  C   UNL     1       4.036   4.460  19.412  0.00  0.00    +0.000 C 
ATOM      4  C   UNL     1       3.144   5.102  18.341  0.00  0.00    +0.000 C 
ATOM      5  C   UNL     1       3.946   5.102  17.030  0.00  0.00    +0.000 C 
ATOM      6  C   UNL     1       5.290   5.819  17.182  0.00  0.00    +0.000 C 
ENDROOT
BRANCH   4   7
ATOM      7  C   UNL     1       2.533   6.458  18.699  0.00  0.00    +0.000 A 
ATOM      8  C   UNL     1       2.413   7.510  17.777  0.00  0.00    +0.000 A 
ATOM      9  C   UNL     1       1.899   8.755  18.142  0.00  0.00    +0.000 A 
ATOM     10  C   UNL     1       1.518   8.989  19.456  0.00  0.00    +0.000 A 
ATOM     11  C   UNL     1       1.631   7.969  20.395  0.00  0.00    +0.000 A 
ATOM     12  C   UNL     1       2.131   6.715  20.021  0.00  0.00    +0.000 A 
ENDBRANCH   4   7
BRANCH   1  13
ATOM     13  C   UNL     1       7.335   6.121  18.432  0.00  0.00    +0.000 C 
BRANCH  13  14
ATOM     14  C   UNL     1       7.509   7.178  17.331  0.00  0.00    +0.000 C 
BRANCH  14  15
ATOM     15  C   UNL     1       8.108   8.424  17.842  0.00  0.00    +0.000 C 
ATOM     16  C   UNL     1       8.552   9.444  18.287  0.00  0.00    +0.000 C 
BRANCH  16  17
ATOM     17  C   UNL     1       9.068  10.647  18.845  0.00  0.00    +0.000 A 
ATOM     18  C   UNL     1       9.186  11.865  18.223  0.00  0.00    +0.000 A 
ATOM     19  N   UNL     1       9.722  12.690  19.175  0.00  0.00    +0.000 N 
ATOM     20  C   UNL     1       9.908  11.943  20.306  0.00  0.00    +0.000 A 
ATOM     21  N   UNL     1       9.522  10.699  20.134  0.00  0.00    +0.000 NA
ATOM     22  H   UNL     1       9.938  13.670  19.069  0.00  0.00    +0.000 HD
ENDBRANCH  16  17
ENDBRANCH  14  15
ENDBRANCH  13  14
ENDBRANCH   1  13
TORSDOF 5
ENDMDL
MODEL 8
REMARK VINA RESULT:      -7.2      3.272      5.390
REMARK  Name = 
REMARK  5 active torsions:
REMARK  status: ('A' for Active; 'I' for Inactive)
REMARK    1  A    between atoms: C_1  and  C_8
REMARK    2  A    between atoms: C_2  and  C_3
REMARK    3  A    between atoms: C_8  and  C_9
REMARK    4  A    between atoms: C_9  and  N_10
REMARK    5  A    between atoms: C_13  and  C_14
REMARK                            x       y       z     vdW  Elec       q    Type
REMARK                         _______ _______ _______ _____ _____    ______ ____
ROOT
ATOM      1  N   UNL     1       2.740   1.889  19.410  0.00  0.00    +0.000 NA
ATOM      2  C   UNL     1       3.377   2.758  20.409  0.00  0.00    +0.000 C 
ATOM      3  C   UNL     1       2.403   3.405  21.400  0.00  0.00    +0.000 C 
ATOM      4  C   UNL     1       1.241   4.132  20.709  0.00  0.00    +0.000 C 
ATOM      5  C   UNL     1       0.577   3.119  19.763  0.00  0.00    +0.000 C 
ATOM      6  C   UNL     1       1.577   2.528  18.765  0.00  0.00    +0.000 C 
ENDROOT
BRANCH   4   7
ATOM      7  C   UNL     1       1.581   5.471  20.052  0.00  0.00    +0.000 A 
ATOM      8  C   UNL     1       2.140   5.571  18.768  0.00  0.00    +0.000 A 
ATOM      9  C   UNL     1       2.490   6.803  18.211  0.00  0.00    +0.000 A 
ATOM     10  C   UNL     1       2.313   7.969  18.943  0.00  0.00    +0.000 A 
ATOM     11  C   UNL     1       1.767   7.901  20.220  0.00  0.00    +0.000 A 
ATOM     12  C   UNL     1       1.401   6.666  20.769  0.00  0.00    +0.000 A 
ENDBRANCH   4   7
BRANCH   1  13
ATOM     13  C   UNL     1       3.723   1.495  18.366  0.00  0.00    +0.000 C 
BRANCH  13  14
ATOM     14  C   UNL     1       3.757   2.440  17.155  0.00  0.00    +0.000 C 
BRANCH  14  15
ATOM     15  C   UNL     1       4.727   3.535  17.327  0.00  0.00    +0.000 C 
ATOM     16  C   UNL     1       5.493   4.439  17.513  0.00  0.00    +0.000 C 
BRANCH  16  17
ATOM     17  C   UNL     1       6.403   5.503  17.765  0.00  0.00    +0.000 A 
ATOM     18  C   UNL     1       7.400   5.537  18.708  0.00  0.00    +0.000 A 
ATOM     19  N   UNL     1       7.991   6.760  18.544  0.00  0.00    +0.000 N 
ATOM     20  C   UNL     1       7.330   7.403  17.533  0.00  0.00    +0.000 A 
ATOM     21  N   UNL     1       6.360   6.665  17.043  0.00  0.00    +0.000 NA
ATOM     22  H   UNL     1       8.774   7.125  19.067  0.00  0.00    +0.000 HD
ENDBRANCH  16  17
ENDBRANCH  14  15
ENDBRANCH  13  14
ENDBRANCH   1  13
TORSDOF 5
ENDMDL
MODEL 9
REMARK VINA RESULT:      -7.2      2.479      4.613
REMARK  Name = 
REMARK  5 active torsions:
REMARK  status: ('A' for Active; 'I' for Inactive)
REMARK    1  A    between atoms: C_1  and  C_8
REMARK    2  A    between atoms: C_2  and  C_3
REMARK    3  A    between atoms: C_8  and  C_9
REMARK    4  A    between atoms: C_9  and  N_10
REMARK    5  A    between atoms: C_13  and  C_14
REMARK                            x       y       z     vdW  Elec       q    Type
REMARK                         _______ _______ _______ _____ _____    ______ ____
ROOT
ATOM      1  N   UNL     1       6.661   6.126  17.938  0.00  0.00    +0.000 NA
ATOM      2  C   UNL     1       5.830   6.730  16.887  0.00  0.00    +0.000 C 
ATOM      3  C   UNL     1       4.706   5.826  16.370  0.00  0.00    +0.000 C 
ATOM      4  C   UNL     1       5.203   4.439  15.940  0.00  0.00    +0.000 C 
ATOM      5  C   UNL     1       5.972   3.848  17.132  0.00  0.00    +0.000 C 
ATOM      6  C   UNL     1       7.110   4.765  17.590  0.00  0.00    +0.000 C 
ENDROOT
BRANCH   4   7
ATOM      7  C   UNL     1       5.965   4.378  14.614  0.00  0.00    +0.000 A 
ATOM      8  C   UNL     1       7.105   5.154  14.353  0.00  0.00    +0.000 A 
ATOM      9  C   UNL     1       7.752   5.120  13.116  0.00  0.00    +0.000 A 
ATOM     10  C   UNL     1       7.252   4.324  12.095  0.00  0.00    +0.000 A 
ATOM     11  C   UNL     1       6.119   3.548  12.321  0.00  0.00    +0.000 A 
ATOM     12  C   UNL     1       5.483   3.572  13.569  0.00  0.00    +0.000 A 
ENDBRANCH   4   7
BRANCH   1  13
ATOM     13  C   UNL     1       7.850   6.978  18.210  0.00  0.00    +0.000 C 
BRANCH  13  14
ATOM     14  C   UNL     1       7.797   8.355  17.530  0.00  0.00    +0.000 C 
BRANCH  14  15
ATOM     15  C   UNL     1       8.522   9.385  18.293  0.00  0.00    +0.000 C 
ATOM     16  C   UNL     1       9.157  10.200  18.902  0.00  0.00    +0.000 C 
BRANCH  16  17
ATOM     17  C   UNL     1       9.933  11.166  19.600  0.00  0.00    +0.000 A 
ATOM     18  C   UNL     1       9.538  11.932  20.668  0.00  0.00    +0.000 A 
ATOM     19  N   UNL     1      10.636  12.687  20.979  0.00  0.00    +0.000 N 
ATOM     20  C   UNL     1      11.626  12.355  20.094  0.00  0.00    +0.000 A 
ATOM     21  N   UNL     1      11.226  11.436  19.244  0.00  0.00    +0.000 NA
ATOM     22  H   UNL     1      10.711  13.363  21.725  0.00  0.00    +0.000 HD
ENDBRANCH  16  17
ENDBRANCH  14  15
ENDBRANCH  13  14
ENDBRANCH   1  13
TORSDOF 5
ENDMDL
