MODEL 1
REMARK VINA RESULT:      -7.1      0.000      0.000
REMARK  Name = 
REMARK  8 active torsions:
REMARK  status: ('A' for Active; 'I' for Inactive)
REMARK    1  A    between atoms: C_1  and  C_2
REMARK    2  A    between atoms: C_2  and  N_3
REMARK    3  A    between atoms: N_3  and  C_4
REMARK    4  A    between atoms: N_3  and  C_6
REMARK    5  A    between atoms: C_4  and  C_5
REMARK    6  A    between atoms: C_6  and  C_7
REMARK    7  A    between atoms: C_7  and  N_8
REMARK    8  A    between atoms: C_21  and  N_22
REMARK                            x       y       z     vdW  Elec       q    Type
REMARK                         _______ _______ _______ _____ _____    ______ ____
ROOT
ATOM      1  N   UNL     1       7.245   6.350  17.505  0.00  0.00    +0.000 NA
ATOM      2  C   UNL     1       6.826   5.133  18.206  0.00  0.00    +0.000 C 
ATOM      3  C   UNL     1       5.644   5.375  19.138  0.00  0.00    +0.000 C 
ATOM      4  C   UNL     1       4.415   5.931  18.373  0.00  0.00    +0.000 C 
ATOM      5  C   UNL     1       4.834   7.090  17.442  0.00  0.00    +0.000 C 
ATOM      6  C   UNL     1       6.137   6.837  16.679  0.00  0.00    +0.000 C 
ATOM      7  O   UNL     1       3.900   4.833  17.543  0.00  0.00    +0.000 OA
ATOM      8  C   UNL     1       2.896   4.274  18.292  0.00  0.00    +0.000 A 
ATOM      9  C   UNL     1       2.291   3.068  18.005  0.00  0.00    +0.000 A 
ATOM     10  C   UNL     1       1.281   2.621  18.861  0.00  0.00    +0.000 A 
ATOM     11  C   UNL     1       0.898   3.384  19.976  0.00  0.00    +0.000 A 
ATOM     12  C   UNL     1       1.515   4.607  20.245  0.00  0.00    +0.000 A 
ATOM     13  C   UNL     1       2.513   5.036  19.387  0.00  0.00    +0.000 A 
ATOM     14  C   UNL     1       3.292   6.308  19.394  0.00  0.00    +0.000 C 
ENDROOT
BRANCH  14  15
ATOM     15  N   UNL     1       2.431   7.439  19.072  0.00  0.00    +0.000 N 
ATOM     16  C   UNL     1       2.173   7.876  17.790  0.00  0.00    +0.000 A 
ATOM     17  C   UNL     1       1.395   9.007  17.870  0.00  0.00    +0.000 A 
ATOM     18  C   UNL     1       1.154   9.261  19.239  0.00  0.00    +0.000 A 
ATOM     19  C   UNL     1       1.801   8.280  19.957  0.00  0.00    +0.000 A 
ENDBRANCH  14  15
BRANCH   1  20
ATOM     20  C   UNL     1       7.852   7.392  18.367  0.00  0.00    +0.000 C 
BRANCH  20  21
ATOM     21  C   UNL     1       8.008   8.731  17.596  0.00  0.00    +0.000 C 
BRANCH  21  22
ATOM     22  N   UNL     1       8.258   9.976  18.361  0.00  0.00    +0.000 NA
BRANCH  22  24
ATOM     23  C   UNL     1       9.512  10.764  20.440  0.00  0.00    +0.000 C 
ATOM     24  C   UNL     1       9.103   9.618  19.524  0.00  0.00    +0.000 C 
ENDBRANCH  22  24
BRANCH  22  25
ATOM     25  C   UNL     1       8.807  11.070  17.547  0.00  0.00    +0.000 C 
ATOM     26  C   UNL     1       7.953  12.329  17.443  0.00  0.00    +0.000 C 
ENDBRANCH  22  25
ENDBRANCH  21  22
ENDBRANCH  20  21
ENDBRANCH   1  20
TORSDOF 6
ENDMDL
MODEL 2
REMARK VINA RESULT:      -7.0      0.499      1.242
REMARK  Name = 
REMARK  8 active torsions:
REMARK  status: ('A' for Active; 'I' for Inactive)
REMARK    1  A    between atoms: C_1  and  C_2
REMARK    2  A    between atoms: C_2  and  N_3
REMARK    3  A    between atoms: N_3  and  C_4
REMARK    4  A    between atoms: N_3  and  C_6
REMARK    5  A    between atoms: C_4  and  C_5
REMARK    6  A    between atoms: C_6  and  C_7
REMARK    7  A    between atoms: C_7  and  N_8
REMARK    8  A    between atoms: C_21  and  N_22
REMARK                            x       y       z     vdW  Elec       q    Type
REMARK                         _______ _______ _______ _____ _____    ______ ____
ROOT
ATOM      1  N   UNL     1       7.461   6.458  17.574  0.00  0.00    +0.000 NA
ATOM      2  C   UNL     1       7.046   5.170  18.135  0.00  0.00    +0.000 C 
ATOM      3  C   UNL     1       5.825   5.295  19.040  0.00  0.00    +0.000 C 
ATOM      4  C   UNL     1       4.612   5.900  18.287  0.00  0.00    +0.000 C 
ATOM      5  C   UNL     1       5.037   7.153  17.492  0.00  0.00    +0.000 C 
ATOM      6  C   UNL     1       6.372   7.004  16.758  0.00  0.00    +0.000 C 
ATOM      7  O   UNL     1       4.154   4.879  17.334  0.00  0.00    +0.000 OA
ATOM      8  C   UNL     1       3.136   4.229  17.985  0.00  0.00    +0.000 A 
ATOM      9  C   UNL     1       2.571   3.045  17.557  0.00  0.00    +0.000 A 
ATOM     10  C   UNL     1       1.542   2.495  18.327  0.00  0.00    +0.000 A 
ATOM     11  C   UNL     1       1.100   3.136  19.496  0.00  0.00    +0.000 A 
ATOM     12  C   UNL     1       1.678   4.338  19.907  0.00  0.00    +0.000 A 
ATOM     13  C   UNL     1       2.697   4.870  19.134  0.00  0.00    +0.000 A 
ATOM     14  C   UNL     1       3.445   6.151  19.296  0.00  0.00    +0.000 C 
ENDROOT
BRANCH  14  15
ATOM     15  N   UNL     1       2.569   7.290  19.055  0.00  0.00    +0.000 N 
ATOM     16  C   UNL     1       2.327   7.830  17.810  0.00  0.00    +0.000 A 
ATOM     17  C   UNL     1       1.527   8.938  17.970  0.00  0.00    +0.000 A 
ATOM     18  C   UNL     1       1.257   9.070  19.350  0.00  0.00    +0.000 A 
ATOM     19  C   UNL     1       1.908   8.043  19.995  0.00  0.00    +0.000 A 
ENDBRANCH  14  15
BRANCH   1  20
ATOM     20  C   UNL     1       8.011   7.422  18.558  0.00  0.00    +0.000 C 
BRANCH  20  21
ATOM     21  C   UNL     1       8.174   8.831  17.925  0.00  0.00    +0.000 C 
BRANCH  21  22
ATOM     22  N   UNL     1       9.102   9.800  18.557  0.00  0.00    +0.000 NA
BRANCH  22  24
ATOM     23  C   UNL     1      10.175  11.878  17.533  0.00  0.00    +0.000 C 
ATOM     24  C   UNL     1       8.910  11.103  17.878  0.00  0.00    +0.000 C 
ENDBRANCH  22  24
BRANCH  22  25
ATOM     25  C   UNL     1       8.974   9.871  20.019  0.00  0.00    +0.000 C 
ATOM     26  C   UNL     1       9.484  11.147  20.680  0.00  0.00    +0.000 C 
ENDBRANCH  22  25
ENDBRANCH  21  22
ENDBRANCH  20  21
ENDBRANCH   1  20
TORSDOF 6
ENDMDL
MODEL 3
REMARK VINA RESULT:      -6.3      5.740      8.306
REMARK  Name = 
REMARK  8 active torsions:
REMARK  status: ('A' for Active; 'I' for Inactive)
REMARK    1  A    between atoms: C_1  and  C_2
REMARK    2  A    between atoms: C_2  and  N_3
REMARK    3  A    between atoms: N_3  and  C_4
REMARK    4  A    between atoms: N_3  and  C_6
REMARK    5  A    between atoms: C_4  and  C_5
REMARK    6  A    between atoms: C_6  and  C_7
REMARK    7  A    between atoms: C_7  and  N_8
REMARK    8  A    between atoms: C_21  and  N_22
REMARK                            x       y       z     vdW  Elec       q    Type
REMARK                         _______ _______ _______ _____ _____    ______ ____
ROOT
ATOM      1  N   UNL     1       0.659  15.261  20.277  0.00  0.00    +0.000 NA
ATOM      2  C   UNL     1      -0.166  15.089  19.077  0.00  0.00    +0.000 C 
ATOM      3  C   UNL     1      -0.029  13.698  18.470  0.00  0.00    +0.000 C 
ATOM      4  C   UNL     1      -0.423  12.589  19.481  0.00  0.00    +0.000 C 
ATOM      5  C   UNL     1       0.252  12.837  20.847  0.00  0.00    +0.000 C 
ATOM      6  C   UNL     1       0.232  14.299  21.298  0.00  0.00    +0.000 C 
ATOM      7  O   UNL     1      -1.879  12.678  19.660  0.00  0.00    +0.000 OA
ATOM      8  C   UNL     1      -2.392  11.750  18.789  0.00  0.00    +0.000 A 
ATOM      9  C   UNL     1      -3.727  11.654  18.453  0.00  0.00    +0.000 A 
ATOM     10  C   UNL     1      -4.104  10.658  17.548  0.00  0.00    +0.000 A 
ATOM     11  C   UNL     1      -3.149   9.785  17.004  0.00  0.00    +0.000 A 
ATOM     12  C   UNL     1      -1.805   9.891  17.364  0.00  0.00    +0.000 A 
ATOM     13  C   UNL     1      -1.446  10.882  18.262  0.00  0.00    +0.000 A 
ATOM     14  C   UNL     1      -0.115  11.187  18.862  0.00  0.00    +0.000 C 
ENDROOT
BRANCH  14  15
ATOM     15  N   UNL     1       0.297  10.120  19.765  0.00  0.00    +0.000 N 
ATOM     16  C   UNL     1       1.334   9.248  19.511  0.00  0.00    +0.000 A 
ATOM     17  C   UNL     1       1.382   8.328  20.533  0.00  0.00    +0.000 A 
ATOM     18  C   UNL     1       0.356   8.656  21.448  0.00  0.00    +0.000 A 
ATOM     19  C   UNL     1      -0.295   9.763  20.953  0.00  0.00    +0.000 A 
ENDBRANCH  14  15
BRANCH   1  20
ATOM     20  C   UNL     1       2.122  15.266  20.036  0.00  0.00    +0.000 C 
BRANCH  20  21
ATOM     21  C   UNL     1       2.675  16.717  20.003  0.00  0.00    +0.000 C 
BRANCH  21  22
ATOM     22  N   UNL     1       3.413  17.177  18.802  0.00  0.00    +0.000 NA
BRANCH  22  24
ATOM     23  C   UNL     1       5.747  17.490  19.788  0.00  0.00    +0.000 C 
ATOM     24  C   UNL     1       4.802  16.673  18.916  0.00  0.00    +0.000 C 
ENDBRANCH  22  24
BRANCH  22  25
ATOM     25  C   UNL     1       2.758  16.823  17.535  0.00  0.00    +0.000 C 
ATOM     26  C   UNL     1       1.740  17.822  16.998  0.00  0.00    +0.000 C 
ENDBRANCH  22  25
ENDBRANCH  21  22
ENDBRANCH  20  21
ENDBRANCH   1  20
TORSDOF 6
ENDMDL
MODEL 4
REMARK VINA RESULT:      -6.2      5.411      8.077
REMARK  Name = 
REMARK  8 active torsions:
REMARK  status: ('A' for Active; 'I' for Inactive)
REMARK    1  A    between atoms: C_1  and  C_2
REMARK    2  A    between atoms: C_2  and  N_3
REMARK    3  A    between atoms: N_3  and  C_4
REMARK    4  A    between atoms: N_3  and  C_6
REMARK    5  A    between atoms: C_4  and  C_5
REMARK    6  A    between atoms: C_6  and  C_7
REMARK    7  A    between atoms: C_7  and  N_8
REMARK    8  A    between atoms: C_21  and  N_22
REMARK                            x       y       z     vdW  Elec       q    Type
REMARK                         _______ _______ _______ _____ _____    ______ ____
ROOT
ATOM      1  N   UNL     1       0.809  15.024  20.601  0.00  0.00    +0.000 NA
ATOM      2  C   UNL     1       0.012  14.952  19.373  0.00  0.00    +0.000 C 
ATOM      3  C   UNL     1       0.124  13.595  18.685  0.00  0.00    +0.000 C 
ATOM      4  C   UNL     1      -0.329  12.441  19.617  0.00  0.00    +0.000 C 
ATOM      5  C   UNL     1       0.316  12.584  21.012  0.00  0.00    +0.000 C 
ATOM      6  C   UNL     1       0.327  14.017  21.551  0.00  0.00    +0.000 C 
ATOM      7  O   UNL     1      -1.786  12.564  19.765  0.00  0.00    +0.000 OA
ATOM      8  C   UNL     1      -2.303  11.706  18.827  0.00  0.00    +0.000 A 
ATOM      9  C   UNL     1      -3.631  11.672  18.452  0.00  0.00    +0.000 A 
ATOM     10  C   UNL     1      -4.013  10.745  17.479  0.00  0.00    +0.000 A 
ATOM     11  C   UNL     1      -3.070   9.877  16.906  0.00  0.00    +0.000 A 
ATOM     12  C   UNL     1      -1.733   9.919  17.305  0.00  0.00    +0.000 A 
ATOM     13  C   UNL     1      -1.369  10.843  18.271  0.00  0.00    +0.000 A 
ATOM     14  C   UNL     1      -0.046  11.069  18.921  0.00  0.00    +0.000 C 
ENDROOT
BRANCH  14  15
ATOM     15  N   UNL     1       0.309   9.938  19.767  0.00  0.00    +0.000 N 
ATOM     16  C   UNL     1      -0.402   9.552  20.884  0.00  0.00    +0.000 A 
ATOM     17  C   UNL     1       0.266   8.507  21.479  0.00  0.00    +0.000 A 
ATOM     18  C   UNL     1       1.410   8.233  20.696  0.00  0.00    +0.000 A 
ATOM     19  C   UNL     1       1.412   9.127  19.648  0.00  0.00    +0.000 A 
ENDBRANCH  14  15
BRANCH   1  20
ATOM     20  C   UNL     1       2.277  14.998  20.397  0.00  0.00    +0.000 C 
BRANCH  20  21
ATOM     21  C   UNL     1       2.813  16.409  20.028  0.00  0.00    +0.000 C 
BRANCH  21  22
ATOM     22  N   UNL     1       3.722  16.551  18.866  0.00  0.00    +0.000 NA
BRANCH  22  24
ATOM     23  C   UNL     1       5.444  14.821  18.117  0.00  0.00    +0.000 C 
ATOM     24  C   UNL     1       4.960  15.800  19.180  0.00  0.00    +0.000 C 
ENDBRANCH  22  24
BRANCH  22  25
ATOM     25  C   UNL     1       3.109  16.170  17.586  0.00  0.00    +0.000 C 
ATOM     26  C   UNL     1       2.538  17.307  16.745  0.00  0.00    +0.000 C 
ENDBRANCH  22  25
ENDBRANCH  21  22
ENDBRANCH  20  21
ENDBRANCH   1  20
TORSDOF 6
ENDMDL
MODEL 5
REMARK VINA RESULT:      -6.2      5.570      8.059
REMARK  Name = 
REMARK  8 active torsions:
REMARK  status: ('A' for Active; 'I' for Inactive)
REMARK    1  A    between atoms: C_1  and  C_2
REMARK    2  A    between atoms: C_2  and  N_3
REMARK    3  A    between atoms: N_3  and  C_4
REMARK    4  A    between atoms: N_3  and  C_6
REMARK    5  A    between atoms: C_4  and  C_5
REMARK    6  A    between atoms: C_6  and  C_7
REMARK    7  A    between atoms: C_7  and  N_8
REMARK    8  A    between atoms: C_21  and  N_22
REMARK                            x       y       z     vdW  Elec       q    Type
REMARK                         _______ _______ _______ _____ _____    ______ ____
ROOT
ATOM      1  N   UNL     1       0.939  14.921  20.662  0.00  0.00    +0.000 NA
ATOM      2  C   UNL     1       0.198  14.854  19.399  0.00  0.00    +0.000 C 
ATOM      3  C   UNL     1       0.293  13.482  18.740  0.00  0.00    +0.000 C 
ATOM      4  C   UNL     1      -0.245  12.361  19.668  0.00  0.00    +0.000 C 
ATOM      5  C   UNL     1       0.340  12.508  21.090  0.00  0.00    +0.000 C 
ATOM      6  C   UNL     1       0.377  13.948  21.604  0.00  0.00    +0.000 C 
ATOM      7  O   UNL     1      -1.702  12.538  19.745  0.00  0.00    +0.000 OA
ATOM      8  C   UNL     1      -2.205  11.683  18.798  0.00  0.00    +0.000 A 
ATOM      9  C   UNL     1      -3.514  11.688  18.362  0.00  0.00    +0.000 A 
ATOM     10  C   UNL     1      -3.884  10.758  17.387  0.00  0.00    +0.000 A 
ATOM     11  C   UNL     1      -2.947   9.846  16.874  0.00  0.00    +0.000 A 
ATOM     12  C   UNL     1      -1.629   9.849  17.335  0.00  0.00    +0.000 A 
ATOM     13  C   UNL     1      -1.278  10.777  18.301  0.00  0.00    +0.000 A 
ATOM     14  C   UNL     1       0.021  10.968  19.010  0.00  0.00    +0.000 C 
ENDROOT
BRANCH  14  15
ATOM     15  N   UNL     1       0.295   9.840  19.891  0.00  0.00    +0.000 N 
ATOM     16  C   UNL     1      -0.507   9.471  20.949  0.00  0.00    +0.000 A 
ATOM     17  C   UNL     1       0.100   8.425  21.605  0.00  0.00    +0.000 A 
ATOM     18  C   UNL     1       1.300   8.133  20.918  0.00  0.00    +0.000 A 
ATOM     19  C   UNL     1       1.395   9.017  19.867  0.00  0.00    +0.000 A 
ENDBRANCH  14  15
BRANCH   1  20
ATOM     20  C   UNL     1       2.414  14.839  20.528  0.00  0.00    +0.000 C 
BRANCH  20  21
ATOM     21  C   UNL     1       2.942  15.908  19.532  0.00  0.00    +0.000 C 
BRANCH  21  22
ATOM     22  N   UNL     1       3.981  15.522  18.548  0.00  0.00    +0.000 NA
BRANCH  22  24
ATOM     23  C   UNL     1       2.647  17.141  17.093  0.00  0.00    +0.000 C 
ATOM     24  C   UNL     1       3.461  15.858  17.202  0.00  0.00    +0.000 C 
ENDBRANCH  22  24
BRANCH  22  25
ATOM     25  C   UNL     1       5.304  16.095  18.830  0.00  0.00    +0.000 C 
ATOM     26  C   UNL     1       5.339  17.263  19.810  0.00  0.00    +0.000 C 
ENDBRANCH  22  25
ENDBRANCH  21  22
ENDBRANCH  20  21
ENDBRANCH   1  20
TORSDOF 6
ENDMDL
MODEL 6
REMARK VINA RESULT:      -6.0      5.857      8.761
REMARK  Name = 
REMARK  8 active torsions:
REMARK  status: ('A' for Active; 'I' for Inactive)
REMARK    1  A    between atoms: C_1  and  C_2
REMARK    2  A    between atoms: C_2  and  N_3
REMARK    3  A    between atoms: N_3  and  C_4
REMARK    4  A    between atoms: N_3  and  C_6
REMARK    5  A    between atoms: C_4  and  C_5
REMARK    6  A    between atoms: C_6  and  C_7
REMARK    7  A    between atoms: C_7  and  N_8
REMARK    8  A    between atoms: C_21  and  N_22
REMARK                            x       y       z     vdW  Elec       q    Type
REMARK                         _______ _______ _______ _____ _____    ______ ____
ROOT
ATOM      1  N   UNL     1      -0.065  15.126  21.061  0.00  0.00    +0.000 NA
ATOM      2  C   UNL     1      -0.754  15.057  19.768  0.00  0.00    +0.000 C 
ATOM      3  C   UNL     1      -0.431  13.779  19.003  0.00  0.00    +0.000 C 
ATOM      4  C   UNL     1      -0.814  12.513  19.814  0.00  0.00    +0.000 C 
ATOM      5  C   UNL     1      -0.297  12.622  21.265  0.00  0.00    +0.000 C 
ATOM      6  C   UNL     1      -0.496  14.001  21.897  0.00  0.00    +0.000 C 
ATOM      7  O   UNL     1      -2.282  12.460  19.849  0.00  0.00    +0.000 OA
ATOM      8  C   UNL     1      -2.623  11.624  18.815  0.00  0.00    +0.000 A 
ATOM      9  C   UNL     1      -3.905  11.469  18.330  0.00  0.00    +0.000 A 
ATOM     10  C   UNL     1      -4.101  10.582  17.268  0.00  0.00    +0.000 A 
ATOM     11  C   UNL     1      -3.022   9.871  16.720  0.00  0.00    +0.000 A 
ATOM     12  C   UNL     1      -1.733  10.033  17.231  0.00  0.00    +0.000 A 
ATOM     13  C   UNL     1      -1.554  10.916  18.283  0.00  0.00    +0.000 A 
ATOM     14  C   UNL     1      -0.320  11.239  19.055  0.00  0.00    +0.000 C 
ENDROOT
BRANCH  14  15
ATOM     15  N   UNL     1       0.102  10.093  19.851  0.00  0.00    +0.000 N 
ATOM     16  C   UNL     1      -0.567   9.636  20.966  0.00  0.00    +0.000 A 
ATOM     17  C   UNL     1       0.158   8.600  21.508  0.00  0.00    +0.000 A 
ATOM     18  C   UNL     1       1.295   8.405  20.692  0.00  0.00    +0.000 A 
ATOM     19  C   UNL     1       1.236   9.336  19.679  0.00  0.00    +0.000 A 
ENDBRANCH  14  15
BRANCH   1  20
ATOM     20  C   UNL     1       1.407  15.281  20.979  0.00  0.00    +0.000 C 
BRANCH  20  21
ATOM     21  C   UNL     1       1.789  16.662  20.378  0.00  0.00    +0.000 C 
BRANCH  21  22
ATOM     22  N   UNL     1       1.944  16.788  18.909  0.00  0.00    +0.000 NA
BRANCH  22  24
ATOM     23  C   UNL     1       1.036  18.245  17.020  0.00  0.00    +0.000 C 
ATOM     24  C   UNL     1       1.314  18.067  18.507  0.00  0.00    +0.000 C 
ENDBRANCH  22  24
BRANCH  22  25
ATOM     25  C   UNL     1       3.332  16.642  18.448  0.00  0.00    +0.000 C 
ATOM     26  C   UNL     1       3.624  15.443  17.553  0.00  0.00    +0.000 C 
ENDBRANCH  22  25
ENDBRANCH  21  22
ENDBRANCH  20  21
ENDBRANCH   1  20
TORSDOF 6
ENDMDL
MODEL 7
REMARK VINA RESULT:      -6.0      1.332      2.102
REMARK  Name = 
REMARK  8 active torsions:
REMARK  status: ('A' for Active; 'I' for Inactive)
REMARK    1  A    between atoms: C_1  and  C_2
REMARK    2  A    between atoms: C_2  and  N_3
REMARK    3  A    between atoms: N_3  and  C_4
REMARK    4  A    between atoms: N_3  and  C_6
REMARK    5  A    between atoms: C_4  and  C_5
REMARK    6  A    between atoms: C_6  and  C_7
REMARK    7  A    between atoms: C_7  and  N_8
REMARK    8  A    between atoms: C_21  and  N_22
REMARK                            x       y       z     vdW  Elec       q    Type
REMARK                         _______ _______ _______ _____ _____    ______ ____
ROOT
ATOM      1  N   UNL     1       6.365   4.769  15.841  0.00  0.00    +0.000 NA
ATOM      2  C   UNL     1       5.961   3.678  16.734  0.00  0.00    +0.000 C 
ATOM      3  C   UNL     1       5.291   4.185  18.006  0.00  0.00    +0.000 C 
ATOM      4  C   UNL     1       4.032   5.034  17.693  0.00  0.00    +0.000 C 
ATOM      5  C   UNL     1       4.339   6.072  16.591  0.00  0.00    +0.000 C 
ATOM      6  C   UNL     1       5.177   5.524  15.434  0.00  0.00    +0.000 C 
ATOM      7  O   UNL     1       3.011   4.107  17.185  0.00  0.00    +0.000 OA
ATOM      8  C   UNL     1       2.249   3.796  18.283  0.00  0.00    +0.000 A 
ATOM      9  C   UNL     1       1.319   2.777  18.320  0.00  0.00    +0.000 A 
ATOM     10  C   UNL     1       0.618   2.574  19.512  0.00  0.00    +0.000 A 
ATOM     11  C   UNL     1       0.856   3.388  20.631  0.00  0.00    +0.000 A 
ATOM     12  C   UNL     1       1.793   4.421  20.570  0.00  0.00    +0.000 A 
ATOM     13  C   UNL     1       2.480   4.610  19.383  0.00  0.00    +0.000 A 
ATOM     14  C   UNL     1       3.480   5.655  19.017  0.00  0.00    +0.000 C 
ENDROOT
BRANCH  14  15
ATOM     15  N   UNL     1       2.847   6.966  18.943  0.00  0.00    +0.000 N 
ATOM     16  C   UNL     1       2.086   7.516  19.952  0.00  0.00    +0.000 A 
ATOM     17  C   UNL     1       1.583   8.716  19.505  0.00  0.00    +0.000 A 
ATOM     18  C   UNL     1       2.064   8.915  18.191  0.00  0.00    +0.000 A 
ATOM     19  C   UNL     1       2.840   7.824  17.870  0.00  0.00    +0.000 A 
ENDBRANCH  14  15
BRANCH   1  20
ATOM     20  C   UNL     1       7.468   5.619  16.351  0.00  0.00    +0.000 C 
BRANCH  20  21
ATOM     21  C   UNL     1       6.970   7.061  16.642  0.00  0.00    +0.000 C 
BRANCH  21  22
ATOM     22  N   UNL     1       7.341   7.704  17.926  0.00  0.00    +0.000 NA
BRANCH  22  24
ATOM     23  C   UNL     1       7.571   5.862  19.678  0.00  0.00    +0.000 C 
ATOM     24  C   UNL     1       8.234   6.766  18.647  0.00  0.00    +0.000 C 
ENDBRANCH  22  24
BRANCH  22  25
ATOM     25  C   UNL     1       7.903   9.053  17.770  0.00  0.00    +0.000 C 
ATOM     26  C   UNL     1       8.912   9.490  18.827  0.00  0.00    +0.000 C 
ENDBRANCH  22  25
ENDBRANCH  21  22
ENDBRANCH  20  21
ENDBRANCH   1  20
TORSDOF 6
ENDMDL
MODEL 8
REMARK VINA RESULT:      -6.0      6.570     10.538
REMARK  Name = 
REMARK  8 active torsions:
REMARK  status: ('A' for Active; 'I' for Inactive)
REMARK    1  A    between atoms: C_1  and  C_2
REMARK    2  A    between atoms: C_2  and  N_3
REMARK    3  A    between atoms: N_3  and  C_4
REMARK    4  A    between atoms: N_3  and  C_6
REMARK    5  A    between atoms: C_4  and  C_5
REMARK    6  A    between atoms: C_6  and  C_7
REMARK    7  A    between atoms: C_7  and  N_8
REMARK    8  A    between atoms: C_21  and  N_22
REMARK                            x       y       z     vdW  Elec       q    Type
REMARK                         _______ _______ _______ _____ _____    ______ ____
ROOT
ATOM      1  N   UNL     1      -2.494  10.567  17.030  0.00  0.00    +0.000 NA
ATOM      2  C   UNL     1      -1.935  11.922  17.009  0.00  0.00    +0.000 C 
ATOM      3  C   UNL     1      -1.569  12.423  18.401  0.00  0.00    +0.000 C 
ATOM      4  C   UNL     1      -0.538  11.493  19.093  0.00  0.00    +0.000 C 
ATOM      5  C   UNL     1      -0.966  10.016  18.960  0.00  0.00    +0.000 C 
ATOM      6  C   UNL     1      -1.496   9.641  17.574  0.00  0.00    +0.000 C 
ATOM      7  O   UNL     1       0.737  11.672  18.383  0.00  0.00    +0.000 OA
ATOM      8  C   UNL     1       1.419  12.603  19.126  0.00  0.00    +0.000 A 
ATOM      9  C   UNL     1       2.565  13.246  18.704  0.00  0.00    +0.000 A 
ATOM     10  C   UNL     1       3.150  14.175  19.569  0.00  0.00    +0.000 A 
ATOM     11  C   UNL     1       2.584  14.439  20.827  0.00  0.00    +0.000 A 
ATOM     12  C   UNL     1       1.430  13.772  21.239  0.00  0.00    +0.000 A 
ATOM     13  C   UNL     1       0.862  12.854  20.372  0.00  0.00    +0.000 A 
ATOM     14  C   UNL     1      -0.319  11.964  20.568  0.00  0.00    +0.000 C 
ENDROOT
BRANCH  14  15
ATOM     15  N   UNL     1      -0.035  10.947  21.572  0.00  0.00    +0.000 N 
ATOM     16  C   UNL     1       1.020  10.061  21.500  0.00  0.00    +0.000 A 
ATOM     17  C   UNL     1       0.929   9.198  22.567  0.00  0.00    +0.000 A 
ATOM     18  C   UNL     1      -0.202   9.576  23.324  0.00  0.00    +0.000 A 
ATOM     19  C   UNL     1      -0.777  10.655  22.691  0.00  0.00    +0.000 A 
ENDBRANCH  14  15
BRANCH   1  20
ATOM     20  C   UNL     1      -3.828  10.450  17.667  0.00  0.00    +0.000 C 
BRANCH  20  21
ATOM     21  C   UNL     1      -4.831  11.462  17.048  0.00  0.00    +0.000 C 
BRANCH  21  22
ATOM     22  N   UNL     1      -5.924  11.998  17.894  0.00  0.00    +0.000 NA
BRANCH  22  24
ATOM     23  C   UNL     1      -7.849  13.670  17.752  0.00  0.00    +0.000 C 
ATOM     24  C   UNL     1      -6.616  13.047  17.109  0.00  0.00    +0.000 C 
ENDBRANCH  22  24
BRANCH  22  25
ATOM     25  C   UNL     1      -6.825  10.963  18.419  0.00  0.00    +0.000 C 
ATOM     26  C   UNL     1      -6.952  10.884  19.937  0.00  0.00    +0.000 C 
ENDBRANCH  22  25
ENDBRANCH  21  22
ENDBRANCH  20  21
ENDBRANCH   1  20
TORSDOF 6
ENDMDL
MODEL 9
REMARK VINA RESULT:      -5.9      4.995      7.543
REMARK  Name = 
REMARK  8 active torsions:
REMARK  status: ('A' for Active; 'I' for Inactive)
REMARK    1  A    between atoms: C_1  and  C_2
REMARK    2  A    between atoms: C_2  and  N_3
REMARK    3  A    between atoms: N_3  and  C_4
REMARK    4  A    between atoms: N_3  and  C_6
REMARK    5  A    between atoms: C_4  and  C_5
REMARK    6  A    between atoms: C_6  and  C_7
REMARK    7  A    between atoms: C_7  and  N_8
REMARK    8  A    between atoms: C_21  and  N_22
REMARK                            x       y       z     vdW  Elec       q    Type
REMARK                         _______ _______ _______ _____ _____    ______ ____
ROOT
ATOM      1  N   UNL     1       1.762  14.758  20.004  0.00  0.00    +0.000 NA
ATOM      2  C   UNL     1       0.753  14.735  18.941  0.00  0.00    +0.000 C 
ATOM      3  C   UNL     1       0.552  13.341  18.358  0.00  0.00    +0.000 C 
ATOM      4  C   UNL     1       0.122  12.321  19.444  0.00  0.00    +0.000 C 
ATOM      5  C   UNL     1       1.024  12.445  20.692  0.00  0.00    +0.000 C 
ATOM      6  C   UNL     1       1.327  13.888  21.101  0.00  0.00    +0.000 C 
ATOM      7  O   UNL     1      -1.253  12.667  19.830  0.00  0.00    +0.000 OA
ATOM      8  C   UNL     1      -2.044  11.845  19.067  0.00  0.00    +0.000 A 
ATOM      9  C   UNL     1      -3.410  11.987  18.930  0.00  0.00    +0.000 A 
ATOM     10  C   UNL     1      -4.085  11.075  18.116  0.00  0.00    +0.000 A 
ATOM     11  C   UNL     1      -3.389  10.045  17.463  0.00  0.00    +0.000 A 
ATOM     12  C   UNL     1      -2.008   9.911  17.622  0.00  0.00    +0.000 A 
ATOM     13  C   UNL     1      -1.353  10.823  18.432  0.00  0.00    +0.000 A 
ATOM     14  C   UNL     1       0.084  10.886  18.825  0.00  0.00    +0.000 C 
ENDROOT
BRANCH  14  15
ATOM     15  N   UNL     1       0.430   9.763  19.687  0.00  0.00    +0.000 N 
ATOM     16  C   UNL     1      -0.236   9.448  20.852  0.00  0.00    +0.000 A 
ATOM     17  C   UNL     1       0.412   8.388  21.444  0.00  0.00    +0.000 A 
ATOM     18  C   UNL     1       1.495   8.033  20.610  0.00  0.00    +0.000 A 
ATOM     19  C   UNL     1       1.483   8.894  19.535  0.00  0.00    +0.000 A 
ENDBRANCH  14  15
BRANCH   1  20
ATOM     20  C   UNL     1       3.151  14.503  19.554  0.00  0.00    +0.000 C 
BRANCH  20  21
ATOM     21  C   UNL     1       4.179  15.095  20.557  0.00  0.00    +0.000 C 
BRANCH  21  22
ATOM     22  N   UNL     1       5.627  14.946  20.274  0.00  0.00    +0.000 NA
BRANCH  22  24
ATOM     23  C   UNL     1       6.518  14.804  17.886  0.00  0.00    +0.000 C 
ATOM     24  C   UNL     1       5.902  15.645  18.997  0.00  0.00    +0.000 C 
ENDBRANCH  22  24
BRANCH  22  25
ATOM     25  C   UNL     1       6.492  15.376  21.381  0.00  0.00    +0.000 C 
ATOM     26  C   UNL     1       7.635  14.435  21.750  0.00  0.00    +0.000 C 
ENDBRANCH  22  25
ENDBRANCH  21  22
ENDBRANCH  20  21
ENDBRANCH   1  20
TORSDOF 6
ENDMDL
