MODEL 1
REMARK VINA RESULT:      -7.7      0.000      0.000
REMARK  Name = 
REMARK  9 active torsions:
REMARK  status: ('A' for Active; 'I' for Inactive)
REMARK    1  A    between atoms: C_1  and  C_2
REMARK    2  A    between atoms: C_5  and  C_6
REMARK    3  A    between atoms: C_6  and  N_7
REMARK    4  A    between atoms: N_7  and  C_8
REMARK    5  A    between atoms: C_8  and  C_9
REMARK    6  A    between atoms: C_14  and  C_16
REMARK    7  A    between atoms: C_16  and  O_17
REMARK    8  A    between atoms: O_17  and  C_18
REMARK    9  A    between atoms: C_24  and  C_25
REMARK                            x       y       z     vdW  Elec       q    Type
REMARK                         _______ _______ _______ _____ _____    ______ ____
ROOT
ATOM      1  N   UNL     1       5.159   5.588  17.938  0.00  0.00    +0.000 N 
ATOM      2  C   UNL     1       4.275   6.533  17.409  0.00  0.00    +0.000 C 
ATOM      3  O   UNL     1       4.574   7.211  16.416  0.00  0.00    +0.000 OA
ENDROOT
BRANCH   1   4
ATOM      4  C   UNL     1       6.510   5.543  17.370  0.00  0.00    +0.000 C 
BRANCH   4   9
ATOM      5  C   UNL     1       7.909   5.384  12.722  0.00  0.00    +0.000 C 
ATOM      6  C   UNL     1       7.179   4.881  13.903  0.00  0.00    +0.000 A 
ATOM      7  C   UNL     1       6.251   3.875  14.065  0.00  0.00    +0.000 A 
ATOM      8  C   UNL     1       5.902   3.878  15.435  0.00  0.00    +0.000 A 
ATOM      9  C   UNL     1       6.610   4.908  16.026  0.00  0.00    +0.000 A 
ATOM     10  O   UNL     1       7.408   5.512  15.093  0.00  0.00    +0.000 OA
ENDBRANCH   4   9
ENDBRANCH   1   4
BRANCH   1  11
ATOM     11  C   UNL     1       4.745   4.682  19.017  0.00  0.00    +0.000 C 
BRANCH  11  12
ATOM     12  C   UNL     1       4.310   3.244  18.695  0.00  0.00    +0.000 C 
ATOM     13  C   UNL     1       3.692   2.456  19.857  0.00  0.00    +0.000 C 
ATOM     14  C   UNL     1       2.329   2.020  19.360  0.00  0.00    +0.000 C 
ATOM     15  C   UNL     1       2.439   2.172  17.863  0.00  0.00    +0.000 C 
ATOM     16  O   UNL     1       3.289   3.304  17.676  0.00  0.00    +0.000 OA
ENDBRANCH  11  12
ENDBRANCH   1  11
BRANCH   2  17
ATOM     17  C   UNL     1       2.977   6.871  18.177  0.00  0.00    +0.000 C 
BRANCH  17  18
ATOM     18  O   UNL     1       2.444   8.188  18.157  0.00  0.00    +0.000 OA
BRANCH  18  19
ATOM     19  C   UNL     1       1.766   8.555  19.307  0.00  0.00    +0.000 A 
ATOM     20  C   UNL     1       1.696   7.750  20.457  0.00  0.00    +0.000 A 
ATOM     21  C   UNL     1       0.952   8.143  21.573  0.00  0.00    +0.000 A 
ATOM     22  C   UNL     1       0.284   9.359  21.561  0.00  0.00    +0.000 A 
ATOM     23 CL   UNL     1      -0.661   9.826  22.920  0.00  0.00    +0.000 Cl
ATOM     24  C   UNL     1       0.385  10.199  20.457  0.00  0.00    +0.000 A 
ATOM     25  C   UNL     1       1.128   9.810  19.320  0.00  0.00    +0.000 A 
ATOM     26  C   UNL     1       1.244  10.779  18.178  0.00  0.00    +0.000 C 
ENDBRANCH  18  19
ENDBRANCH  17  18
ENDBRANCH   2  17
TORSDOF 7
ENDMDL
MODEL 2
REMARK VINA RESULT:      -7.6      2.404      5.096
REMARK  Name = 
REMARK  9 active torsions:
REMARK  status: ('A' for Active; 'I' for Inactive)
REMARK    1  A    between atoms: C_1  and  C_2
REMARK    2  A    between atoms: C_5  and  C_6
REMARK    3  A    between atoms: C_6  and  N_7
REMARK    4  A    between atoms: N_7  and  C_8
REMARK    5  A    between atoms: C_8  and  C_9
REMARK    6  A    between atoms: C_14  and  C_16
REMARK    7  A    between atoms: C_16  and  O_17
REMARK    8  A    between atoms: O_17  and  C_18
REMARK    9  A    between atoms: C_24  and  C_25
REMARK                            x       y       z     vdW  Elec       q    Type
REMARK                         _______ _______ _______ _____ _____    ______ ____
ROOT
ATOM      1  N   UNL     1       6.335   5.148  17.667  0.00  0.00    +0.000 N 
ATOM      2  C   UNL     1       5.428   4.350  18.371  0.00  0.00    +0.000 C 
ATOM      3  O   UNL     1       5.500   4.223  19.601  0.00  0.00    +0.000 OA
ENDROOT
BRANCH   1   4
ATOM      4  C   UNL     1       7.467   5.699  18.420  0.00  0.00    +0.000 C 
BRANCH   4   9
ATOM      5  C   UNL     1       9.406  10.034  19.437  0.00  0.00    +0.000 C 
ATOM      6  C   UNL     1       8.607   9.100  18.619  0.00  0.00    +0.000 A 
ATOM      7  C   UNL     1       7.786   9.287  17.527  0.00  0.00    +0.000 A 
ATOM      8  C   UNL     1       7.282   8.010  17.190  0.00  0.00    +0.000 A 
ATOM      9  C   UNL     1       7.795   7.121  18.116  0.00  0.00    +0.000 A 
ATOM     10  O   UNL     1       8.621   7.783  18.982  0.00  0.00    +0.000 OA
ENDBRANCH   4   9
ENDBRANCH   1   4
BRANCH   1  11
ATOM     11  C   UNL     1       6.157   5.417  16.235  0.00  0.00    +0.000 C 
BRANCH  11  12
ATOM     12  C   UNL     1       6.974   4.635  15.194  0.00  0.00    +0.000 C 
ATOM     13  C   UNL     1       6.167   3.743  14.243  0.00  0.00    +0.000 C 
ATOM     14  C   UNL     1       6.532   4.214  12.851  0.00  0.00    +0.000 C 
ATOM     15  C   UNL     1       7.810   4.985  13.068  0.00  0.00    +0.000 C 
ATOM     16  O   UNL     1       7.653   5.591  14.351  0.00  0.00    +0.000 OA
ENDBRANCH  11  12
ENDBRANCH   1  11
BRANCH   2  17
ATOM     17  C   UNL     1       4.430   3.466  17.590  0.00  0.00    +0.000 C 
BRANCH  17  18
ATOM     18  O   UNL     1       3.046   3.786  17.561  0.00  0.00    +0.000 OA
BRANCH  18  19
ATOM     19  C   UNL     1       2.683   4.854  18.364  0.00  0.00    +0.000 A 
ATOM     20  C   UNL     1       2.858   6.198  17.995  0.00  0.00    +0.000 A 
ATOM     21  C   UNL     1       2.525   7.240  18.866  0.00  0.00    +0.000 A 
ATOM     22  C   UNL     1       1.992   6.949  20.112  0.00  0.00    +0.000 A 
ATOM     23 CL   UNL     1       1.617   8.228  21.199  0.00  0.00    +0.000 Cl
ATOM     24  C   UNL     1       1.755   5.628  20.479  0.00  0.00    +0.000 A 
ATOM     25  C   UNL     1       2.094   4.567  19.611  0.00  0.00    +0.000 A 
ATOM     26  C   UNL     1       1.769   3.163  20.038  0.00  0.00    +0.000 C 
ENDBRANCH  18  19
ENDBRANCH  17  18
ENDBRANCH   2  17
TORSDOF 7
ENDMDL
MODEL 3
REMARK VINA RESULT:      -7.5      2.021      3.913
REMARK  Name = 
REMARK  9 active torsions:
REMARK  status: ('A' for Active; 'I' for Inactive)
REMARK    1  A    between atoms: C_1  and  C_2
REMARK    2  A    between atoms: C_5  and  C_6
REMARK    3  A    between atoms: C_6  and  N_7
REMARK    4  A    between atoms: N_7  and  C_8
REMARK    5  A    between atoms: C_8  and  C_9
REMARK    6  A    between atoms: C_14  and  C_16
REMARK    7  A    between atoms: C_16  and  O_17
REMARK    8  A    between atoms: O_17  and  C_18
REMARK    9  A    between atoms: C_24  and  C_25
REMARK                            x       y       z     vdW  Elec       q    Type
REMARK                         _______ _______ _______ _____ _____    ______ ____
ROOT
ATOM      1  N   UNL     1       5.197   4.774  16.363  0.00  0.00    +0.000 N 
ATOM      2  C   UNL     1       4.152   4.292  17.156  0.00  0.00    +0.000 C 
ATOM      3  O   UNL     1       4.018   3.082  17.382  0.00  0.00    +0.000 OA
ENDROOT
BRANCH   1   4
ATOM      4  C   UNL     1       6.034   3.781  15.682  0.00  0.00    +0.000 C 
BRANCH   4   9
ATOM      5  C   UNL     1       4.195   3.184  11.227  0.00  0.00    +0.000 C 
ATOM      6  C   UNL     1       5.261   3.549  12.181  0.00  0.00    +0.000 A 
ATOM      7  C   UNL     1       6.593   3.864  12.014  0.00  0.00    +0.000 A 
ATOM      8  C   UNL     1       7.105   4.109  13.308  0.00  0.00    +0.000 A 
ATOM      9  C   UNL     1       6.067   3.895  14.197  0.00  0.00    +0.000 A 
ATOM     10  O   UNL     1       4.932   3.569  13.507  0.00  0.00    +0.000 OA
ENDBRANCH   4   9
ENDBRANCH   1   4
BRANCH   1  11
ATOM     11  C   UNL     1       5.440   6.215  16.221  0.00  0.00    +0.000 C 
BRANCH  11  12
ATOM     12  C   UNL     1       6.039   7.016  17.388  0.00  0.00    +0.000 C 
ATOM     13  C   UNL     1       6.689   6.189  18.504  0.00  0.00    +0.000 C 
ATOM     14  C   UNL     1       8.110   6.704  18.603  0.00  0.00    +0.000 C 
ATOM     15  C   UNL     1       8.048   8.038  17.903  0.00  0.00    +0.000 C 
ATOM     16  O   UNL     1       7.090   7.855  16.860  0.00  0.00    +0.000 OA
ENDBRANCH  11  12
ENDBRANCH   1  11
BRANCH   2  17
ATOM     17  C   UNL     1       3.036   5.260  17.611  0.00  0.00    +0.000 C 
BRANCH  17  18
ATOM     18  O   UNL     1       3.154   5.982  18.829  0.00  0.00    +0.000 OA
BRANCH  18  19
ATOM     19  C   UNL     1       2.522   7.215  18.834  0.00  0.00    +0.000 A 
ATOM     20  C   UNL     1       2.580   8.121  17.761  0.00  0.00    +0.000 A 
ATOM     21  C   UNL     1       1.969   9.376  17.838  0.00  0.00    +0.000 A 
ATOM     22  C   UNL     1       1.275   9.733  18.984  0.00  0.00    +0.000 A 
ATOM     23 CL   UNL     1       0.555  11.292  19.094  0.00  0.00    +0.000 Cl
ATOM     24  C   UNL     1       1.155   8.832  20.037  0.00  0.00    +0.000 A 
ATOM     25  C   UNL     1       1.773   7.564  19.974  0.00  0.00    +0.000 A 
ATOM     26  C   UNL     1       1.568   6.612  21.119  0.00  0.00    +0.000 C 
ENDBRANCH  18  19
ENDBRANCH  17  18
ENDBRANCH   2  17
TORSDOF 7
ENDMDL
MODEL 4
REMARK VINA RESULT:      -7.5      1.682      2.350
REMARK  Name = 
REMARK  9 active torsions:
REMARK  status: ('A' for Active; 'I' for Inactive)
REMARK    1  A    between atoms: C_1  and  C_2
REMARK    2  A    between atoms: C_5  and  C_6
REMARK    3  A    between atoms: C_6  and  N_7
REMARK    4  A    between atoms: N_7  and  C_8
REMARK    5  A    between atoms: C_8  and  C_9
REMARK    6  A    between atoms: C_14  and  C_16
REMARK    7  A    between atoms: C_16  and  O_17
REMARK    8  A    between atoms: O_17  and  C_18
REMARK    9  A    between atoms: C_24  and  C_25
REMARK                            x       y       z     vdW  Elec       q    Type
REMARK                         _______ _______ _______ _____ _____    ______ ____
ROOT
ATOM      1  N   UNL     1       4.021   4.784  17.417  0.00  0.00    +0.000 N 
ATOM      2  C   UNL     1       3.856   6.161  17.586  0.00  0.00    +0.000 C 
ATOM      3  O   UNL     1       4.800   6.948  17.429  0.00  0.00    +0.000 OA
ENDROOT
BRANCH   1   4
ATOM      4  C   UNL     1       5.386   4.293  17.204  0.00  0.00    +0.000 C 
BRANCH   4   9
ATOM      5  C   UNL     1       5.680   3.343  12.450  0.00  0.00    +0.000 C 
ATOM      6  C   UNL     1       6.107   4.011  13.695  0.00  0.00    +0.000 A 
ATOM      7  C   UNL     1       7.195   4.800  14.004  0.00  0.00    +0.000 A 
ATOM      8  C   UNL     1       7.066   5.134  15.370  0.00  0.00    +0.000 A 
ATOM      9  C   UNL     1       5.925   4.502  15.830  0.00  0.00    +0.000 A 
ATOM     10  O   UNL     1       5.326   3.829  14.801  0.00  0.00    +0.000 OA
ENDBRANCH   4   9
ENDBRANCH   1   4
BRANCH   1  11
ATOM     11  C   UNL     1       2.871   3.872  17.455  0.00  0.00    +0.000 C 
BRANCH  11  12
ATOM     12  C   UNL     1       2.448   3.214  18.778  0.00  0.00    +0.000 C 
ATOM     13  C   UNL     1       3.254   3.625  20.016  0.00  0.00    +0.000 C 
ATOM     14  C   UNL     1       2.230   4.159  20.997  0.00  0.00    +0.000 C 
ATOM     15  C   UNL     1       0.926   3.613  20.472  0.00  0.00    +0.000 C 
ATOM     16  O   UNL     1       1.084   3.602  19.053  0.00  0.00    +0.000 OA
ENDBRANCH  11  12
ENDBRANCH   1  11
BRANCH   2  17
ATOM     17  C   UNL     1       2.524   6.703  18.154  0.00  0.00    +0.000 C 
BRANCH  17  18
ATOM     18  O   UNL     1       2.516   7.598  19.257  0.00  0.00    +0.000 OA
BRANCH  18  19
ATOM     19  C   UNL     1       1.565   8.602  19.180  0.00  0.00    +0.000 A 
ATOM     20  C   UNL     1       1.167   9.204  17.974  0.00  0.00    +0.000 A 
ATOM     21  C   UNL     1       0.242  10.251  17.957  0.00  0.00    +0.000 A 
ATOM     22  C   UNL     1      -0.315  10.697  19.146  0.00  0.00    +0.000 A 
ATOM     23 CL   UNL     1      -1.425  12.010  19.130  0.00  0.00    +0.000 Cl
ATOM     24  C   UNL     1       0.020  10.078  20.348  0.00  0.00    +0.000 A 
ATOM     25  C   UNL     1       0.959   9.024  20.379  0.00  0.00    +0.000 A 
ATOM     26  C   UNL     1       1.243   8.360  21.696  0.00  0.00    +0.000 C 
ENDBRANCH  18  19
ENDBRANCH  17  18
ENDBRANCH   2  17
TORSDOF 7
ENDMDL
MODEL 5
REMARK VINA RESULT:      -7.4      2.616      5.191
REMARK  Name = 
REMARK  9 active torsions:
REMARK  status: ('A' for Active; 'I' for Inactive)
REMARK    1  A    between atoms: C_1  and  C_2
REMARK    2  A    between atoms: C_5  and  C_6
REMARK    3  A    between atoms: C_6  and  N_7
REMARK    4  A    between atoms: N_7  and  C_8
REMARK    5  A    between atoms: C_8  and  C_9
REMARK    6  A    between atoms: C_14  and  C_16
REMARK    7  A    between atoms: C_16  and  O_17
REMARK    8  A    between atoms: O_17  and  C_18
REMARK    9  A    between atoms: C_24  and  C_25
REMARK                            x       y       z     vdW  Elec       q    Type
REMARK                         _______ _______ _______ _____ _____    ______ ____
ROOT
ATOM      1  N   UNL     1       2.218   6.612  19.699  0.00  0.00    +0.000 N 
ATOM      2  C   UNL     1       1.764   7.858  20.139  0.00  0.00    +0.000 C 
ATOM      3  O   UNL     1       1.491   8.061  21.330  0.00  0.00    +0.000 OA
ENDROOT
BRANCH   1   4
ATOM      4  C   UNL     1       2.206   5.513  20.670  0.00  0.00    +0.000 C 
BRANCH   4   9
ATOM      5  C   UNL     1       3.524   1.345  18.552  0.00  0.00    +0.000 C 
ATOM      6  C   UNL     1       2.536   2.315  19.065  0.00  0.00    +0.000 A 
ATOM      7  C   UNL     1       1.162   2.382  18.974  0.00  0.00    +0.000 A 
ATOM      8  C   UNL     1       0.778   3.558  19.655  0.00  0.00    +0.000 A 
ATOM      9  C   UNL     1       1.941   4.164  20.094  0.00  0.00    +0.000 A 
ATOM     10  O   UNL     1       3.018   3.395  19.749  0.00  0.00    +0.000 OA
ENDBRANCH   4   9
ENDBRANCH   1   4
BRANCH   1  11
ATOM     11  C   UNL     1       2.684   6.417  18.320  0.00  0.00    +0.000 C 
BRANCH  11  12
ATOM     12  C   UNL     1       4.149   6.041  18.045  0.00  0.00    +0.000 C 
ATOM     13  C   UNL     1       4.370   4.910  17.034  0.00  0.00    +0.000 C 
ATOM     14  C   UNL     1       5.263   5.502  15.963  0.00  0.00    +0.000 C 
ATOM     15  C   UNL     1       5.848   6.721  16.633  0.00  0.00    +0.000 C 
ATOM     16  O   UNL     1       4.809   7.199  17.487  0.00  0.00    +0.000 OA
ENDBRANCH  11  12
ENDBRANCH   1  11
BRANCH   2  17
ATOM     17  C   UNL     1       1.423   8.952  19.101  0.00  0.00    +0.000 C 
BRANCH  17  18
ATOM     18  O   UNL     1       0.832  10.178  19.508  0.00  0.00    +0.000 OA
BRANCH  18  19
ATOM     19  C   UNL     1      -0.387  10.458  18.912  0.00  0.00    +0.000 A 
ATOM     20  C   UNL     1      -0.822   9.860  17.717  0.00  0.00    +0.000 A 
ATOM     21  C   UNL     1      -2.038  10.218  17.128  0.00  0.00    +0.000 A 
ATOM     22  C   UNL     1      -2.846  11.165  17.739  0.00  0.00    +0.000 A 
ATOM     23 CL   UNL     1      -4.324  11.633  16.996  0.00  0.00    +0.000 Cl
ATOM     24  C   UNL     1      -2.463  11.730  18.953  0.00  0.00    +0.000 A 
ATOM     25  C   UNL     1      -1.234  11.382  19.554  0.00  0.00    +0.000 A 
ATOM     26  C   UNL     1      -0.897  11.984  20.889  0.00  0.00    +0.000 C 
ENDBRANCH  18  19
ENDBRANCH  17  18
ENDBRANCH   2  17
TORSDOF 7
ENDMDL
MODEL 6
REMARK VINA RESULT:      -7.4      1.227      1.557
REMARK  Name = 
REMARK  9 active torsions:
REMARK  status: ('A' for Active; 'I' for Inactive)
REMARK    1  A    between atoms: C_1  and  C_2
REMARK    2  A    between atoms: C_5  and  C_6
REMARK    3  A    between atoms: C_6  and  N_7
REMARK    4  A    between atoms: N_7  and  C_8
REMARK    5  A    between atoms: C_8  and  C_9
REMARK    6  A    between atoms: C_14  and  C_16
REMARK    7  A    between atoms: C_16  and  O_17
REMARK    8  A    between atoms: O_17  and  C_18
REMARK    9  A    between atoms: C_24  and  C_25
REMARK                            x       y       z     vdW  Elec       q    Type
REMARK                         _______ _______ _______ _____ _____    ______ ____
ROOT
ATOM      1  N   UNL     1       4.276   4.495  17.376  0.00  0.00    +0.000 N 
ATOM      2  C   UNL     1       4.239   5.790  17.901  0.00  0.00    +0.000 C 
ATOM      3  O   UNL     1       5.250   6.504  17.930  0.00  0.00    +0.000 OA
ENDROOT
BRANCH   1   4
ATOM      4  C   UNL     1       5.590   3.960  17.006  0.00  0.00    +0.000 C 
BRANCH   4   9
ATOM      5  C   UNL     1       5.857   3.202  12.216  0.00  0.00    +0.000 C 
ATOM      6  C   UNL     1       6.219   3.893  13.469  0.00  0.00    +0.000 A 
ATOM      7  C   UNL     1       7.182   4.832  13.770  0.00  0.00    +0.000 A 
ATOM      8  C   UNL     1       7.052   5.104  15.150  0.00  0.00    +0.000 A 
ATOM      9  C   UNL     1       6.040   4.289  15.624  0.00  0.00    +0.000 A 
ATOM     10  O   UNL     1       5.516   3.559  14.592  0.00  0.00    +0.000 OA
ENDBRANCH   4   9
ENDBRANCH   1   4
BRANCH   1  11
ATOM     11  C   UNL     1       3.047   3.710  17.205  0.00  0.00    +0.000 C 
BRANCH  11  12
ATOM     12  C   UNL     1       2.572   2.765  18.320  0.00  0.00    +0.000 C 
ATOM     13  C   UNL     1       3.423   2.755  19.596  0.00  0.00    +0.000 C 
ATOM     14  C   UNL     1       2.464   3.099  20.716  0.00  0.00    +0.000 C 
ATOM     15  C   UNL     1       1.109   2.835  20.108  0.00  0.00    +0.000 C 
ATOM     16  O   UNL     1       1.254   3.189  18.733  0.00  0.00    +0.000 OA
ENDBRANCH  11  12
ENDBRANCH   1  11
BRANCH   2  17
ATOM     17  C   UNL     1       2.963   6.279  18.626  0.00  0.00    +0.000 C 
BRANCH  17  18
ATOM     18  O   UNL     1       2.398   7.547  18.324  0.00  0.00    +0.000 OA
BRANCH  18  19
ATOM     19  C   UNL     1       1.792   8.180  19.396  0.00  0.00    +0.000 A 
ATOM     20  C   UNL     1       1.651   7.593  20.665  0.00  0.00    +0.000 A 
ATOM     21  C   UNL     1       0.981   8.253  21.700  0.00  0.00    +0.000 A 
ATOM     22  C   UNL     1       0.461   9.520  21.483  0.00  0.00    +0.000 A 
ATOM     23 CL   UNL     1      -0.396  10.317  22.743  0.00  0.00    +0.000 Cl
ATOM     24  C   UNL     1       0.637  10.145  20.252  0.00  0.00    +0.000 A 
ATOM     25  C   UNL     1       1.305   9.486  19.198  0.00  0.00    +0.000 A 
ATOM     26  C   UNL     1       1.511  10.229  17.908  0.00  0.00    +0.000 C 
ENDBRANCH  18  19
ENDBRANCH  17  18
ENDBRANCH   2  17
TORSDOF 7
ENDMDL
MODEL 7
REMARK VINA RESULT:      -7.4      2.355      3.406
REMARK  Name = 
REMARK  9 active torsions:
REMARK  status: ('A' for Active; 'I' for Inactive)
REMARK    1  A    between atoms: C_1  and  C_2
REMARK    2  A    between atoms: C_5  and  C_6
REMARK    3  A    between atoms: C_6  and  N_7
REMARK    4  A    between atoms: N_7  and  C_8
REMARK    5  A    between atoms: C_8  and  C_9
REMARK    6  A    between atoms: C_14  and  C_16
REMARK    7  A    between atoms: C_16  and  O_17
REMARK    8  A    between atoms: O_17  and  C_18
REMARK    9  A    between atoms: C_24  and  C_25
REMARK                            x       y       z     vdW  Elec       q    Type
REMARK                         _______ _______ _______ _____ _____    ______ ____
ROOT
ATOM      1  N   UNL     1       2.818   6.323  18.889  0.00  0.00    +0.000 N 
ATOM      2  C   UNL     1       2.192   7.572  18.854  0.00  0.00    +0.000 C 
ATOM      3  O   UNL     1       1.943   8.139  17.781  0.00  0.00    +0.000 OA
ENDROOT
BRANCH   1   4
ATOM      4  C   UNL     1       3.310   5.784  17.617  0.00  0.00    +0.000 C 
BRANCH   4   9
ATOM      5  C   UNL     1       7.722   7.813  17.589  0.00  0.00    +0.000 C 
ATOM      6  C   UNL     1       6.777   6.697  17.386  0.00  0.00    +0.000 A 
ATOM      7  C   UNL     1       6.920   5.446  16.826  0.00  0.00    +0.000 A 
ATOM      8  C   UNL     1       5.649   4.832  16.904  0.00  0.00    +0.000 A 
ATOM      9  C   UNL     1       4.793   5.755  17.474  0.00  0.00    +0.000 A 
ATOM     10  O   UNL     1       5.486   6.893  17.787  0.00  0.00    +0.000 OA
ENDBRANCH   4   9
ENDBRANCH   1   4
BRANCH   1  11
ATOM     11  C   UNL     1       2.975   5.588  20.150  0.00  0.00    +0.000 C 
BRANCH  11  12
ATOM     12  C   UNL     1       1.814   4.749  20.706  0.00  0.00    +0.000 C 
ATOM     13  C   UNL     1       1.080   3.866  19.689  0.00  0.00    +0.000 C 
ATOM     14  C   UNL     1       1.173   2.460  20.243  0.00  0.00    +0.000 C 
ATOM     15  C   UNL     1       1.523   2.679  21.694  0.00  0.00    +0.000 C 
ATOM     16  O   UNL     1       2.351   3.843  21.694  0.00  0.00    +0.000 OA
ENDBRANCH  11  12
ENDBRANCH   1  11
BRANCH   2  17
ATOM     17  C   UNL     1       1.968   8.347  20.173  0.00  0.00    +0.000 C 
BRANCH  17  18
ATOM     18  O   UNL     1       0.713   8.300  20.838  0.00  0.00    +0.000 OA
BRANCH  18  19
ATOM     19  C   UNL     1       0.001   9.488  20.812  0.00  0.00    +0.000 A 
ATOM     20  C   UNL     1      -0.445  10.099  19.628  0.00  0.00    +0.000 A 
ATOM     21  C   UNL     1      -1.113  11.327  19.652  0.00  0.00    +0.000 A 
ATOM     22  C   UNL     1      -1.361  11.950  20.866  0.00  0.00    +0.000 A 
ATOM     23 CL   UNL     1      -2.149  13.479  20.895  0.00  0.00    +0.000 Cl
ATOM     24  C   UNL     1      -0.979  11.338  22.056  0.00  0.00    +0.000 A 
ATOM     25  C   UNL     1      -0.298  10.101  22.043  0.00  0.00    +0.000 A 
ATOM     26  C   UNL     1       0.044   9.461  23.359  0.00  0.00    +0.000 C 
ENDBRANCH  18  19
ENDBRANCH  17  18
ENDBRANCH   2  17
TORSDOF 7
ENDMDL
MODEL 8
REMARK VINA RESULT:      -7.4      1.690      2.386
REMARK  Name = 
REMARK  9 active torsions:
REMARK  status: ('A' for Active; 'I' for Inactive)
REMARK    1  A    between atoms: C_1  and  C_2
REMARK    2  A    between atoms: C_5  and  C_6
REMARK    3  A    between atoms: C_6  and  N_7
REMARK    4  A    between atoms: N_7  and  C_8
REMARK    5  A    between atoms: C_8  and  C_9
REMARK    6  A    between atoms: C_14  and  C_16
REMARK    7  A    between atoms: C_16  and  O_17
REMARK    8  A    between atoms: O_17  and  C_18
REMARK    9  A    between atoms: C_24  and  C_25
REMARK                            x       y       z     vdW  Elec       q    Type
REMARK                         _______ _______ _______ _____ _____    ______ ____
ROOT
ATOM      1  N   UNL     1       4.140   5.064  17.936  0.00  0.00    +0.000 N 
ATOM      2  C   UNL     1       3.818   6.389  17.627  0.00  0.00    +0.000 C 
ATOM      3  O   UNL     1       4.631   7.136  17.064  0.00  0.00    +0.000 OA
ENDROOT
BRANCH   1   4
ATOM      4  C   UNL     1       5.527   4.642  17.713  0.00  0.00    +0.000 C 
BRANCH   4   9
ATOM      5  C   UNL     1       5.341   3.496  12.997  0.00  0.00    +0.000 C 
ATOM      6  C   UNL     1       5.949   4.136  14.182  0.00  0.00    +0.000 A 
ATOM      7  C   UNL     1       7.159   4.763  14.383  0.00  0.00    +0.000 A 
ATOM      8  C   UNL     1       7.177   5.160  15.739  0.00  0.00    +0.000 A 
ATOM      9  C   UNL     1       5.992   4.721  16.300  0.00  0.00    +0.000 A 
ATOM     10  O   UNL     1       5.229   4.109  15.343  0.00  0.00    +0.000 OA
ENDBRANCH   4   9
ENDBRANCH   1   4
BRANCH   1  11
ATOM     11  C   UNL     1       3.129   4.140  18.464  0.00  0.00    +0.000 C 
BRANCH  11  12
ATOM     12  C   UNL     1       2.831   4.098  19.971  0.00  0.00    +0.000 C 
ATOM     13  C   UNL     1       1.347   4.100  20.360  0.00  0.00    +0.000 C 
ATOM     14  C   UNL     1       1.156   2.856  21.202  0.00  0.00    +0.000 C 
ATOM     15  C   UNL     1       2.562   2.493  21.612  0.00  0.00    +0.000 C 
ATOM     16  O   UNL     1       3.372   2.866  20.498  0.00  0.00    +0.000 OA
ENDBRANCH  11  12
ENDBRANCH   1  11
BRANCH   2  17
ATOM     17  C   UNL     1       2.496   6.992  18.154  0.00  0.00    +0.000 C 
BRANCH  17  18
ATOM     18  O   UNL     1       2.507   8.009  19.146  0.00  0.00    +0.000 OA
BRANCH  18  19
ATOM     19  C   UNL     1       1.395   8.834  19.139  0.00  0.00    +0.000 A 
ATOM     20  C   UNL     1       0.813   9.344  17.965  0.00  0.00    +0.000 A 
ATOM     21  C   UNL     1      -0.277  10.218  18.016  0.00  0.00    +0.000 A 
ATOM     22  C   UNL     1      -0.813  10.578  19.243  0.00  0.00    +0.000 A 
ATOM     23 CL   UNL     1      -2.130  11.682  19.308  0.00  0.00    +0.000 Cl
ATOM     24  C   UNL     1      -0.291  10.042  20.417  0.00  0.00    +0.000 A 
ATOM     25  C   UNL     1       0.815   9.164  20.379  0.00  0.00    +0.000 A 
ATOM     26  C   UNL     1       1.304   8.576  21.672  0.00  0.00    +0.000 C 
ENDBRANCH  18  19
ENDBRANCH  17  18
ENDBRANCH   2  17
TORSDOF 7
ENDMDL
MODEL 9
REMARK VINA RESULT:      -7.3      2.160      2.810
REMARK  Name = 
REMARK  9 active torsions:
REMARK  status: ('A' for Active; 'I' for Inactive)
REMARK    1  A    between atoms: C_1  and  C_2
REMARK    2  A    between atoms: C_5  and  C_6
REMARK    3  A    between atoms: C_6  and  N_7
REMARK    4  A    between atoms: N_7  and  C_8
REMARK    5  A    between atoms: C_8  and  C_9
REMARK    6  A    between atoms: C_14  and  C_16
REMARK    7  A    between atoms: C_16  and  O_17
REMARK    8  A    between atoms: O_17  and  C_18
REMARK    9  A    between atoms: C_24  and  C_25
REMARK                            x       y       z     vdW  Elec       q    Type
REMARK                         _______ _______ _______ _____ _____    ______ ____
ROOT
ATOM      1  N   UNL     1       2.974   5.884  18.993  0.00  0.00    +0.000 N 
ATOM      2  C   UNL     1       2.148   7.012  18.976  0.00  0.00    +0.000 C 
ATOM      3  O   UNL     1       1.929   7.635  17.928  0.00  0.00    +0.000 OA
ENDROOT
BRANCH   1   4
ATOM      4  C   UNL     1       3.695   5.563  17.757  0.00  0.00    +0.000 C 
BRANCH   4   9
ATOM      5  C   UNL     1       7.859   8.054  17.558  0.00  0.00    +0.000 C 
ATOM      6  C   UNL     1       7.060   6.817  17.667  0.00  0.00    +0.000 A 
ATOM      7  C   UNL     1       7.403   5.482  17.647  0.00  0.00    +0.000 A 
ATOM      8  C   UNL     1       6.194   4.762  17.779  0.00  0.00    +0.000 A 
ATOM      9  C   UNL     1       5.177   5.697  17.837  0.00  0.00    +0.000 A 
ATOM     10  O   UNL     1       5.707   6.957  17.787  0.00  0.00    +0.000 OA
ENDBRANCH   4   9
ENDBRANCH   1   4
BRANCH   1  11
ATOM     11  C   UNL     1       3.111   5.062  20.201  0.00  0.00    +0.000 C 
BRANCH  11  12
ATOM     12  C   UNL     1       2.441   3.680  20.276  0.00  0.00    +0.000 C 
ATOM     13  C   UNL     1       0.947   3.641  19.935  0.00  0.00    +0.000 C 
ATOM     14  C   UNL     1       0.823   2.641  18.804  0.00  0.00    +0.000 C 
ATOM     15  C   UNL     1       2.114   1.865  18.883  0.00  0.00    +0.000 C 
ATOM     16  O   UNL     1       3.085   2.820  19.311  0.00  0.00    +0.000 OA
ENDBRANCH  11  12
ENDBRANCH   1  11
BRANCH   2  17
ATOM     17  C   UNL     1       1.643   7.603  20.312  0.00  0.00    +0.000 C 
BRANCH  17  18
ATOM     18  O   UNL     1       1.980   8.930  20.692  0.00  0.00    +0.000 OA
BRANCH  18  19
ATOM     19  C   UNL     1       0.974   9.616  21.352  0.00  0.00    +0.000 A 
ATOM     20  C   UNL     1       0.560   9.317  22.661  0.00  0.00    +0.000 A 
ATOM     21  C   UNL     1      -0.498  10.004  23.262  0.00  0.00    +0.000 A 
ATOM     22  C   UNL     1      -1.144  11.016  22.567  0.00  0.00    +0.000 A 
ATOM     23 CL   UNL     1      -2.470  11.837  23.291  0.00  0.00    +0.000 Cl
ATOM     24  C   UNL     1      -0.715  11.369  21.291  0.00  0.00    +0.000 A 
ATOM     25  C   UNL     1       0.348  10.677  20.671  0.00  0.00    +0.000 A 
ATOM     26  C   UNL     1       0.802  11.135  19.313  0.00  0.00    +0.000 C 
ENDBRANCH  18  19
ENDBRANCH  17  18
ENDBRANCH   2  17
TORSDOF 7
ENDMDL
