MODEL 1
REMARK VINA RESULT:      -9.2      0.000      0.000
REMARK  Name = 
REMARK  5 active torsions:
REMARK  status: ('A' for Active; 'I' for Inactive)
REMARK    1  A    between atoms: C_1  and  C_2
REMARK    2  A    between atoms: C_7  and  C_8
REMARK    3  A    between atoms: C_11  and  O_12
REMARK    4  A    between atoms: O_12  and  C_13
REMARK    5  A    between atoms: C_13  and  C_14
REMARK                            x       y       z     vdW  Elec       q    Type
REMARK                         _______ _______ _______ _____ _____    ______ ____
ROOT
ATOM      1  C   UNL     1       5.995   6.011  17.705  0.00  0.00    +0.000 A 
ATOM      2  C   UNL     1       7.018   5.738  18.611  0.00  0.00    +0.000 A 
ATOM      3  N   UNL     1       8.024   6.573  18.934  0.00  0.00    +0.000 NA
ATOM      4  C   UNL     1       8.034   7.733  18.278  0.00  0.00    +0.000 A 
ATOM      5  N   UNL     1       7.144   8.105  17.345  0.00  0.00    +0.000 NA
ATOM      6  C   UNL     1       6.142   7.236  17.088  0.00  0.00    +0.000 A 
ENDROOT
BRANCH   1  13
ATOM      7  C   UNL     1       5.982   3.738  15.559  0.00  0.00    +0.000 C 
ATOM      8  C   UNL     1       4.918   3.935  16.610  0.00  0.00    +0.000 A 
ATOM      9  C   UNL     1       3.926   2.934  16.705  0.00  0.00    +0.000 A 
ATOM     10  C   UNL     1       2.934   3.074  17.649  0.00  0.00    +0.000 A 
ATOM     11  C   UNL     1       2.836   4.199  18.421  0.00  0.00    +0.000 A 
ATOM     12  C   UNL     1       3.760   5.210  18.339  0.00  0.00    +0.000 A 
ATOM     13  C   UNL     1       4.890   5.052  17.501  0.00  0.00    +0.000 A 
ATOM     14  O   UNL     1       1.798   4.155  19.296  0.00  0.00    +0.000 OA
ATOM     15  C   UNL     1       1.465   2.767  19.159  0.00  0.00    +0.000 C 
ATOM     16  F   UNL     1       1.968   2.109  20.237  0.00  0.00    +0.000 F 
ATOM     17  F   UNL     1       0.121   2.630  19.185  0.00  0.00    +0.000 F 
ATOM     18  O   UNL     1       1.982   2.155  17.968  0.00  0.00    +0.000 OA
ENDBRANCH   1  13
BRANCH   4  19
ATOM     19  O   UNL     1       8.987   8.626  18.699  0.00  0.00    +0.000 OA
BRANCH  19  20
ATOM     20  C   UNL     1       8.644   9.953  18.326  0.00  0.00    +0.000 C 
BRANCH  20  21
ATOM     21  C   UNL     1       9.639  10.873  18.959  0.00  0.00    +0.000 A 
ATOM     22  C   UNL     1      10.674  11.434  18.212  0.00  0.00    +0.000 A 
ATOM     23  F   UNL     1      10.777  11.162  16.903  0.00  0.00    +0.000 F 
ATOM     24  C   UNL     1      11.608  12.287  18.797  0.00  0.00    +0.000 A 
ATOM     25  C   UNL     1      11.517  12.586  20.157  0.00  0.00    +0.000 A 
ATOM     26  C   UNL     1      10.500  12.017  20.922  0.00  0.00    +0.000 A 
ATOM     27  C   UNL     1       9.579  11.164  20.320  0.00  0.00    +0.000 A 
ATOM     28  F   UNL     1       8.610  10.625  21.079  0.00  0.00    +0.000 F 
ENDBRANCH  20  21
ENDBRANCH  19  20
ENDBRANCH   4  19
TORSDOF 4
ENDMDL
MODEL 2
REMARK VINA RESULT:      -9.2      0.114      1.561
REMARK  Name = 
REMARK  5 active torsions:
REMARK  status: ('A' for Active; 'I' for Inactive)
REMARK    1  A    between atoms: C_1  and  C_2
REMARK    2  A    between atoms: C_7  and  C_8
REMARK    3  A    between atoms: C_11  and  O_12
REMARK    4  A    between atoms: O_12  and  C_13
REMARK    5  A    between atoms: C_13  and  C_14
REMARK                            x       y       z     vdW  Elec       q    Type
REMARK                         _______ _______ _______ _____ _____    ______ ____
ROOT
ATOM      1  C   UNL     1       5.973   6.036  17.648  0.00  0.00    +0.000 A 
ATOM      2  C   UNL     1       6.966   5.748  18.583  0.00  0.00    +0.000 A 
ATOM      3  N   UNL     1       7.975   6.567  18.936  0.00  0.00    +0.000 NA
ATOM      4  C   UNL     1       8.021   7.726  18.281  0.00  0.00    +0.000 A 
ATOM      5  N   UNL     1       7.164   8.113  17.322  0.00  0.00    +0.000 NA
ATOM      6  C   UNL     1       6.157   7.259  17.037  0.00  0.00    +0.000 A 
ENDROOT
BRANCH   1  13
ATOM      7  C   UNL     1       5.924   3.863  15.402  0.00  0.00    +0.000 C 
ATOM      8  C   UNL     1       4.872   4.020  16.471  0.00  0.00    +0.000 A 
ATOM      9  C   UNL     1       3.874   3.021  16.532  0.00  0.00    +0.000 A 
ATOM     10  C   UNL     1       2.892   3.124  17.491  0.00  0.00    +0.000 A 
ATOM     11  C   UNL     1       2.810   4.214  18.314  0.00  0.00    +0.000 A 
ATOM     12  C   UNL     1       3.740   5.221  18.269  0.00  0.00    +0.000 A 
ATOM     13  C   UNL     1       4.860   5.095  17.413  0.00  0.00    +0.000 A 
ATOM     14  O   UNL     1       1.780   4.136  19.196  0.00  0.00    +0.000 OA
ATOM     15  C   UNL     1       1.437   2.758  19.001  0.00  0.00    +0.000 C 
ATOM     16  F   UNL     1       1.947   2.049  20.042  0.00  0.00    +0.000 F 
ATOM     17  F   UNL     1       0.093   2.629  19.034  0.00  0.00    +0.000 F 
ATOM     18  O   UNL     1       1.938   2.197  17.777  0.00  0.00    +0.000 OA
ENDBRANCH   1  13
BRANCH   4  19
ATOM     19  O   UNL     1       8.975   8.605  18.729  0.00  0.00    +0.000 OA
BRANCH  19  20
ATOM     20  C   UNL     1       8.645   9.941  18.380  0.00  0.00    +0.000 C 
BRANCH  20  21
ATOM     21  C   UNL     1       9.665  10.839  19.005  0.00  0.00    +0.000 A 
ATOM     22  C   UNL     1       9.591  11.179  20.355  0.00  0.00    +0.000 A 
ATOM     23  F   UNL     1       8.602  10.686  21.115  0.00  0.00    +0.000 F 
ATOM     24  C   UNL     1      10.535  12.020  20.942  0.00  0.00    +0.000 A 
ATOM     25  C   UNL     1      11.573  12.540  20.170  0.00  0.00    +0.000 A 
ATOM     26  C   UNL     1      11.650  12.227  18.814  0.00  0.00    +0.000 A 
ATOM     27  C   UNL     1      10.696  11.388  18.245  0.00  0.00    +0.000 A 
ATOM     28  F   UNL     1      10.788  11.104  16.936  0.00  0.00    +0.000 F 
ENDBRANCH  20  21
ENDBRANCH  19  20
ENDBRANCH   4  19
TORSDOF 4
ENDMDL
MODEL 3
REMARK VINA RESULT:      -9.0      6.298      8.783
REMARK  Name = 
REMARK  5 active torsions:
REMARK  status: ('A' for Active; 'I' for Inactive)
REMARK    1  A    between atoms: C_1  and  C_2
REMARK    2  A    between atoms: C_7  and  C_8
REMARK    3  A    between atoms: C_11  and  O_12
REMARK    4  A    between atoms: O_12  and  C_13
REMARK    5  A    between atoms: C_13  and  C_14
REMARK                            x       y       z     vdW  Elec       q    Type
REMARK                         _______ _______ _______ _____ _____    ______ ____
ROOT
ATOM      1  C   UNL     1       2.503   7.641  18.491  0.00  0.00    +0.000 A 
ATOM      2  C   UNL     1       2.035   7.732  19.801  0.00  0.00    +0.000 A 
ATOM      3  N   UNL     1       1.200   8.676  20.273  0.00  0.00    +0.000 NA
ATOM      4  C   UNL     1       0.848   9.614  19.395  0.00  0.00    +0.000 A 
ATOM      5  N   UNL     1       1.262   9.680  18.120  0.00  0.00    +0.000 NA
ATOM      6  C   UNL     1       2.074   8.685  17.699  0.00  0.00    +0.000 A 
ENDROOT
BRANCH   1  13
ATOM      7  C   UNL     1       1.861   4.638  19.075  0.00  0.00    +0.000 C 
ATOM      8  C   UNL     1       3.004   5.123  18.218  0.00  0.00    +0.000 A 
ATOM      9  C   UNL     1       3.742   4.137  17.525  0.00  0.00    +0.000 A 
ATOM     10  C   UNL     1       4.795   4.534  16.732  0.00  0.00    +0.000 A 
ATOM     11  C   UNL     1       5.195   5.841  16.680  0.00  0.00    +0.000 A 
ATOM     12  C   UNL     1       4.526   6.826  17.360  0.00  0.00    +0.000 A 
ATOM     13  C   UNL     1       3.342   6.503  18.065  0.00  0.00    +0.000 A 
ATOM     14  O   UNL     1       6.246   6.040  15.843  0.00  0.00    +0.000 OA
ATOM     15  C   UNL     1       6.241   4.765  15.188  0.00  0.00    +0.000 C 
ATOM     16  F   UNL     1       5.666   4.925  13.967  0.00  0.00    +0.000 F 
ATOM     17  F   UNL     1       7.516   4.364  14.992  0.00  0.00    +0.000 F 
ATOM     18  O   UNL     1       5.526   3.744  15.900  0.00  0.00    +0.000 OA
ENDBRANCH   1  13
BRANCH   4  19
ATOM     19  O   UNL     1      -0.097  10.501  19.846  0.00  0.00    +0.000 OA
BRANCH  19  20
ATOM     20  C   UNL     1      -0.450  11.432  18.832  0.00  0.00    +0.000 C 
BRANCH  20  21
ATOM     21  C   UNL     1      -1.915  11.283  18.571  0.00  0.00    +0.000 A 
ATOM     22  C   UNL     1      -2.389  10.356  17.644  0.00  0.00    +0.000 A 
ATOM     23  F   UNL     1      -1.526   9.571  16.983  0.00  0.00    +0.000 F 
ATOM     24  C   UNL     1      -3.753  10.217  17.392  0.00  0.00    +0.000 A 
ATOM     25  C   UNL     1      -4.667  11.022  18.071  0.00  0.00    +0.000 A 
ATOM     26  C   UNL     1      -4.209  11.968  18.986  0.00  0.00    +0.000 A 
ATOM     27  C   UNL     1      -2.843  12.094  19.222  0.00  0.00    +0.000 A 
ATOM     28  F   UNL     1      -2.425  13.016  20.105  0.00  0.00    +0.000 F 
ENDBRANCH  20  21
ENDBRANCH  19  20
ENDBRANCH   4  19
TORSDOF 4
ENDMDL
MODEL 4
REMARK VINA RESULT:      -9.0      6.308      8.867
REMARK  Name = 
REMARK  5 active torsions:
REMARK  status: ('A' for Active; 'I' for Inactive)
REMARK    1  A    between atoms: C_1  and  C_2
REMARK    2  A    between atoms: C_7  and  C_8
REMARK    3  A    between atoms: C_11  and  O_12
REMARK    4  A    between atoms: O_12  and  C_13
REMARK    5  A    between atoms: C_13  and  C_14
REMARK                            x       y       z     vdW  Elec       q    Type
REMARK                         _______ _______ _______ _____ _____    ______ ____
ROOT
ATOM      1  C   UNL     1       2.496   7.658  18.464  0.00  0.00    +0.000 A 
ATOM      2  C   UNL     1       2.029   7.757  19.773  0.00  0.00    +0.000 A 
ATOM      3  N   UNL     1       1.197   8.707  20.241  0.00  0.00    +0.000 NA
ATOM      4  C   UNL     1       0.849   9.642  19.359  0.00  0.00    +0.000 A 
ATOM      5  N   UNL     1       1.263   9.701  18.083  0.00  0.00    +0.000 NA
ATOM      6  C   UNL     1       2.071   8.701  17.667  0.00  0.00    +0.000 A 
ENDROOT
BRANCH   1  13
ATOM      7  C   UNL     1       1.838   4.660  19.055  0.00  0.00    +0.000 C 
ATOM      8  C   UNL     1       2.984   5.137  18.199  0.00  0.00    +0.000 A 
ATOM      9  C   UNL     1       3.719   4.145  17.511  0.00  0.00    +0.000 A 
ATOM     10  C   UNL     1       4.776   4.534  16.719  0.00  0.00    +0.000 A 
ATOM     11  C   UNL     1       5.183   5.839  16.665  0.00  0.00    +0.000 A 
ATOM     12  C   UNL     1       4.518   6.830  17.340  0.00  0.00    +0.000 A 
ATOM     13  C   UNL     1       3.330   6.515  18.043  0.00  0.00    +0.000 A 
ATOM     14  O   UNL     1       6.237   6.031  15.829  0.00  0.00    +0.000 OA
ATOM     15  C   UNL     1       6.227   4.754  15.178  0.00  0.00    +0.000 C 
ATOM     16  F   UNL     1       5.655   4.913  13.955  0.00  0.00    +0.000 F 
ATOM     17  F   UNL     1       7.501   4.346  14.986  0.00  0.00    +0.000 F 
ATOM     18  O   UNL     1       5.505   3.738  15.891  0.00  0.00    +0.000 OA
ENDBRANCH   1  13
BRANCH   4  19
ATOM     19  O   UNL     1      -0.092  10.535  19.806  0.00  0.00    +0.000 OA
BRANCH  19  20
ATOM     20  C   UNL     1      -0.450  11.455  18.784  0.00  0.00    +0.000 C 
BRANCH  20  21
ATOM     21  C   UNL     1      -1.920  11.315  18.543  0.00  0.00    +0.000 A 
ATOM     22  C   UNL     1      -2.840  12.092  19.246  0.00  0.00    +0.000 A 
ATOM     23  F   UNL     1      -2.409  12.991  20.142  0.00  0.00    +0.000 F 
ATOM     24  C   UNL     1      -4.211  11.962  19.030  0.00  0.00    +0.000 A 
ATOM     25  C   UNL     1      -4.680  11.035  18.099  0.00  0.00    +0.000 A 
ATOM     26  C   UNL     1      -3.775  10.237  17.402  0.00  0.00    +0.000 A 
ATOM     27  C   UNL     1      -2.409  10.378  17.635  0.00  0.00    +0.000 A 
ATOM     28  F   UNL     1      -1.556   9.595  16.955  0.00  0.00    +0.000 F 
ENDBRANCH  20  21
ENDBRANCH  19  20
ENDBRANCH   4  19
TORSDOF 4
ENDMDL
MODEL 5
REMARK VINA RESULT:      -8.8      6.194      8.719
REMARK  Name = 
REMARK  5 active torsions:
REMARK  status: ('A' for Active; 'I' for Inactive)
REMARK    1  A    between atoms: C_1  and  C_2
REMARK    2  A    between atoms: C_7  and  C_8
REMARK    3  A    between atoms: C_11  and  O_12
REMARK    4  A    between atoms: O_12  and  C_13
REMARK    5  A    between atoms: C_13  and  C_14
REMARK                            x       y       z     vdW  Elec       q    Type
REMARK                         _______ _______ _______ _____ _____    ______ ____
ROOT
ATOM      1  C   UNL     1       2.640   7.366  18.594  0.00  0.00    +0.000 A 
ATOM      2  C   UNL     1       2.162   8.352  17.732  0.00  0.00    +0.000 A 
ATOM      3  N   UNL     1       1.356   9.373  18.077  0.00  0.00    +0.000 NA
ATOM      4  C   UNL     1       0.965   9.384  19.351  0.00  0.00    +0.000 A 
ATOM      5  N   UNL     1       1.304   8.472  20.276  0.00  0.00    +0.000 NA
ATOM      6  C   UNL     1       2.140   7.490  19.874  0.00  0.00    +0.000 A 
ENDROOT
BRANCH   1  13
ATOM      7  C   UNL     1       2.899   4.481  19.770  0.00  0.00    +0.000 C 
ATOM      8  C   UNL     1       3.648   4.989  18.563  0.00  0.00    +0.000 A 
ATOM      9  C   UNL     1       4.409   4.042  17.843  0.00  0.00    +0.000 A 
ATOM     10  C   UNL     1       5.111   4.461  16.735  0.00  0.00    +0.000 A 
ATOM     11  C   UNL     1       5.161   5.781  16.381  0.00  0.00    +0.000 A 
ATOM     12  C   UNL     1       4.461   6.739  17.069  0.00  0.00    +0.000 A 
ATOM     13  C   UNL     1       3.598   6.347  18.120  0.00  0.00    +0.000 A 
ATOM     14  O   UNL     1       5.897   6.001  15.260  0.00  0.00    +0.000 OA
ATOM     15  C   UNL     1       6.039   4.642  14.828  0.00  0.00    +0.000 C 
ATOM     16  F   UNL     1       5.163   4.433  13.811  0.00  0.00    +0.000 F 
ATOM     17  F   UNL     1       7.286   4.460  14.341  0.00  0.00    +0.000 F 
ATOM     18  O   UNL     1       5.785   3.671  15.856  0.00  0.00    +0.000 OA
ENDBRANCH   1  13
BRANCH   4  19
ATOM     19  O   UNL     1       0.245  10.490  19.725  0.00  0.00    +0.000 OA
BRANCH  19  20
ATOM     20  C   UNL     1      -0.107  11.277  18.595  0.00  0.00    +0.000 C 
BRANCH  20  21
ATOM     21  C   UNL     1      -1.597  11.241  18.464  0.00  0.00    +0.000 A 
ATOM     22  C   UNL     1      -2.404  12.092  19.219  0.00  0.00    +0.000 A 
ATOM     23  F   UNL     1      -1.844  12.968  20.065  0.00  0.00    +0.000 F 
ATOM     24  C   UNL     1      -3.793  12.059  19.106  0.00  0.00    +0.000 A 
ATOM     25  C   UNL     1      -4.395  11.157  18.229  0.00  0.00    +0.000 A 
ATOM     26  C   UNL     1      -3.604  10.286  17.482  0.00  0.00    +0.000 A 
ATOM     27  C   UNL     1      -2.218  10.331  17.611  0.00  0.00    +0.000 A 
ATOM     28  F   UNL     1      -1.477   9.479  16.885  0.00  0.00    +0.000 F 
ENDBRANCH  20  21
ENDBRANCH  19  20
ENDBRANCH   4  19
TORSDOF 4
ENDMDL
MODEL 6
REMARK VINA RESULT:      -8.8      1.461      1.641
REMARK  Name = 
REMARK  5 active torsions:
REMARK  status: ('A' for Active; 'I' for Inactive)
REMARK    1  A    between atoms: C_1  and  C_2
REMARK    2  A    between atoms: C_7  and  C_8
REMARK    3  A    between atoms: C_11  and  O_12
REMARK    4  A    between atoms: O_12  and  C_13
REMARK    5  A    between atoms: C_13  and  C_14
REMARK                            x       y       z     vdW  Elec       q    Type
REMARK                         _______ _______ _______ _____ _____    ______ ____
ROOT
ATOM      1  C   UNL     1       5.973   6.201  17.995  0.00  0.00    +0.000 A 
ATOM      2  C   UNL     1       7.174   6.105  18.695  0.00  0.00    +0.000 A 
ATOM      3  N   UNL     1       8.180   6.999  18.658  0.00  0.00    +0.000 NA
ATOM      4  C   UNL     1       7.993   8.030  17.834  0.00  0.00    +0.000 A 
ATOM      5  N   UNL     1       6.911   8.223  17.063  0.00  0.00    +0.000 NA
ATOM      6  C   UNL     1       5.925   7.306  17.170  0.00  0.00    +0.000 A 
ENDROOT
BRANCH   1  13
ATOM      7  C   UNL     1       5.424   3.785  16.090  0.00  0.00    +0.000 C 
ATOM      8  C   UNL     1       4.713   4.028  17.398  0.00  0.00    +0.000 A 
ATOM      9  C   UNL     1       3.840   3.011  17.846  0.00  0.00    +0.000 A 
ATOM     10  C   UNL     1       3.169   3.191  19.034  0.00  0.00    +0.000 A 
ATOM     11  C   UNL     1       3.256   4.365  19.732  0.00  0.00    +0.000 A 
ATOM     12  C   UNL     1       4.068   5.390  19.317  0.00  0.00    +0.000 A 
ATOM     13  C   UNL     1       4.902   5.203  18.189  0.00  0.00    +0.000 A 
ATOM     14  O   UNL     1       2.529   4.355  20.879  0.00  0.00    +0.000 OA
ATOM     15  C   UNL     1       2.233   2.954  20.931  0.00  0.00    +0.000 C 
ATOM     16  F   UNL     1       3.063   2.386  21.845  0.00  0.00    +0.000 F 
ATOM     17  F   UNL     1       0.965   2.786  21.367  0.00  0.00    +0.000 F 
ATOM     18  O   UNL     1       2.398   2.273  19.678  0.00  0.00    +0.000 OA
ENDBRANCH   1  13
BRANCH   4  19
ATOM     19  O   UNL     1       8.964   8.998  17.892  0.00  0.00    +0.000 OA
BRANCH  19  20
ATOM     20  C   UNL     1       8.770   9.851  19.011  0.00  0.00    +0.000 C 
BRANCH  20  21
ATOM     21  C   UNL     1       9.348  11.187  18.668  0.00  0.00    +0.000 A 
ATOM     22  C   UNL     1       8.719  12.027  17.749  0.00  0.00    +0.000 A 
ATOM     23  F   UNL     1       7.572  11.644  17.171  0.00  0.00    +0.000 F 
ATOM     24  C   UNL     1       9.255  13.270  17.421  0.00  0.00    +0.000 A 
ATOM     25  C   UNL     1      10.447  13.689  18.014  0.00  0.00    +0.000 A 
ATOM     26  C   UNL     1      11.099  12.853  18.920  0.00  0.00    +0.000 A 
ATOM     27  C   UNL     1      10.549  11.612  19.232  0.00  0.00    +0.000 A 
ATOM     28  F   UNL     1      11.197  10.823  20.104  0.00  0.00    +0.000 F 
ENDBRANCH  20  21
ENDBRANCH  19  20
ENDBRANCH   4  19
TORSDOF 4
ENDMDL
MODEL 7
REMARK VINA RESULT:      -8.8      1.454      1.787
REMARK  Name = 
REMARK  5 active torsions:
REMARK  status: ('A' for Active; 'I' for Inactive)
REMARK    1  A    between atoms: C_1  and  C_2
REMARK    2  A    between atoms: C_7  and  C_8
REMARK    3  A    between atoms: C_11  and  O_12
REMARK    4  A    between atoms: O_12  and  C_13
REMARK    5  A    between atoms: C_13  and  C_14
REMARK                            x       y       z     vdW  Elec       q    Type
REMARK                         _______ _______ _______ _____ _____    ______ ____
ROOT
ATOM      1  C   UNL     1       5.966   6.158  18.005  0.00  0.00    +0.000 A 
ATOM      2  C   UNL     1       7.166   6.063  18.708  0.00  0.00    +0.000 A 
ATOM      3  N   UNL     1       8.170   6.958  18.672  0.00  0.00    +0.000 NA
ATOM      4  C   UNL     1       7.985   7.988  17.847  0.00  0.00    +0.000 A 
ATOM      5  N   UNL     1       6.905   8.180  17.073  0.00  0.00    +0.000 NA
ATOM      6  C   UNL     1       5.919   7.261  17.179  0.00  0.00    +0.000 A 
ENDROOT
BRANCH   1  13
ATOM      7  C   UNL     1       5.435   3.729  16.111  0.00  0.00    +0.000 C 
ATOM      8  C   UNL     1       4.715   3.978  17.412  0.00  0.00    +0.000 A 
ATOM      9  C   UNL     1       3.841   2.962  17.860  0.00  0.00    +0.000 A 
ATOM     10  C   UNL     1       3.162   3.148  19.042  0.00  0.00    +0.000 A 
ATOM     11  C   UNL     1       3.241   4.326  19.733  0.00  0.00    +0.000 A 
ATOM     12  C   UNL     1       4.053   5.351  19.318  0.00  0.00    +0.000 A 
ATOM     13  C   UNL     1       4.896   5.159  18.198  0.00  0.00    +0.000 A 
ATOM     14  O   UNL     1       2.506   4.322  20.876  0.00  0.00    +0.000 OA
ATOM     15  C   UNL     1       2.213   2.920  20.934  0.00  0.00    +0.000 C 
ATOM     16  F   UNL     1       3.037   2.359  21.857  0.00  0.00    +0.000 F 
ATOM     17  F   UNL     1       0.942   2.752  21.362  0.00  0.00    +0.000 F 
ATOM     18  O   UNL     1       2.387   2.232  19.686  0.00  0.00    +0.000 OA
ENDBRANCH   1  13
BRANCH   4  19
ATOM     19  O   UNL     1       8.954   8.957  17.906  0.00  0.00    +0.000 OA
BRANCH  19  20
ATOM     20  C   UNL     1       8.692   9.881  18.954  0.00  0.00    +0.000 C 
BRANCH  20  21
ATOM     21  C   UNL     1       9.350  11.174  18.593  0.00  0.00    +0.000 A 
ATOM     22  C   UNL     1      10.575  11.537  19.151  0.00  0.00    +0.000 A 
ATOM     23  F   UNL     1      11.186  10.712  20.014  0.00  0.00    +0.000 F 
ATOM     24  C   UNL     1      11.190  12.744  18.824  0.00  0.00    +0.000 A 
ATOM     25  C   UNL     1      10.572  13.615  17.926  0.00  0.00    +0.000 A 
ATOM     26  C   UNL     1       9.338  13.277  17.374  0.00  0.00    +0.000 A 
ATOM     27  C   UNL     1       8.737  12.068  17.717  0.00  0.00    +0.000 A 
ATOM     28  F   UNL     1       7.545  11.766  17.176  0.00  0.00    +0.000 F 
ENDBRANCH  20  21
ENDBRANCH  19  20
ENDBRANCH   4  19
TORSDOF 4
ENDMDL
MODEL 8
REMARK VINA RESULT:      -8.7      6.068      9.417
REMARK  Name = 
REMARK  5 active torsions:
REMARK  status: ('A' for Active; 'I' for Inactive)
REMARK    1  A    between atoms: C_1  and  C_2
REMARK    2  A    between atoms: C_7  and  C_8
REMARK    3  A    between atoms: C_11  and  O_12
REMARK    4  A    between atoms: O_12  and  C_13
REMARK    5  A    between atoms: C_13  and  C_14
REMARK                            x       y       z     vdW  Elec       q    Type
REMARK                         _______ _______ _______ _____ _____    ______ ____
ROOT
ATOM      1  C   UNL     1       1.330   9.062  19.192  0.00  0.00    +0.000 A 
ATOM      2  C   UNL     1       1.613   7.975  20.017  0.00  0.00    +0.000 A 
ATOM      3  N   UNL     1       2.507   7.003  19.758  0.00  0.00    +0.000 NA
ATOM      4  C   UNL     1       3.123   7.097  18.580  0.00  0.00    +0.000 A 
ATOM      5  N   UNL     1       2.912   8.058  17.667  0.00  0.00    +0.000 NA
ATOM      6  C   UNL     1       2.026   9.021  18.001  0.00  0.00    +0.000 A 
ENDROOT
BRANCH   1  13
ATOM      7  C   UNL     1      -1.125  10.060  17.534  0.00  0.00    +0.000 C 
ATOM      8  C   UNL     1      -0.797  10.503  18.938  0.00  0.00    +0.000 A 
ATOM      9  C   UNL     1      -1.751  11.319  19.586  0.00  0.00    +0.000 A 
ATOM     10  C   UNL     1      -1.494  11.748  20.869  0.00  0.00    +0.000 A 
ATOM     11  C   UNL     1      -0.300  11.482  21.483  0.00  0.00    +0.000 A 
ATOM     12  C   UNL     1       0.666  10.720  20.879  0.00  0.00    +0.000 A 
ATOM     13  C   UNL     1       0.396  10.120  19.626  0.00  0.00    +0.000 A 
ATOM     14  O   UNL     1      -0.231  11.982  22.745  0.00  0.00    +0.000 OA
ATOM     15  C   UNL     1      -1.613  12.322  22.915  0.00  0.00    +0.000 C 
ATOM     16  F   UNL     1      -2.188  11.361  23.684  0.00  0.00    +0.000 F 
ATOM     17  F   UNL     1      -1.701  13.492  23.585  0.00  0.00    +0.000 F 
ATOM     18  O   UNL     1      -2.347  12.424  21.685  0.00  0.00    +0.000 OA
ENDBRANCH   1  13
BRANCH   4  19
ATOM     19  O   UNL     1       4.118   6.175  18.375  0.00  0.00    +0.000 OA
BRANCH  19  20
ATOM     20  C   UNL     1       3.751   5.242  17.368  0.00  0.00    +0.000 C 
BRANCH  20  21
ATOM     21  C   UNL     1       3.080   4.088  18.042  0.00  0.00    +0.000 A 
ATOM     22  C   UNL     1       1.704   3.891  17.929  0.00  0.00    +0.000 A 
ATOM     23  F   UNL     1       0.967   4.736  17.194  0.00  0.00    +0.000 F 
ATOM     24  C   UNL     1       1.072   2.821  18.559  0.00  0.00    +0.000 A 
ATOM     25  C   UNL     1       1.822   1.928  19.326  0.00  0.00    +0.000 A 
ATOM     26  C   UNL     1       3.195   2.122  19.466  0.00  0.00    +0.000 A 
ATOM     27  C   UNL     1       3.808   3.199  18.831  0.00  0.00    +0.000 A 
ATOM     28  F   UNL     1       5.132   3.368  18.984  0.00  0.00    +0.000 F 
ENDBRANCH  20  21
ENDBRANCH  19  20
ENDBRANCH   4  19
TORSDOF 4
ENDMDL
MODEL 9
REMARK VINA RESULT:      -8.7      6.044      9.396
REMARK  Name = 
REMARK  5 active torsions:
REMARK  status: ('A' for Active; 'I' for Inactive)
REMARK    1  A    between atoms: C_1  and  C_2
REMARK    2  A    between atoms: C_7  and  C_8
REMARK    3  A    between atoms: C_11  and  O_12
REMARK    4  A    between atoms: O_12  and  C_13
REMARK    5  A    between atoms: C_13  and  C_14
REMARK                            x       y       z     vdW  Elec       q    Type
REMARK                         _______ _______ _______ _____ _____    ______ ____
ROOT
ATOM      1  C   UNL     1       1.332   9.043  19.171  0.00  0.00    +0.000 A 
ATOM      2  C   UNL     1       1.634   7.960  19.994  0.00  0.00    +0.000 A 
ATOM      3  N   UNL     1       2.530   6.992  19.723  0.00  0.00    +0.000 NA
ATOM      4  C   UNL     1       3.126   7.087  18.535  0.00  0.00    +0.000 A 
ATOM      5  N   UNL     1       2.895   8.044  17.623  0.00  0.00    +0.000 NA
ATOM      6  C   UNL     1       2.008   9.003  17.969  0.00  0.00    +0.000 A 
ENDROOT
BRANCH   1  13
ATOM      7  C   UNL     1      -1.077  10.117  17.493  0.00  0.00    +0.000 C 
ATOM      8  C   UNL     1      -0.776  10.512  18.918  0.00  0.00    +0.000 A 
ATOM      9  C   UNL     1      -1.736  11.317  19.570  0.00  0.00    +0.000 A 
ATOM     10  C   UNL     1      -1.503  11.703  20.871  0.00  0.00    +0.000 A 
ATOM     11  C   UNL     1      -0.326  11.406  21.502  0.00  0.00    +0.000 A 
ATOM     12  C   UNL     1       0.647  10.653  20.895  0.00  0.00    +0.000 A 
ATOM     13  C   UNL     1       0.398  10.096  19.619  0.00  0.00    +0.000 A 
ATOM     14  O   UNL     1      -0.279  11.866  22.780  0.00  0.00    +0.000 OA
ATOM     15  C   UNL     1      -1.661  12.214  22.931  0.00  0.00    +0.000 C 
ATOM     16  F   UNL     1      -2.262  11.235  23.657  0.00  0.00    +0.000 F 
ATOM     17  F   UNL     1      -1.752  13.364  23.636  0.00  0.00    +0.000 F 
ATOM     18  O   UNL     1      -2.367  12.362  21.689  0.00  0.00    +0.000 OA
ENDBRANCH   1  13
BRANCH   4  19
ATOM     19  O   UNL     1       4.123   6.170  18.315  0.00  0.00    +0.000 OA
BRANCH  19  20
ATOM     20  C   UNL     1       3.723   5.198  17.360  0.00  0.00    +0.000 C 
BRANCH  20  21
ATOM     21  C   UNL     1       3.037   4.093  18.099  0.00  0.00    +0.000 A 
ATOM     22  C   UNL     1       3.758   3.211  18.903  0.00  0.00    +0.000 A 
ATOM     23  F   UNL     1       5.084   3.357  19.033  0.00  0.00    +0.000 F 
ATOM     24  C   UNL     1       3.125   2.176  19.590  0.00  0.00    +0.000 A 
ATOM     25  C   UNL     1       1.745   2.008  19.471  0.00  0.00    +0.000 A 
ATOM     26  C   UNL     1       1.012   2.869  18.656  0.00  0.00    +0.000 A 
ATOM     27  C   UNL     1       1.663   3.895  17.975  0.00  0.00    +0.000 A 
ATOM     28  F   UNL     1       0.936   4.709  17.192  0.00  0.00    +0.000 F 
ENDBRANCH  20  21
ENDBRANCH  19  20
ENDBRANCH   4  19
TORSDOF 4
ENDMDL
