MODEL 1
REMARK VINA RESULT:      -8.6      0.000      0.000
REMARK  Name = 
REMARK  4 active torsions:
REMARK  status: ('A' for Active; 'I' for Inactive)
REMARK    1  A    between atoms: C_5  and  C_6
REMARK    2  A    between atoms: N_8  and  C_9
REMARK    3  A    between atoms: C_9  and  C_10
REMARK    4  A    between atoms: C_13  and  N_14
REMARK                            x       y       z     vdW  Elec       q    Type
REMARK                         _______ _______ _______ _____ _____    ______ ____
ROOT
ATOM      1  C   UNL     1       3.629   5.195  18.360  0.00  0.00    +0.000 C 
ATOM      2  O   UNL     1       4.556   5.477  19.115  0.00  0.00    +0.000 OA
ATOM      3  N   UNL     1       2.818   6.140  17.781  0.00  0.00    +0.000 N 
ATOM      4  H   UNL     1       2.148   5.822  17.091  0.00  0.00    +0.000 HD
ENDROOT
BRANCH   1   9
ATOM      5  O   UNL     1       1.942   2.928  22.132  0.00  0.00    +0.000 OA
ATOM      6  C   UNL     1       2.407   3.220  21.029  0.00  0.00    +0.000 C 
ATOM      7  C   UNL     1       1.534   3.838  19.958  0.00  0.00    +0.000 C 
ATOM      8  C   UNL     1       1.806   3.401  18.527  0.00  0.00    +0.000 C 
ATOM      9  C   UNL     1       3.222   3.731  18.062  0.00  0.00    +0.000 C 
ATOM     10  N   UNL     1       4.159   2.735  18.567  0.00  0.00    +0.000 N 
ATOM     11  C   UNL     1       4.294   2.337  19.848  0.00  0.00    +0.000 C 
ATOM     12  O   UNL     1       4.965   1.343  20.115  0.00  0.00    +0.000 OA
ATOM     13  N   UNL     1       3.756   3.106  20.830  0.00  0.00    +0.000 N 
ATOM     14  H   UNL     1       4.550   2.076  17.897  0.00  0.00    +0.000 HD
ATOM     15  H   UNL     1       4.116   2.733  21.704  0.00  0.00    +0.000 HD
ENDBRANCH   1   9
BRANCH   3  16
ATOM     16  C   UNL     1       3.144   7.546  17.817  0.00  0.00    +0.000 C 
BRANCH  16  17
ATOM     17  C   UNL     1       2.181   8.280  18.704  0.00  0.00    +0.000 A 
ATOM     18  C   UNL     1       1.611   9.474  18.264  0.00  0.00    +0.000 A 
ATOM     19  C   UNL     1       0.763  10.210  19.092  0.00  0.00    +0.000 A 
ATOM     20  C   UNL     1       0.478   9.795  20.397  0.00  0.00    +0.000 A 
ATOM     21  C   UNL     1       1.041   8.583  20.829  0.00  0.00    +0.000 A 
ATOM     22  C   UNL     1       1.881   7.832  19.994  0.00  0.00    +0.000 A 
BRANCH  20  23
ATOM     23  N   UNL     1      -0.319  10.589  21.267  0.00  0.00    +0.000 N 
ATOM     24  C   UNL     1      -1.389  11.429  20.782  0.00  0.00    +0.000 C 
ATOM     25  C   UNL     1      -1.810  12.241  21.988  0.00  0.00    +0.000 C 
ATOM     26  C   UNL     1      -1.517  11.326  23.159  0.00  0.00    +0.000 C 
ATOM     27  C   UNL     1      -0.370  10.480  22.667  0.00  0.00    +0.000 C 
ATOM     28  O   UNL     1       0.317   9.810  23.423  0.00  0.00    +0.000 OA
ENDBRANCH  20  23
ENDBRANCH  16  17
ENDBRANCH   3  16
TORSDOF 4
ENDMDL
MODEL 2
REMARK VINA RESULT:      -8.5      0.714      1.199
REMARK  Name = 
REMARK  4 active torsions:
REMARK  status: ('A' for Active; 'I' for Inactive)
REMARK    1  A    between atoms: C_5  and  C_6
REMARK    2  A    between atoms: N_8  and  C_9
REMARK    3  A    between atoms: C_9  and  C_10
REMARK    4  A    between atoms: C_13  and  N_14
REMARK                            x       y       z     vdW  Elec       q    Type
REMARK                         _______ _______ _______ _____ _____    ______ ____
ROOT
ATOM      1  C   UNL     1       2.952   5.070  18.197  0.00  0.00    +0.000 C 
ATOM      2  O   UNL     1       4.100   5.093  18.632  0.00  0.00    +0.000 OA
ATOM      3  N   UNL     1       2.222   6.206  17.946  0.00  0.00    +0.000 N 
ATOM      4  H   UNL     1       1.325   6.094  17.490  0.00  0.00    +0.000 HD
ENDROOT
BRANCH   1   9
ATOM      5  O   UNL     1       2.673   2.413  22.080  0.00  0.00    +0.000 OA
ATOM      6  C   UNL     1       2.656   2.833  20.922  0.00  0.00    +0.000 C 
ATOM      7  C   UNL     1       1.544   3.739  20.440  0.00  0.00    +0.000 C 
ATOM      8  C   UNL     1       1.072   3.529  19.010  0.00  0.00    +0.000 C 
ATOM      9  C   UNL     1       2.176   3.748  17.979  0.00  0.00    +0.000 C 
ATOM     10  N   UNL     1       3.022   2.565  17.895  0.00  0.00    +0.000 N 
ATOM     11  C   UNL     1       3.622   1.933  18.923  0.00  0.00    +0.000 C 
ATOM     12  O   UNL     1       4.133   0.828  18.753  0.00  0.00    +0.000 OA
ATOM     13  N   UNL     1       3.731   2.579  20.113  0.00  0.00    +0.000 N 
ATOM     14  H   UNL     1       2.944   1.989  17.059  0.00  0.00    +0.000 HD
ATOM     15  H   UNL     1       4.356   2.014  20.681  0.00  0.00    +0.000 HD
ENDBRANCH   1   9
BRANCH   3  16
ATOM     16  C   UNL     1       2.831   7.515  17.940  0.00  0.00    +0.000 C 
BRANCH  16  17
ATOM     17  C   UNL     1       2.058   8.453  18.820  0.00  0.00    +0.000 A 
ATOM     18  C   UNL     1       1.743   8.072  20.124  0.00  0.00    +0.000 A 
ATOM     19  C   UNL     1       0.970   8.897  20.942  0.00  0.00    +0.000 A 
ATOM     20  C   UNL     1       0.462  10.114  20.478  0.00  0.00    +0.000 A 
ATOM     21  C   UNL     1       0.795  10.500  19.170  0.00  0.00    +0.000 A 
ATOM     22  C   UNL     1       1.585   9.681  18.349  0.00  0.00    +0.000 A 
BRANCH  20  23
ATOM     23  N   UNL     1      -0.395  10.913  21.286  0.00  0.00    +0.000 N 
ATOM     24  C   UNL     1      -1.385  11.799  20.719  0.00  0.00    +0.000 C 
ATOM     25  C   UNL     1      -1.901  12.596  21.898  0.00  0.00    +0.000 C 
ATOM     26  C   UNL     1      -1.755  11.643  23.067  0.00  0.00    +0.000 C 
ATOM     27  C   UNL     1      -0.591  10.772  22.670  0.00  0.00    +0.000 C 
ATOM     28  O   UNL     1      -0.004  10.061  23.472  0.00  0.00    +0.000 OA
ENDBRANCH  20  23
ENDBRANCH  16  17
ENDBRANCH   3  16
TORSDOF 4
ENDMDL
MODEL 3
REMARK VINA RESULT:      -8.5      2.819      4.491
REMARK  Name = 
REMARK  4 active torsions:
REMARK  status: ('A' for Active; 'I' for Inactive)
REMARK    1  A    between atoms: C_5  and  C_6
REMARK    2  A    between atoms: N_8  and  C_9
REMARK    3  A    between atoms: C_9  and  C_10
REMARK    4  A    between atoms: C_13  and  N_14
REMARK                            x       y       z     vdW  Elec       q    Type
REMARK                         _______ _______ _______ _____ _____    ______ ____
ROOT
ATOM      1  C   UNL     1       4.990   4.542  18.571  0.00  0.00    +0.000 C 
ATOM      2  O   UNL     1       5.414   4.079  19.626  0.00  0.00    +0.000 OA
ATOM      3  N   UNL     1       3.800   5.221  18.473  0.00  0.00    +0.000 N 
ATOM      4  H   UNL     1       3.582   5.658  17.586  0.00  0.00    +0.000 HD
ENDROOT
BRANCH   1   9
ATOM      5  O   UNL     1       7.867   8.086  17.395  0.00  0.00    +0.000 OA
ATOM      6  C   UNL     1       7.152   7.082  17.391  0.00  0.00    +0.000 C 
ATOM      7  C   UNL     1       7.621   5.791  18.027  0.00  0.00    +0.000 C 
ATOM      8  C   UNL     1       7.226   4.505  17.319  0.00  0.00    +0.000 C 
ATOM      9  C   UNL     1       5.713   4.319  17.221  0.00  0.00    +0.000 C 
ATOM     10  N   UNL     1       5.184   5.113  16.120  0.00  0.00    +0.000 N 
ATOM     11  C   UNL     1       5.391   6.428  15.906  0.00  0.00    +0.000 C 
ATOM     12  O   UNL     1       5.069   6.934  14.833  0.00  0.00    +0.000 OA
ATOM     13  N   UNL     1       5.869   7.187  16.924  0.00  0.00    +0.000 N 
ATOM     14  H   UNL     1       4.870   4.614  15.289  0.00  0.00    +0.000 HD
ATOM     15  H   UNL     1       5.784   8.152  16.617  0.00  0.00    +0.000 HD
ENDBRANCH   1   9
BRANCH   3  16
ATOM     16  C   UNL     1       3.077   5.658  19.644  0.00  0.00    +0.000 C 
BRANCH  16  17
ATOM     17  C   UNL     1       2.461   7.006  19.401  0.00  0.00    +0.000 A 
ATOM     18  C   UNL     1       1.786   7.651  20.437  0.00  0.00    +0.000 A 
ATOM     19  C   UNL     1       1.149   8.874  20.222  0.00  0.00    +0.000 A 
ATOM     20  C   UNL     1       1.139   9.479  18.961  0.00  0.00    +0.000 A 
ATOM     21  C   UNL     1       1.834   8.832  17.926  0.00  0.00    +0.000 A 
ATOM     22  C   UNL     1       2.489   7.611  18.142  0.00  0.00    +0.000 A 
BRANCH  20  23
ATOM     23  N   UNL     1       0.418  10.683  18.725  0.00  0.00    +0.000 N 
ATOM     24  C   UNL     1      -1.025  10.722  18.678  0.00  0.00    +0.000 C 
ATOM     25  C   UNL     1      -1.351  12.118  18.195  0.00  0.00    +0.000 C 
ATOM     26  C   UNL     1      -0.202  12.956  18.714  0.00  0.00    +0.000 C 
ATOM     27  C   UNL     1       0.948  11.983  18.773  0.00  0.00    +0.000 C 
ATOM     28  O   UNL     1       2.108  12.349  18.887  0.00  0.00    +0.000 OA
ENDBRANCH  20  23
ENDBRANCH  16  17
ENDBRANCH   3  16
TORSDOF 4
ENDMDL
MODEL 4
REMARK VINA RESULT:      -8.3      4.503      7.981
REMARK  Name = 
REMARK  4 active torsions:
REMARK  status: ('A' for Active; 'I' for Inactive)
REMARK    1  A    between atoms: C_5  and  C_6
REMARK    2  A    between atoms: N_8  and  C_9
REMARK    3  A    between atoms: C_9  and  C_10
REMARK    4  A    between atoms: C_13  and  N_14
REMARK                            x       y       z     vdW  Elec       q    Type
REMARK                         _______ _______ _______ _____ _____    ______ ____
ROOT
ATOM      1  C   UNL     1       2.768   5.210  19.737  0.00  0.00    +0.000 C 
ATOM      2  O   UNL     1       2.194   6.043  19.040  0.00  0.00    +0.000 OA
ATOM      3  N   UNL     1       4.135   5.115  19.819  0.00  0.00    +0.000 N 
ATOM      4  H   UNL     1       4.519   4.469  20.498  0.00  0.00    +0.000 HD
ENDROOT
BRANCH   1   9
ATOM      5  O   UNL     1       3.850   0.832  18.365  0.00  0.00    +0.000 OA
ATOM      6  C   UNL     1       3.317   1.826  18.862  0.00  0.00    +0.000 C 
ATOM      7  C   UNL     1       3.909   2.497  20.083  0.00  0.00    +0.000 C 
ATOM      8  C   UNL     1       2.920   3.045  21.100  0.00  0.00    +0.000 C 
ATOM      9  C   UNL     1       2.000   4.117  20.520  0.00  0.00    +0.000 C 
ATOM     10  N   UNL     1       0.917   3.494  19.771  0.00  0.00    +0.000 N 
ATOM     11  C   UNL     1       1.042   2.573  18.795  0.00  0.00    +0.000 C 
ATOM     12  O   UNL     1       0.052   1.969  18.389  0.00  0.00    +0.000 OA
ATOM     13  N   UNL     1       2.256   2.400  18.213  0.00  0.00    +0.000 N 
ATOM     14  H   UNL     1      -0.014   3.522  20.181  0.00  0.00    +0.000 HD
ATOM     15  H   UNL     1       2.096   1.806  17.404  0.00  0.00    +0.000 HD
ENDBRANCH   1   9
BRANCH   3  16
ATOM     16  C   UNL     1       5.001   6.141  19.289  0.00  0.00    +0.000 C 
BRANCH  16  17
ATOM     17  C   UNL     1       5.486   5.756  17.921  0.00  0.00    +0.000 A 
ATOM     18  C   UNL     1       4.963   6.398  16.799  0.00  0.00    +0.000 A 
ATOM     19  C   UNL     1       5.348   6.016  15.513  0.00  0.00    +0.000 A 
ATOM     20  C   UNL     1       6.245   4.964  15.303  0.00  0.00    +0.000 A 
ATOM     21  C   UNL     1       6.781   4.333  16.437  0.00  0.00    +0.000 A 
ATOM     22  C   UNL     1       6.409   4.724  17.732  0.00  0.00    +0.000 A 
BRANCH  20  23
ATOM     23  N   UNL     1       6.571   4.523  13.990  0.00  0.00    +0.000 N 
ATOM     24  C   UNL     1       5.704   3.652  13.231  0.00  0.00    +0.000 C 
ATOM     25  C   UNL     1       6.521   3.268  12.017  0.00  0.00    +0.000 C 
ATOM     26  C   UNL     1       7.417   4.468  11.791  0.00  0.00    +0.000 C 
ATOM     27  C   UNL     1       7.585   5.049  13.172  0.00  0.00    +0.000 C 
ATOM     28  O   UNL     1       8.455   5.865  13.435  0.00  0.00    +0.000 OA
ENDBRANCH  20  23
ENDBRANCH  16  17
ENDBRANCH   3  16
TORSDOF 4
ENDMDL
MODEL 5
REMARK VINA RESULT:      -8.3      2.812      4.457
REMARK  Name = 
REMARK  4 active torsions:
REMARK  status: ('A' for Active; 'I' for Inactive)
REMARK    1  A    between atoms: C_5  and  C_6
REMARK    2  A    between atoms: N_8  and  C_9
REMARK    3  A    between atoms: C_9  and  C_10
REMARK    4  A    between atoms: C_13  and  N_14
REMARK                            x       y       z     vdW  Elec       q    Type
REMARK                         _______ _______ _______ _____ _____    ______ ____
ROOT
ATOM      1  C   UNL     1       5.007   4.427  18.461  0.00  0.00    +0.000 C 
ATOM      2  O   UNL     1       5.332   3.767  19.444  0.00  0.00    +0.000 OA
ATOM      3  N   UNL     1       3.915   5.260  18.445  0.00  0.00    +0.000 N 
ATOM      4  H   UNL     1       3.785   5.844  17.628  0.00  0.00    +0.000 HD
ENDROOT
BRANCH   1   9
ATOM      5  O   UNL     1       7.820   8.098  17.551  0.00  0.00    +0.000 OA
ATOM      6  C   UNL     1       7.125   7.083  17.474  0.00  0.00    +0.000 C 
ATOM      7  C   UNL     1       7.616   5.762  18.025  0.00  0.00    +0.000 C 
ATOM      8  C   UNL     1       7.252   4.519  17.228  0.00  0.00    +0.000 C 
ATOM      9  C   UNL     1       5.745   4.310  17.105  0.00  0.00    +0.000 C 
ATOM     10  N   UNL     1       5.207   5.166  16.055  0.00  0.00    +0.000 N 
ATOM     11  C   UNL     1       5.389   6.496  15.932  0.00  0.00    +0.000 C 
ATOM     12  O   UNL     1       5.064   7.067  14.894  0.00  0.00    +0.000 OA
ATOM     13  N   UNL     1       5.844   7.195  17.004  0.00  0.00    +0.000 N 
ATOM     14  H   UNL     1       4.909   4.719  15.191  0.00  0.00    +0.000 HD
ATOM     15  H   UNL     1       5.741   8.175  16.761  0.00  0.00    +0.000 HD
ENDBRANCH   1   9
BRANCH   3  16
ATOM     16  C   UNL     1       3.211   5.613  19.654  0.00  0.00    +0.000 C 
BRANCH  16  17
ATOM     17  C   UNL     1       2.462   6.900  19.463  0.00  0.00    +0.000 A 
ATOM     18  C   UNL     1       2.441   7.505  18.207  0.00  0.00    +0.000 A 
ATOM     19  C   UNL     1       1.808   8.734  18.016  0.00  0.00    +0.000 A 
ATOM     20  C   UNL     1       1.200   9.413  19.076  0.00  0.00    +0.000 A 
ATOM     21  C   UNL     1       1.210   8.791  20.335  0.00  0.00    +0.000 A 
ATOM     22  C   UNL     1       1.832   7.549  20.529  0.00  0.00    +0.000 A 
BRANCH  20  23
ATOM     23  N   UNL     1       0.628  10.704  18.896  0.00  0.00    +0.000 N 
ATOM     24  C   UNL     1       1.435  11.896  18.785  0.00  0.00    +0.000 C 
ATOM     25  C   UNL     1       0.439  13.034  18.828  0.00  0.00    +0.000 C 
ATOM     26  C   UNL     1      -0.812  12.440  18.215  0.00  0.00    +0.000 C 
ATOM     27  C   UNL     1      -0.705  10.973  18.544  0.00  0.00    +0.000 C 
ATOM     28  O   UNL     1      -1.656  10.211  18.450  0.00  0.00    +0.000 OA
ENDBRANCH  20  23
ENDBRANCH  16  17
ENDBRANCH   3  16
TORSDOF 4
ENDMDL
MODEL 6
REMARK VINA RESULT:      -8.3      0.909      1.155
REMARK  Name = 
REMARK  4 active torsions:
REMARK  status: ('A' for Active; 'I' for Inactive)
REMARK    1  A    between atoms: C_5  and  C_6
REMARK    2  A    between atoms: N_8  and  C_9
REMARK    3  A    between atoms: C_9  and  C_10
REMARK    4  A    between atoms: C_13  and  N_14
REMARK                            x       y       z     vdW  Elec       q    Type
REMARK                         _______ _______ _______ _____ _____    ______ ____
ROOT
ATOM      1  C   UNL     1       3.689   5.038  18.365  0.00  0.00    +0.000 C 
ATOM      2  O   UNL     1       4.583   5.364  19.141  0.00  0.00    +0.000 OA
ATOM      3  N   UNL     1       2.877   5.947  17.731  0.00  0.00    +0.000 N 
ATOM      4  H   UNL     1       2.239   5.594  17.029  0.00  0.00    +0.000 HD
ENDROOT
BRANCH   1   9
ATOM      5  O   UNL     1       1.896   2.850  22.136  0.00  0.00    +0.000 OA
ATOM      6  C   UNL     1       2.400   3.119  21.043  0.00  0.00    +0.000 C 
ATOM      7  C   UNL     1       1.559   3.685  19.919  0.00  0.00    +0.000 C 
ATOM      8  C   UNL     1       1.898   3.210  18.515  0.00  0.00    +0.000 C 
ATOM      9  C   UNL     1       3.325   3.557  18.097  0.00  0.00    +0.000 C 
ATOM     10  N   UNL     1       4.260   2.598  18.670  0.00  0.00    +0.000 N 
ATOM     11  C   UNL     1       4.351   2.243  19.967  0.00  0.00    +0.000 C 
ATOM     12  O   UNL     1       5.032   1.272  20.292  0.00  0.00    +0.000 OA
ATOM     13  N   UNL     1       3.758   3.029  20.902  0.00  0.00    +0.000 N 
ATOM     14  H   UNL     1       4.693   1.928  18.038  0.00  0.00    +0.000 HD
ATOM     15  H   UNL     1       4.090   2.691  21.801  0.00  0.00    +0.000 HD
ENDBRANCH   1   9
BRANCH   3  16
ATOM     16  C   UNL     1       3.170   7.360  17.737  0.00  0.00    +0.000 C 
BRANCH  16  17
ATOM     17  C   UNL     1       2.247   8.079  18.678  0.00  0.00    +0.000 A 
ATOM     18  C   UNL     1       1.625   9.257  18.267  0.00  0.00    +0.000 A 
ATOM     19  C   UNL     1       0.814   9.980  19.143  0.00  0.00    +0.000 A 
ATOM     20  C   UNL     1       0.619   9.567  20.465  0.00  0.00    +0.000 A 
ATOM     21  C   UNL     1       1.235   8.371  20.868  0.00  0.00    +0.000 A 
ATOM     22  C   UNL     1       2.039   7.633  19.986  0.00  0.00    +0.000 A 
BRANCH  20  23
ATOM     23  N   UNL     1      -0.140  10.350  21.379  0.00  0.00    +0.000 N 
ATOM     24  C   UNL     1      -0.458   9.889  22.710  0.00  0.00    +0.000 C 
ATOM     25  C   UNL     1      -1.440  10.910  23.241  0.00  0.00    +0.000 C 
ATOM     26  C   UNL     1      -1.039  12.192  22.541  0.00  0.00    +0.000 C 
ATOM     27  C   UNL     1      -0.444  11.715  21.241  0.00  0.00    +0.000 C 
ATOM     28  O   UNL     1      -0.253  12.464  20.296  0.00  0.00    +0.000 OA
ENDBRANCH  20  23
ENDBRANCH  16  17
ENDBRANCH   3  16
TORSDOF 4
ENDMDL
MODEL 7
REMARK VINA RESULT:      -8.2      1.539      1.988
REMARK  Name = 
REMARK  4 active torsions:
REMARK  status: ('A' for Active; 'I' for Inactive)
REMARK    1  A    between atoms: C_5  and  C_6
REMARK    2  A    between atoms: N_8  and  C_9
REMARK    3  A    between atoms: C_9  and  C_10
REMARK    4  A    between atoms: C_13  and  N_14
REMARK                            x       y       z     vdW  Elec       q    Type
REMARK                         _______ _______ _______ _____ _____    ______ ____
ROOT
ATOM      1  C   UNL     1       2.418   3.935  17.555  0.00  0.00    +0.000 C 
ATOM      2  O   UNL     1       1.402   4.501  17.161  0.00  0.00    +0.000 OA
ATOM      3  N   UNL     1       3.648   4.544  17.595  0.00  0.00    +0.000 N 
ATOM      4  H   UNL     1       4.407   4.036  18.033  0.00  0.00    +0.000 HD
ENDROOT
BRANCH   1   9
ATOM      5  O   UNL     1       2.038   3.254  22.204  0.00  0.00    +0.000 OA
ATOM      6  C   UNL     1       2.233   3.124  20.994  0.00  0.00    +0.000 C 
ATOM      7  C   UNL     1       1.072   3.011  20.029  0.00  0.00    +0.000 C 
ATOM      8  C   UNL     1       1.257   2.058  18.858  0.00  0.00    +0.000 C 
ATOM      9  C   UNL     1       2.429   2.440  17.957  0.00  0.00    +0.000 C 
ATOM     10  N   UNL     1       3.681   1.988  18.548  0.00  0.00    +0.000 N 
ATOM     11  C   UNL     1       4.109   2.231  19.803  0.00  0.00    +0.000 C 
ATOM     12  O   UNL     1       5.078   1.621  20.251  0.00  0.00    +0.000 OA
ATOM     13  N   UNL     1       3.512   3.220  20.517  0.00  0.00    +0.000 N 
ATOM     14  H   UNL     1       4.152   1.201  18.107  0.00  0.00    +0.000 HD
ATOM     15  H   UNL     1       4.087   3.353  21.344  0.00  0.00    +0.000 HD
ENDBRANCH   1   9
BRANCH   3  16
ATOM     16  C   UNL     1       3.798   5.968  17.412  0.00  0.00    +0.000 C 
BRANCH  16  17
ATOM     17  C   UNL     1       2.912   6.711  18.370  0.00  0.00    +0.000 A 
ATOM     18  C   UNL     1       2.322   7.910  17.972  0.00  0.00    +0.000 A 
ATOM     19  C   UNL     1       1.547   8.655  18.863  0.00  0.00    +0.000 A 
ATOM     20  C   UNL     1       1.358   8.243  20.186  0.00  0.00    +0.000 A 
ATOM     21  C   UNL     1       1.941   7.026  20.575  0.00  0.00    +0.000 A 
ATOM     22  C   UNL     1       2.709   6.266  19.679  0.00  0.00    +0.000 A 
BRANCH  20  23
ATOM     23  N   UNL     1       0.638   9.045  21.114  0.00  0.00    +0.000 N 
ATOM     24  C   UNL     1       1.000   9.123  22.510  0.00  0.00    +0.000 C 
ATOM     25  C   UNL     1      -0.135   9.890  23.154  0.00  0.00    +0.000 C 
ATOM     26  C   UNL     1      -0.627  10.800  22.048  0.00  0.00    +0.000 C 
ATOM     27  C   UNL     1      -0.304  10.036  20.790  0.00  0.00    +0.000 C 
ATOM     28  O   UNL     1      -0.791  10.324  19.708  0.00  0.00    +0.000 OA
ENDBRANCH  20  23
ENDBRANCH  16  17
ENDBRANCH   3  16
TORSDOF 4
ENDMDL
MODEL 8
REMARK VINA RESULT:      -8.2      1.538      2.106
REMARK  Name = 
REMARK  4 active torsions:
REMARK  status: ('A' for Active; 'I' for Inactive)
REMARK    1  A    between atoms: C_5  and  C_6
REMARK    2  A    between atoms: N_8  and  C_9
REMARK    3  A    between atoms: C_9  and  C_10
REMARK    4  A    between atoms: C_13  and  N_14
REMARK                            x       y       z     vdW  Elec       q    Type
REMARK                         _______ _______ _______ _____ _____    ______ ____
ROOT
ATOM      1  C   UNL     1       4.363   3.877  18.050  0.00  0.00    +0.000 C 
ATOM      2  O   UNL     1       4.551   3.695  16.850  0.00  0.00    +0.000 OA
ATOM      3  N   UNL     1       4.232   5.125  18.608  0.00  0.00    +0.000 N 
ATOM      4  H   UNL     1       3.975   5.175  19.587  0.00  0.00    +0.000 HD
ENDROOT
BRANCH   1   9
ATOM      5  O   UNL     1       0.052   2.145  18.845  0.00  0.00    +0.000 OA
ATOM      6  C   UNL     1       1.248   2.435  18.907  0.00  0.00    +0.000 C 
ATOM      7  C   UNL     1       2.251   1.799  17.969  0.00  0.00    +0.000 C 
ATOM      8  C   UNL     1       3.617   1.478  18.555  0.00  0.00    +0.000 C 
ATOM      9  C   UNL     1       4.351   2.713  19.071  0.00  0.00    +0.000 C 
ATOM     10  N   UNL     1       3.847   3.078  20.389  0.00  0.00    +0.000 N 
ATOM     11  C   UNL     1       2.558   3.267  20.732  0.00  0.00    +0.000 C 
ATOM     12  O   UNL     1       2.243   3.362  21.916  0.00  0.00    +0.000 OA
ATOM     13  N   UNL     1       1.639   3.443  19.746  0.00  0.00    +0.000 N 
ATOM     14  H   UNL     1       4.455   2.909  21.188  0.00  0.00    +0.000 HD
ATOM     15  H   UNL     1       0.786   3.740  20.210  0.00  0.00    +0.000 HD
ENDBRANCH   1   9
BRANCH   3  16
ATOM     16  C   UNL     1       4.059   6.306  17.797  0.00  0.00    +0.000 C 
BRANCH  16  17
ATOM     17  C   UNL     1       3.031   7.212  18.409  0.00  0.00    +0.000 A 
ATOM     18  C   UNL     1       2.605   8.341  17.711  0.00  0.00    +0.000 A 
ATOM     19  C   UNL     1       1.698   9.235  18.283  0.00  0.00    +0.000 A 
ATOM     20  C   UNL     1       1.209   9.048  19.579  0.00  0.00    +0.000 A 
ATOM     21  C   UNL     1       1.629   7.900  20.271  0.00  0.00    +0.000 A 
ATOM     22  C   UNL     1       2.528   6.990  19.694  0.00  0.00    +0.000 A 
BRANCH  20  23
ATOM     23  N   UNL     1       0.350  10.003  20.191  0.00  0.00    +0.000 N 
ATOM     24  C   UNL     1      -0.869  10.457  19.565  0.00  0.00    +0.000 C 
ATOM     25  C   UNL     1      -1.339  11.602  20.434  0.00  0.00    +0.000 C 
ATOM     26  C   UNL     1      -0.829  11.240  21.814  0.00  0.00    +0.000 C 
ATOM     27  C   UNL     1       0.406  10.423  21.531  0.00  0.00    +0.000 C 
ATOM     28  O   UNL     1       1.238  10.179  22.390  0.00  0.00    +0.000 OA
ENDBRANCH  20  23
ENDBRANCH  16  17
ENDBRANCH   3  16
TORSDOF 4
ENDMDL
MODEL 9
REMARK VINA RESULT:      -8.2      2.587      4.198
REMARK  Name = 
REMARK  4 active torsions:
REMARK  status: ('A' for Active; 'I' for Inactive)
REMARK    1  A    between atoms: C_5  and  C_6
REMARK    2  A    between atoms: N_8  and  C_9
REMARK    3  A    between atoms: C_9  and  C_10
REMARK    4  A    between atoms: C_13  and  N_14
REMARK                            x       y       z     vdW  Elec       q    Type
REMARK                         _______ _______ _______ _____ _____    ______ ____
ROOT
ATOM      1  C   UNL     1       4.959   4.368  18.539  0.00  0.00    +0.000 C 
ATOM      2  O   UNL     1       5.366   3.726  19.504  0.00  0.00    +0.000 OA
ATOM      3  N   UNL     1       3.834   5.153  18.580  0.00  0.00    +0.000 N 
ATOM      4  H   UNL     1       3.635   5.728  17.770  0.00  0.00    +0.000 HD
ENDROOT
BRANCH   1   9
ATOM      5  O   UNL     1       7.875   7.959  17.634  0.00  0.00    +0.000 OA
ATOM      6  C   UNL     1       7.136   6.976  17.551  0.00  0.00    +0.000 C 
ATOM      7  C   UNL     1       7.598   5.616  18.027  0.00  0.00    +0.000 C 
ATOM      8  C   UNL     1       7.146   4.421  17.202  0.00  0.00    +0.000 C 
ATOM      9  C   UNL     1       5.627   4.277  17.145  0.00  0.00    +0.000 C 
ATOM     10  N   UNL     1       5.076   5.194  16.156  0.00  0.00    +0.000 N 
ATOM     11  C   UNL     1       5.306   6.520  16.075  0.00  0.00    +0.000 C 
ATOM     12  O   UNL     1       4.957   7.145  15.077  0.00  0.00    +0.000 OA
ATOM     13  N   UNL     1       5.840   7.156  17.150  0.00  0.00    +0.000 N 
ATOM     14  H   UNL     1       4.719   4.794  15.291  0.00  0.00    +0.000 HD
ATOM     15  H   UNL     1       5.766   8.150  16.950  0.00  0.00    +0.000 HD
ENDBRANCH   1   9
BRANCH   3  16
ATOM     16  C   UNL     1       3.182   5.481  19.826  0.00  0.00    +0.000 C 
BRANCH  16  17
ATOM     17  C   UNL     1       2.416   6.765  19.690  0.00  0.00    +0.000 A 
ATOM     18  C   UNL     1       2.483   7.483  18.497  0.00  0.00    +0.000 A 
ATOM     19  C   UNL     1       1.834   8.712  18.365  0.00  0.00    +0.000 A 
ATOM     20  C   UNL     1       1.120   9.277  19.427  0.00  0.00    +0.000 A 
ATOM     21  C   UNL     1       1.041   8.540  20.620  0.00  0.00    +0.000 A 
ATOM     22  C   UNL     1       1.680   7.298  20.752  0.00  0.00    +0.000 A 
BRANCH  20  23
ATOM     23  N   UNL     1       0.529  10.566  19.317  0.00  0.00    +0.000 N 
ATOM     24  C   UNL     1      -0.600  10.827  18.455  0.00  0.00    +0.000 C 
ATOM     25  C   UNL     1      -0.755  12.332  18.477  0.00  0.00    +0.000 C 
ATOM     26  C   UNL     1      -0.250  12.725  19.850  0.00  0.00    +0.000 C 
ATOM     27  C   UNL     1       0.758  11.653  20.177  0.00  0.00    +0.000 C 
ATOM     28  O   UNL     1       1.569  11.775  21.082  0.00  0.00    +0.000 OA
ENDBRANCH  20  23
ENDBRANCH  16  17
ENDBRANCH   3  16
TORSDOF 4
ENDMDL
