MODEL 1
REMARK VINA RESULT:      -7.9      0.000      0.000
REMARK  Name = 
REMARK  6 active torsions:
REMARK  status: ('A' for Active; 'I' for Inactive)
REMARK    1  A    between atoms: C_1  and  O_2
REMARK    2  A    between atoms: O_2  and  C_3
REMARK    3  A    between atoms: C_6  and  S_7
REMARK    4  A    between atoms: S_7  and  N_10
REMARK    5  A    between atoms: N_10  and  N_11
REMARK    6  A    between atoms: C_12  and  C_13
REMARK                            x       y       z     vdW  Elec       q    Type
REMARK                         _______ _______ _______ _____ _____    ______ ____
ROOT
ATOM      1  N   UNL     1       5.558   5.613  17.696  0.00  0.00    +0.000 N 
ATOM      2  H   UNL     1       5.039   4.752  17.507  0.00  0.00    +0.000 HD
ENDROOT
BRANCH   1   3
ATOM      3  S   UNL     1       7.122   5.557  16.988  0.00  0.00    +0.000 S 
ATOM      4  O   UNL     1       7.934   4.621  17.739  0.00  0.00    +0.000 OA
ATOM      5  O   UNL     1       7.563   6.909  16.713  0.00  0.00    +0.000 OA
BRANCH   3   9
ATOM      6  C   UNL     1       6.063   3.687  12.955  0.00  0.00    +0.000 A 
ATOM      7  C   UNL     1       5.331   3.357  14.103  0.00  0.00    +0.000 A 
ATOM      8  C   UNL     1       5.655   3.921  15.338  0.00  0.00    +0.000 A 
ATOM      9  C   UNL     1       6.741   4.798  15.426  0.00  0.00    +0.000 A 
ATOM     10  C   UNL     1       7.491   5.120  14.291  0.00  0.00    +0.000 A 
ATOM     11  C   UNL     1       7.150   4.559  13.054  0.00  0.00    +0.000 A 
BRANCH   6  13
ATOM     12  C   UNL     1       4.290   3.302  11.437  0.00  0.00    +0.000 C 
ATOM     13  O   UNL     1       5.645   3.069  11.808  0.00  0.00    +0.000 OA
ENDBRANCH   6  13
ENDBRANCH   3   9
ENDBRANCH   1   3
BRANCH   1  14
ATOM     14  N   UNL     1       4.793   6.811  17.471  0.00  0.00    +0.000 NA
ATOM     15  C   UNL     1       3.518   6.775  17.716  0.00  0.00    +0.000 C 
BRANCH  15  16
ATOM     16  C   UNL     1       2.682   5.726  18.341  0.00  0.00    +0.000 A 
ATOM     17  C   UNL     1       2.090   4.677  17.603  0.00  0.00    +0.000 A 
ATOM     18  C   UNL     1       1.545   3.564  18.251  0.00  0.00    +0.000 A 
ATOM     19  C   UNL     1       1.675   3.509  19.619  0.00  0.00    +0.000 A 
ATOM     20  C   UNL     1       2.213   4.550  20.343  0.00  0.00    +0.000 A 
ATOM     21  C   UNL     1       2.688   5.692  19.741  0.00  0.00    +0.000 A 
ATOM     22  O   UNL     1       2.338   4.240  21.664  0.00  0.00    +0.000 OA
ATOM     23  C   UNL     1       2.156   2.812  21.583  0.00  0.00    +0.000 C 
ATOM     24  O   UNL     1       1.423   2.423  20.402  0.00  0.00    +0.000 OA
ENDBRANCH  15  16
ENDBRANCH   1  14
TORSDOF 5
ENDMDL
MODEL 2
REMARK VINA RESULT:      -7.9      0.315      1.059
REMARK  Name = 
REMARK  6 active torsions:
REMARK  status: ('A' for Active; 'I' for Inactive)
REMARK    1  A    between atoms: C_1  and  O_2
REMARK    2  A    between atoms: O_2  and  C_3
REMARK    3  A    between atoms: C_6  and  S_7
REMARK    4  A    between atoms: S_7  and  N_10
REMARK    5  A    between atoms: N_10  and  N_11
REMARK    6  A    between atoms: C_12  and  C_13
REMARK                            x       y       z     vdW  Elec       q    Type
REMARK                         _______ _______ _______ _____ _____    ______ ____
ROOT
ATOM      1  N   UNL     1       5.498   5.771  18.104  0.00  0.00    +0.000 N 
ATOM      2  H   UNL     1       5.027   4.863  18.085  0.00  0.00    +0.000 HD
ENDROOT
BRANCH   1   3
ATOM      3  S   UNL     1       7.056   5.670  17.386  0.00  0.00    +0.000 S 
ATOM      4  O   UNL     1       7.836   4.689  18.113  0.00  0.00    +0.000 OA
ATOM      5  O   UNL     1       7.546   7.010  17.136  0.00  0.00    +0.000 OA
BRANCH   3   9
ATOM      6  C   UNL     1       6.063   3.761  13.354  0.00  0.00    +0.000 A 
ATOM      7  C   UNL     1       7.119   4.677  13.464  0.00  0.00    +0.000 A 
ATOM      8  C   UNL     1       7.421   5.267  14.693  0.00  0.00    +0.000 A 
ATOM      9  C   UNL     1       6.639   4.958  15.811  0.00  0.00    +0.000 A 
ATOM     10  C   UNL     1       5.572   4.062  15.710  0.00  0.00    +0.000 A 
ATOM     11  C   UNL     1       5.285   3.465  14.475  0.00  0.00    +0.000 A 
BRANCH   6  13
ATOM     12  C   UNL     1       4.529   3.265  11.624  0.00  0.00    +0.000 C 
ATOM     13  O   UNL     1       5.871   3.253  12.098  0.00  0.00    +0.000 OA
ENDBRANCH   6  13
ENDBRANCH   3   9
ENDBRANCH   1   3
BRANCH   1  14
ATOM     14  N   UNL     1       4.665   6.865  17.681  0.00  0.00    +0.000 NA
ATOM     15  C   UNL     1       3.378   6.722  17.776  0.00  0.00    +0.000 C 
BRANCH  15  16
ATOM     16  C   UNL     1       2.565   5.649  18.392  0.00  0.00    +0.000 A 
ATOM     17  C   UNL     1       2.016   4.581  17.648  0.00  0.00    +0.000 A 
ATOM     18  C   UNL     1       1.497   3.452  18.291  0.00  0.00    +0.000 A 
ATOM     19  C   UNL     1       1.609   3.403  19.660  0.00  0.00    +0.000 A 
ATOM     20  C   UNL     1       2.106   4.462  20.389  0.00  0.00    +0.000 A 
ATOM     21  C   UNL     1       2.554   5.617  19.792  0.00  0.00    +0.000 A 
ATOM     22  O   UNL     1       2.222   4.158  21.712  0.00  0.00    +0.000 OA
ATOM     23  C   UNL     1       2.085   2.725  21.632  0.00  0.00    +0.000 C 
ATOM     24  O   UNL     1       1.380   2.312  20.442  0.00  0.00    +0.000 OA
ENDBRANCH  15  16
ENDBRANCH   1  14
TORSDOF 5
ENDMDL
MODEL 3
REMARK VINA RESULT:      -7.6      3.369      5.155
REMARK  Name = 
REMARK  6 active torsions:
REMARK  status: ('A' for Active; 'I' for Inactive)
REMARK    1  A    between atoms: C_1  and  O_2
REMARK    2  A    between atoms: O_2  and  C_3
REMARK    3  A    between atoms: C_6  and  S_7
REMARK    4  A    between atoms: S_7  and  N_10
REMARK    5  A    between atoms: N_10  and  N_11
REMARK    6  A    between atoms: C_12  and  C_13
REMARK                            x       y       z     vdW  Elec       q    Type
REMARK                         _______ _______ _______ _____ _____    ______ ____
ROOT
ATOM      1  N   UNL     1       2.197   3.736  19.044  0.00  0.00    +0.000 N 
ATOM      2  H   UNL     1       2.226   4.544  18.417  0.00  0.00    +0.000 HD
ENDROOT
BRANCH   1   3
ATOM      3  S   UNL     1       3.578   2.738  18.826  0.00  0.00    +0.000 S 
ATOM      4  O   UNL     1       3.286   1.768  17.791  0.00  0.00    +0.000 OA
ATOM      5  O   UNL     1       4.084   2.347  20.125  0.00  0.00    +0.000 OA
BRANCH   3   9
ATOM      6  C   UNL     1       6.602   5.685  17.080  0.00  0.00    +0.000 A 
ATOM      7  C   UNL     1       6.525   5.487  18.465  0.00  0.00    +0.000 A 
ATOM      8  C   UNL     1       5.598   4.592  19.003  0.00  0.00    +0.000 A 
ATOM      9  C   UNL     1       4.723   3.916  18.146  0.00  0.00    +0.000 A 
ATOM     10  C   UNL     1       4.777   4.121  16.765  0.00  0.00    +0.000 A 
ATOM     11  C   UNL     1       5.719   5.011  16.234  0.00  0.00    +0.000 A 
BRANCH   6  13
ATOM     12  C   UNL     1       7.658   7.766  17.469  0.00  0.00    +0.000 C 
ATOM     13  O   UNL     1       7.551   6.586  16.680  0.00  0.00    +0.000 OA
ENDBRANCH   6  13
ENDBRANCH   3   9
ENDBRANCH   1   3
BRANCH   1  14
ATOM     14  N   UNL     1       1.852   4.069  20.401  0.00  0.00    +0.000 NA
ATOM     15  C   UNL     1       1.929   5.314  20.761  0.00  0.00    +0.000 C 
BRANCH  15  16
ATOM     16  C   UNL     1       2.187   6.538  19.968  0.00  0.00    +0.000 A 
ATOM     17  C   UNL     1       2.781   6.509  18.687  0.00  0.00    +0.000 A 
ATOM     18  C   UNL     1       2.757   7.637  17.860  0.00  0.00    +0.000 A 
ATOM     19  C   UNL     1       2.073   8.738  18.321  0.00  0.00    +0.000 A 
ATOM     20  C   UNL     1       1.529   8.781  19.586  0.00  0.00    +0.000 A 
ATOM     21  C   UNL     1       1.604   7.715  20.452  0.00  0.00    +0.000 A 
ATOM     22  O   UNL     1       0.814   9.922  19.793  0.00  0.00    +0.000 OA
ATOM     23  C   UNL     1       0.695  10.369  18.427  0.00  0.00    +0.000 C 
ATOM     24  O   UNL     1       1.740   9.836  17.588  0.00  0.00    +0.000 OA
ENDBRANCH  15  16
ENDBRANCH   1  14
TORSDOF 5
ENDMDL
MODEL 4
REMARK VINA RESULT:      -7.4      2.981      6.797
REMARK  Name = 
REMARK  6 active torsions:
REMARK  status: ('A' for Active; 'I' for Inactive)
REMARK    1  A    between atoms: C_1  and  O_2
REMARK    2  A    between atoms: O_2  and  C_3
REMARK    3  A    between atoms: C_6  and  S_7
REMARK    4  A    between atoms: S_7  and  N_10
REMARK    5  A    between atoms: N_10  and  N_11
REMARK    6  A    between atoms: C_12  and  C_13
REMARK                            x       y       z     vdW  Elec       q    Type
REMARK                         _______ _______ _______ _____ _____    ______ ____
ROOT
ATOM      1  N   UNL     1       2.679   2.404  19.315  0.00  0.00    +0.000 N 
ATOM      2  H   UNL     1       2.403   1.499  18.928  0.00  0.00    +0.000 HD
ENDROOT
BRANCH   1   3
ATOM      3  S   UNL     1       1.317   3.252  19.930  0.00  0.00    +0.000 S 
ATOM      4  O   UNL     1       1.346   3.181  21.377  0.00  0.00    +0.000 OA
ATOM      5  O   UNL     1       0.146   2.876  19.165  0.00  0.00    +0.000 OA
BRANCH   3   9
ATOM      6  C   UNL     1       2.289   7.550  18.719  0.00  0.00    +0.000 A 
ATOM      7  C   UNL     1       2.223   6.538  17.751  0.00  0.00    +0.000 A 
ATOM      8  C   UNL     1       1.933   5.223  18.118  0.00  0.00    +0.000 A 
ATOM      9  C   UNL     1       1.738   4.916  19.468  0.00  0.00    +0.000 A 
ATOM     10  C   UNL     1       1.820   5.912  20.445  0.00  0.00    +0.000 A 
ATOM     11  C   UNL     1       2.099   7.232  20.065  0.00  0.00    +0.000 A 
BRANCH   6  13
ATOM     12  C   UNL     1       1.551   9.769  18.367  0.00  0.00    +0.000 C 
ATOM     13  O   UNL     1       2.579   8.795  18.231  0.00  0.00    +0.000 OA
ENDBRANCH   6  13
ENDBRANCH   3   9
ENDBRANCH   1   3
BRANCH   1  14
ATOM     14  N   UNL     1       3.836   2.341  20.168  0.00  0.00    +0.000 NA
ATOM     15  C   UNL     1       4.891   3.009  19.815  0.00  0.00    +0.000 C 
BRANCH  15  16
ATOM     16  C   UNL     1       5.099   3.981  18.717  0.00  0.00    +0.000 A 
ATOM     17  C   UNL     1       5.525   5.309  18.940  0.00  0.00    +0.000 A 
ATOM     18  C   UNL     1       5.974   6.106  17.882  0.00  0.00    +0.000 A 
ATOM     19  C   UNL     1       6.045   5.518  16.641  0.00  0.00    +0.000 A 
ATOM     20  C   UNL     1       5.592   4.237  16.414  0.00  0.00    +0.000 A 
ATOM     21  C   UNL     1       5.074   3.454  17.420  0.00  0.00    +0.000 A 
ATOM     22  O   UNL     1       5.853   3.822  15.143  0.00  0.00    +0.000 OA
ATOM     23  C   UNL     1       6.806   4.835  14.762  0.00  0.00    +0.000 C 
ATOM     24  O   UNL     1       6.661   6.040  15.544  0.00  0.00    +0.000 OA
ENDBRANCH  15  16
ENDBRANCH   1  14
TORSDOF 5
ENDMDL
MODEL 5
REMARK VINA RESULT:      -7.4      3.194      4.892
REMARK  Name = 
REMARK  6 active torsions:
REMARK  status: ('A' for Active; 'I' for Inactive)
REMARK    1  A    between atoms: C_1  and  O_2
REMARK    2  A    between atoms: O_2  and  C_3
REMARK    3  A    between atoms: C_6  and  S_7
REMARK    4  A    between atoms: S_7  and  N_10
REMARK    5  A    between atoms: N_10  and  N_11
REMARK    6  A    between atoms: C_12  and  C_13
REMARK                            x       y       z     vdW  Elec       q    Type
REMARK                         _______ _______ _______ _____ _____    ______ ____
ROOT
ATOM      1  N   UNL     1       3.092   2.899  19.882  0.00  0.00    +0.000 N 
ATOM      2  H   UNL     1       3.706   2.426  20.550  0.00  0.00    +0.000 HD
ENDROOT
BRANCH   1   3
ATOM      3  S   UNL     1       3.369   2.334  18.284  0.00  0.00    +0.000 S 
ATOM      4  O   UNL     1       2.155   2.514  17.515  0.00  0.00    +0.000 OA
ATOM      5  O   UNL     1       4.056   1.061  18.348  0.00  0.00    +0.000 OA
BRANCH   3   9
ATOM      6  C   UNL     1       6.473   5.355  16.829  0.00  0.00    +0.000 A 
ATOM      7  C   UNL     1       6.284   5.138  18.201  0.00  0.00    +0.000 A 
ATOM      8  C   UNL     1       5.333   4.221  18.649  0.00  0.00    +0.000 A 
ATOM      9  C   UNL     1       4.545   3.540  17.715  0.00  0.00    +0.000 A 
ATOM     10  C   UNL     1       4.710   3.763  16.345  0.00  0.00    +0.000 A 
ATOM     11  C   UNL     1       5.677   4.676  15.905  0.00  0.00    +0.000 A 
BRANCH   6  13
ATOM     12  C   UNL     1       7.606   7.334  17.458  0.00  0.00    +0.000 C 
ATOM     13  O   UNL     1       7.436   6.277  16.520  0.00  0.00    +0.000 OA
ENDBRANCH   6  13
ENDBRANCH   3   9
ENDBRANCH   1   3
BRANCH   1  14
ATOM     14  N   UNL     1       1.720   2.972  20.310  0.00  0.00    +0.000 NA
ATOM     15  C   UNL     1       1.166   4.144  20.383  0.00  0.00    +0.000 C 
BRANCH  15  16
ATOM     16  C   UNL     1       1.658   5.476  19.962  0.00  0.00    +0.000 A 
ATOM     17  C   UNL     1       2.080   5.755  18.643  0.00  0.00    +0.000 A 
ATOM     18  C   UNL     1       2.272   7.073  18.216  0.00  0.00    +0.000 A 
ATOM     19  C   UNL     1       1.966   8.072  19.109  0.00  0.00    +0.000 A 
ATOM     20  C   UNL     1       1.595   7.801  20.408  0.00  0.00    +0.000 A 
ATOM     21  C   UNL     1       1.471   6.516  20.881  0.00  0.00    +0.000 A 
ATOM     22  O   UNL     1       1.242   8.932  21.082  0.00  0.00    +0.000 OA
ATOM     23  C   UNL     1       1.101   9.832  19.964  0.00  0.00    +0.000 C 
ATOM     24  O   UNL     1       1.865   9.399  18.819  0.00  0.00    +0.000 OA
ENDBRANCH  15  16
ENDBRANCH   1  14
TORSDOF 5
ENDMDL
MODEL 6
REMARK VINA RESULT:      -7.3      3.342      7.148
REMARK  Name = 
REMARK  6 active torsions:
REMARK  status: ('A' for Active; 'I' for Inactive)
REMARK    1  A    between atoms: C_1  and  O_2
REMARK    2  A    between atoms: O_2  and  C_3
REMARK    3  A    between atoms: C_6  and  S_7
REMARK    4  A    between atoms: S_7  and  N_10
REMARK    5  A    between atoms: N_10  and  N_11
REMARK    6  A    between atoms: C_12  and  C_13
REMARK                            x       y       z     vdW  Elec       q    Type
REMARK                         _______ _______ _______ _____ _____    ______ ____
ROOT
ATOM      1  N   UNL     1       2.310   4.948  18.109  0.00  0.00    +0.000 N 
ATOM      2  H   UNL     1       1.427   5.268  17.705  0.00  0.00    +0.000 HD
ENDROOT
BRANCH   1   3
ATOM      3  S   UNL     1       2.536   5.594  19.685  0.00  0.00    +0.000 S 
ATOM      4  O   UNL     1       3.951   5.572  19.993  0.00  0.00    +0.000 OA
ATOM      5  O   UNL     1       1.547   5.020  20.574  0.00  0.00    +0.000 OA
BRANCH   3   9
ATOM      6  C   UNL     1       1.255   9.914  18.926  0.00  0.00    +0.000 A 
ATOM      7  C   UNL     1       1.875   9.170  17.912  0.00  0.00    +0.000 A 
ATOM      8  C   UNL     1       2.273   7.852  18.142  0.00  0.00    +0.000 A 
ATOM      9  C   UNL     1       2.076   7.289  19.407  0.00  0.00    +0.000 A 
ATOM     10  C   UNL     1       1.477   8.026  20.431  0.00  0.00    +0.000 A 
ATOM     11  C   UNL     1       1.069   9.344  20.187  0.00  0.00    +0.000 A 
BRANCH   6  13
ATOM     12  C   UNL     1       0.568  12.059  19.648  0.00  0.00    +0.000 C 
ATOM     13  O   UNL     1       0.912  11.191  18.574  0.00  0.00    +0.000 OA
ENDBRANCH   6  13
ENDBRANCH   3   9
ENDBRANCH   1   3
BRANCH   1  14
ATOM     14  N   UNL     1       2.540   3.536  17.954  0.00  0.00    +0.000 NA
ATOM     15  C   UNL     1       3.652   3.156  17.401  0.00  0.00    +0.000 C 
BRANCH  15  16
ATOM     16  C   UNL     1       4.848   3.931  17.001  0.00  0.00    +0.000 A 
ATOM     17  C   UNL     1       4.974   4.548  15.737  0.00  0.00    +0.000 A 
ATOM     18  C   UNL     1       5.979   5.491  15.496  0.00  0.00    +0.000 A 
ATOM     19  C   UNL     1       6.784   5.835  16.556  0.00  0.00    +0.000 A 
ATOM     20  C   UNL     1       6.689   5.204  17.778  0.00  0.00    +0.000 A 
ATOM     21  C   UNL     1       5.762   4.219  18.023  0.00  0.00    +0.000 A 
ATOM     22  O   UNL     1       7.508   5.772  18.708  0.00  0.00    +0.000 OA
ATOM     23  C   UNL     1       7.819   7.000  18.020  0.00  0.00    +0.000 C 
ATOM     24  O   UNL     1       7.655   6.881  16.591  0.00  0.00    +0.000 OA
ENDBRANCH  15  16
ENDBRANCH   1  14
TORSDOF 5
ENDMDL
MODEL 7
REMARK VINA RESULT:      -7.2      3.348      7.128
REMARK  Name = 
REMARK  6 active torsions:
REMARK  status: ('A' for Active; 'I' for Inactive)
REMARK    1  A    between atoms: C_1  and  O_2
REMARK    2  A    between atoms: O_2  and  C_3
REMARK    3  A    between atoms: C_6  and  S_7
REMARK    4  A    between atoms: S_7  and  N_10
REMARK    5  A    between atoms: N_10  and  N_11
REMARK    6  A    between atoms: C_12  and  C_13
REMARK                            x       y       z     vdW  Elec       q    Type
REMARK                         _______ _______ _______ _____ _____    ______ ____
ROOT
ATOM      1  N   UNL     1       2.361   4.986  18.094  0.00  0.00    +0.000 N 
ATOM      2  H   UNL     1       1.483   5.284  17.661  0.00  0.00    +0.000 HD
ENDROOT
BRANCH   1   3
ATOM      3  S   UNL     1       2.544   5.678  19.655  0.00  0.00    +0.000 S 
ATOM      4  O   UNL     1       3.955   5.715  19.981  0.00  0.00    +0.000 OA
ATOM      5  O   UNL     1       1.565   5.091  20.547  0.00  0.00    +0.000 OA
BRANCH   3   9
ATOM      6  C   UNL     1       1.313  10.007  18.867  0.00  0.00    +0.000 A 
ATOM      7  C   UNL     1       1.048   9.410  20.107  0.00  0.00    +0.000 A 
ATOM      8  C   UNL     1       1.416   8.086  20.349  0.00  0.00    +0.000 A 
ATOM      9  C   UNL     1       2.027   7.348  19.330  0.00  0.00    +0.000 A 
ATOM     10  C   UNL     1       2.279   7.926  18.083  0.00  0.00    +0.000 A 
ATOM     11  C   UNL     1       1.917   9.260  17.854  0.00  0.00    +0.000 A 
BRANCH   6  13
ATOM     12  C   UNL     1       1.326  12.182  19.798  0.00  0.00    +0.000 C 
ATOM     13  O   UNL     1       0.904  11.309  18.756  0.00  0.00    +0.000 OA
ENDBRANCH   6  13
ENDBRANCH   3   9
ENDBRANCH   1   3
BRANCH   1  14
ATOM     14  N   UNL     1       2.610   3.573  17.984  0.00  0.00    +0.000 NA
ATOM     15  C   UNL     1       3.731   3.191  17.451  0.00  0.00    +0.000 C 
BRANCH  15  16
ATOM     16  C   UNL     1       4.920   3.969  17.037  0.00  0.00    +0.000 A 
ATOM     17  C   UNL     1       5.051   4.543  15.752  0.00  0.00    +0.000 A 
ATOM     18  C   UNL     1       6.045   5.491  15.489  0.00  0.00    +0.000 A 
ATOM     19  C   UNL     1       6.833   5.884  16.545  0.00  0.00    +0.000 A 
ATOM     20  C   UNL     1       6.734   5.295  17.787  0.00  0.00    +0.000 A 
ATOM     21  C   UNL     1       5.818   4.306  18.057  0.00  0.00    +0.000 A 
ATOM     22  O   UNL     1       7.534   5.907  18.705  0.00  0.00    +0.000 OA
ATOM     23  C   UNL     1       7.836   7.115  17.978  0.00  0.00    +0.000 C 
ATOM     24  O   UNL     1       7.689   6.943  16.553  0.00  0.00    +0.000 OA
ENDBRANCH  15  16
ENDBRANCH   1  14
TORSDOF 5
ENDMDL
MODEL 8
REMARK VINA RESULT:      -7.2      3.416      4.404
REMARK  Name = 
REMARK  6 active torsions:
REMARK  status: ('A' for Active; 'I' for Inactive)
REMARK    1  A    between atoms: C_1  and  O_2
REMARK    2  A    between atoms: O_2  and  C_3
REMARK    3  A    between atoms: C_6  and  S_7
REMARK    4  A    between atoms: S_7  and  N_10
REMARK    5  A    between atoms: N_10  and  N_11
REMARK    6  A    between atoms: C_12  and  C_13
REMARK                            x       y       z     vdW  Elec       q    Type
REMARK                         _______ _______ _______ _____ _____    ______ ____
ROOT
ATOM      1  N   UNL     1       4.099   5.638  19.156  0.00  0.00    +0.000 N 
ATOM      2  H   UNL     1       4.369   6.621  19.247  0.00  0.00    +0.000 HD
ENDROOT
BRANCH   1   3
ATOM      3  S   UNL     1       5.482   4.619  19.150  0.00  0.00    +0.000 S 
ATOM      4  O   UNL     1       5.082   3.296  19.584  0.00  0.00    +0.000 OA
ATOM      5  O   UNL     1       6.589   5.326  19.762  0.00  0.00    +0.000 OA
BRANCH   3   9
ATOM      6  C   UNL     1       6.383   4.297  14.682  0.00  0.00    +0.000 A 
ATOM      7  C   UNL     1       7.322   4.865  15.555  0.00  0.00    +0.000 A 
ATOM      8  C   UNL     1       7.047   4.971  16.920  0.00  0.00    +0.000 A 
ATOM      9  C   UNL     1       5.811   4.532  17.405  0.00  0.00    +0.000 A 
ATOM     10  C   UNL     1       4.860   3.982  16.542  0.00  0.00    +0.000 A 
ATOM     11  C   UNL     1       5.150   3.869  15.176  0.00  0.00    +0.000 A 
BRANCH   6  13
ATOM     12  C   UNL     1       5.944   3.481  12.505  0.00  0.00    +0.000 C 
ATOM     13  O   UNL     1       6.773   4.250  13.371  0.00  0.00    +0.000 OA
ENDBRANCH   6  13
ENDBRANCH   3   9
ENDBRANCH   1   3
BRANCH   1  14
ATOM     14  N   UNL     1       3.019   5.251  20.024  0.00  0.00    +0.000 NA
ATOM     15  C   UNL     1       2.143   6.153  20.346  0.00  0.00    +0.000 C 
BRANCH  15  16
ATOM     16  C   UNL     1       1.956   7.539  19.860  0.00  0.00    +0.000 A 
ATOM     17  C   UNL     1       2.207   7.922  18.523  0.00  0.00    +0.000 A 
ATOM     18  C   UNL     1       1.762   9.155  18.036  0.00  0.00    +0.000 A 
ATOM     19  C   UNL     1       1.018   9.935  18.889  0.00  0.00    +0.000 A 
ATOM     20  C   UNL     1       0.808   9.582  20.204  0.00  0.00    +0.000 A 
ATOM     21  C   UNL     1       1.298   8.412  20.735  0.00  0.00    +0.000 A 
ATOM     22  O   UNL     1      -0.038  10.445  20.833  0.00  0.00    +0.000 OA
ATOM     23  C   UNL     1      -0.576  11.122  19.680  0.00  0.00    +0.000 C 
ATOM     24  O   UNL     1       0.309  11.045  18.542  0.00  0.00    +0.000 OA
ENDBRANCH  15  16
ENDBRANCH   1  14
TORSDOF 5
ENDMDL
MODEL 9
REMARK VINA RESULT:      -7.2      2.761      6.778
REMARK  Name = 
REMARK  6 active torsions:
REMARK  status: ('A' for Active; 'I' for Inactive)
REMARK    1  A    between atoms: C_1  and  O_2
REMARK    2  A    between atoms: O_2  and  C_3
REMARK    3  A    between atoms: C_6  and  S_7
REMARK    4  A    between atoms: S_7  and  N_10
REMARK    5  A    between atoms: N_10  and  N_11
REMARK    6  A    between atoms: C_12  and  C_13
REMARK                            x       y       z     vdW  Elec       q    Type
REMARK                         _______ _______ _______ _____ _____    ______ ____
ROOT
ATOM      1  N   UNL     1       3.375   2.147  19.150  0.00  0.00    +0.000 N 
ATOM      2  H   UNL     1       3.421   1.159  18.888  0.00  0.00    +0.000 HD
ENDROOT
BRANCH   1   3
ATOM      3  S   UNL     1       1.784   2.581  19.633  0.00  0.00    +0.000 S 
ATOM      4  O   UNL     1       1.645   2.320  21.051  0.00  0.00    +0.000 OA
ATOM      5  O   UNL     1       0.841   2.066  18.661  0.00  0.00    +0.000 OA
BRANCH   3   9
ATOM      6  C   UNL     1       2.072   7.109  19.096  0.00  0.00    +0.000 A 
ATOM      7  C   UNL     1       2.004   6.551  20.380  0.00  0.00    +0.000 A 
ATOM      8  C   UNL     1       1.910   5.168  20.548  0.00  0.00    +0.000 A 
ATOM      9  C   UNL     1       1.852   4.344  19.419  0.00  0.00    +0.000 A 
ATOM     10  C   UNL     1       1.899   4.891  18.134  0.00  0.00    +0.000 A 
ATOM     11  C   UNL     1       2.007   6.279  17.976  0.00  0.00    +0.000 A 
BRANCH   6  13
ATOM     12  C   UNL     1       2.062   9.076  17.781  0.00  0.00    +0.000 C 
ATOM     13  O   UNL     1       2.164   8.475  19.068  0.00  0.00    +0.000 OA
ENDBRANCH   6  13
ENDBRANCH   3   9
ENDBRANCH   1   3
BRANCH   1  14
ATOM     14  N   UNL     1       4.446   2.568  20.014  0.00  0.00    +0.000 NA
ATOM     15  C   UNL     1       5.290   3.442  19.556  0.00  0.00    +0.000 C 
BRANCH  15  16
ATOM     16  C   UNL     1       5.285   4.228  18.302  0.00  0.00    +0.000 A 
ATOM     17  C   UNL     1       5.479   5.628  18.274  0.00  0.00    +0.000 A 
ATOM     18  C   UNL     1       5.742   6.291  17.072  0.00  0.00    +0.000 A 
ATOM     19  C   UNL     1       5.871   5.516  15.943  0.00  0.00    +0.000 A 
ATOM     20  C   UNL     1       5.641   4.158  15.961  0.00  0.00    +0.000 A 
ATOM     21  C   UNL     1       5.305   3.487  17.114  0.00  0.00    +0.000 A 
ATOM     22  O   UNL     1       5.925   3.578  14.761  0.00  0.00    +0.000 OA
ATOM     23  C   UNL     1       6.672   4.653  14.157  0.00  0.00    +0.000 C 
ATOM     24  O   UNL     1       6.346   5.934  14.737  0.00  0.00    +0.000 OA
ENDBRANCH  15  16
ENDBRANCH   1  14
TORSDOF 5
ENDMDL
