MODEL 1
REMARK VINA RESULT:      -7.8      0.000      0.000
REMARK  Name = 
REMARK  10 active torsions:
REMARK  status: ('A' for Active; 'I' for Inactive)
REMARK    1  A    between atoms: C_1  and  C_2
REMARK    2  A    between atoms: N_4  and  C_5
REMARK    3  A    between atoms: C_5  and  C_6
REMARK    4  A    between atoms: C_5  and  C_7
REMARK    5  A    between atoms: C_7  and  C_8
REMARK    6  A    between atoms: C_11  and  C_12
REMARK    7  A    between atoms: C_13  and  C_14
REMARK    8  A    between atoms: C_17  and  N_18
REMARK    9  A    between atoms: N_18  and  C_19
REMARK   10  A    between atoms: N_18  and  C_20
REMARK                            x       y       z     vdW  Elec       q    Type
REMARK                         _______ _______ _______ _____ _____    ______ ____
ROOT
ATOM      1  C   UNL     1       5.592   4.692  17.174  0.00  0.00    +0.000 A 
ATOM      2  C   UNL     1       6.637   4.753  18.107  0.00  0.00    +0.000 A 
ATOM      3  C   UNL     1       7.351   5.941  18.301  0.00  0.00    +0.000 A 
ATOM      4  C   UNL     1       7.033   7.073  17.554  0.00  0.00    +0.000 A 
ATOM      5  C   UNL     1       6.020   7.013  16.596  0.00  0.00    +0.000 A 
ATOM      6  C   UNL     1       5.308   5.826  16.403  0.00  0.00    +0.000 A 
ENDROOT
BRANCH   4   7
ATOM      7  C   UNL     1       7.725   8.302  17.784  0.00  0.00    +0.000 C 
ATOM      8  C   UNL     1       8.283   9.348  17.981  0.00  0.00    +0.000 C 
BRANCH   8   9
ATOM      9  C   UNL     1       8.924  10.601  18.242  0.00  0.00    +0.000 A 
ATOM     10  C   UNL     1       9.933  10.680  19.194  0.00  0.00    +0.000 A 
ATOM     11  C   UNL     1      10.555  11.910  19.460  0.00  0.00    +0.000 A 
ATOM     12  C   UNL     1      10.195  13.093  18.794  0.00  0.00    +0.000 A 
ATOM     13  C   UNL     1       9.172  12.973  17.836  0.00  0.00    +0.000 A 
ATOM     14  C   UNL     1       8.543  11.751  17.561  0.00  0.00    +0.000 A 
BRANCH  12  15
ATOM     15  N   UNL     1      10.802  14.305  19.071  0.00  0.00    +0.000 N 
ATOM     16  C   UNL     1      11.602  14.518  20.272  0.00  0.00    +0.000 C 
ATOM     17  C   UNL     1      10.639  15.475  18.215  0.00  0.00    +0.000 C 
ENDBRANCH  12  15
ENDBRANCH   8   9
ENDBRANCH   4   7
BRANCH   1  18
ATOM     18  C   UNL     1       4.776   3.427  17.010  0.00  0.00    +0.000 C 
BRANCH  18  19
ATOM     19  C   UNL     1       4.040   2.999  18.298  0.00  0.00    +0.000 C 
ATOM     20  C   UNL     1       3.194   1.750  18.047  0.00  0.00    +0.000 C 
BRANCH  19  24
ATOM     21  C   UNL     1       1.868   5.209  20.493  0.00  0.00    +0.000 C 
ATOM     22  C   UNL     1       2.741   4.040  20.131  0.00  0.00    +0.000 C 
ATOM     23  O   UNL     1       3.014   3.153  20.935  0.00  0.00    +0.000 OA
ATOM     24  N   UNL     1       3.201   4.068  18.834  0.00  0.00    +0.000 N 
ATOM     25  H   UNL     1       2.893   4.807  18.217  0.00  0.00    +0.000 HD
ENDBRANCH  19  24
ENDBRANCH  18  19
ENDBRANCH   1  18
TORSDOF 6
ENDMDL
MODEL 2
REMARK VINA RESULT:      -7.8      0.893      1.424
REMARK  Name = 
REMARK  10 active torsions:
REMARK  status: ('A' for Active; 'I' for Inactive)
REMARK    1  A    between atoms: C_1  and  C_2
REMARK    2  A    between atoms: N_4  and  C_5
REMARK    3  A    between atoms: C_5  and  C_6
REMARK    4  A    between atoms: C_5  and  C_7
REMARK    5  A    between atoms: C_7  and  C_8
REMARK    6  A    between atoms: C_11  and  C_12
REMARK    7  A    between atoms: C_13  and  C_14
REMARK    8  A    between atoms: C_17  and  N_18
REMARK    9  A    between atoms: N_18  and  C_19
REMARK   10  A    between atoms: N_18  and  C_20
REMARK                            x       y       z     vdW  Elec       q    Type
REMARK                         _______ _______ _______ _____ _____    ______ ____
ROOT
ATOM      1  C   UNL     1       5.747   5.007  17.248  0.00  0.00    +0.000 A 
ATOM      2  C   UNL     1       6.711   5.027  18.266  0.00  0.00    +0.000 A 
ATOM      3  C   UNL     1       7.470   6.177  18.507  0.00  0.00    +0.000 A 
ATOM      4  C   UNL     1       7.279   7.314  17.724  0.00  0.00    +0.000 A 
ATOM      5  C   UNL     1       6.349   7.293  16.683  0.00  0.00    +0.000 A 
ATOM      6  C   UNL     1       5.592   6.143  16.443  0.00  0.00    +0.000 A 
ENDROOT
BRANCH   4   7
ATOM      7  C   UNL     1       8.014   8.507  17.999  0.00  0.00    +0.000 C 
ATOM      8  C   UNL     1       8.616   9.525  18.215  0.00  0.00    +0.000 C 
BRANCH   8   9
ATOM      9  C   UNL     1       9.301  10.754  18.475  0.00  0.00    +0.000 A 
ATOM     10  C   UNL     1       9.018  11.882  17.714  0.00  0.00    +0.000 A 
ATOM     11  C   UNL     1       9.698  13.085  17.959  0.00  0.00    +0.000 A 
ATOM     12  C   UNL     1      10.675  13.206  18.961  0.00  0.00    +0.000 A 
ATOM     13  C   UNL     1      10.932  12.045  19.712  0.00  0.00    +0.000 A 
ATOM     14  C   UNL     1      10.260  10.837  19.477  0.00  0.00    +0.000 A 
BRANCH  12  15
ATOM     15  N   UNL     1      11.351  14.391  19.188  0.00  0.00    +0.000 N 
ATOM     16  C   UNL     1      12.321  14.928  18.240  0.00  0.00    +0.000 C 
ATOM     17  C   UNL     1      11.190  15.160  20.416  0.00  0.00    +0.000 C 
ENDBRANCH  12  15
ENDBRANCH   8   9
ENDBRANCH   4   7
BRANCH   1  18
ATOM     18  C   UNL     1       4.880   3.785  17.028  0.00  0.00    +0.000 C 
BRANCH  18  19
ATOM     19  C   UNL     1       3.652   3.728  17.962  0.00  0.00    +0.000 C 
ATOM     20  C   UNL     1       2.545   2.871  17.346  0.00  0.00    +0.000 C 
BRANCH  19  24
ATOM     21  C   UNL     1       2.304   6.829  19.690  0.00  0.00    +0.000 C 
ATOM     22  C   UNL     1       2.857   5.437  19.568  0.00  0.00    +0.000 C 
ATOM     23  O   UNL     1       3.044   4.718  20.546  0.00  0.00    +0.000 OA
ATOM     24  N   UNL     1       3.135   5.058  18.274  0.00  0.00    +0.000 N 
ATOM     25  H   UNL     1       2.908   5.687  17.516  0.00  0.00    +0.000 HD
ENDBRANCH  19  24
ENDBRANCH  18  19
ENDBRANCH   1  18
TORSDOF 6
ENDMDL
MODEL 3
REMARK VINA RESULT:      -7.4      1.118      1.339
REMARK  Name = 
REMARK  10 active torsions:
REMARK  status: ('A' for Active; 'I' for Inactive)
REMARK    1  A    between atoms: C_1  and  C_2
REMARK    2  A    between atoms: N_4  and  C_5
REMARK    3  A    between atoms: C_5  and  C_6
REMARK    4  A    between atoms: C_5  and  C_7
REMARK    5  A    between atoms: C_7  and  C_8
REMARK    6  A    between atoms: C_11  and  C_12
REMARK    7  A    between atoms: C_13  and  C_14
REMARK    8  A    between atoms: C_17  and  N_18
REMARK    9  A    between atoms: N_18  and  C_19
REMARK   10  A    between atoms: N_18  and  C_20
REMARK                            x       y       z     vdW  Elec       q    Type
REMARK                         _______ _______ _______ _____ _____    ______ ____
ROOT
ATOM      1  C   UNL     1       6.132   5.270  17.461  0.00  0.00    +0.000 A 
ATOM      2  C   UNL     1       7.189   5.290  18.383  0.00  0.00    +0.000 A 
ATOM      3  C   UNL     1       7.907   6.468  18.617  0.00  0.00    +0.000 A 
ATOM      4  C   UNL     1       7.581   7.632  17.923  0.00  0.00    +0.000 A 
ATOM      5  C   UNL     1       6.556   7.612  16.976  0.00  0.00    +0.000 A 
ATOM      6  C   UNL     1       5.839   6.436  16.742  0.00  0.00    +0.000 A 
ENDROOT
BRANCH   4   7
ATOM      7  C   UNL     1       8.278   8.849  18.196  0.00  0.00    +0.000 C 
ATOM      8  C   UNL     1       8.875   9.872  18.400  0.00  0.00    +0.000 C 
BRANCH   8   9
ATOM      9  C   UNL     1       9.582  11.098  18.611  0.00  0.00    +0.000 A 
ATOM     10  C   UNL     1       9.977  11.461  19.893  0.00  0.00    +0.000 A 
ATOM     11  C   UNL     1      10.658  12.670  20.104  0.00  0.00    +0.000 A 
ATOM     12  C   UNL     1      10.967  13.551  19.054  0.00  0.00    +0.000 A 
ATOM     13  C   UNL     1      10.554  13.149  17.771  0.00  0.00    +0.000 A 
ATOM     14  C   UNL     1       9.872  11.945  17.548  0.00  0.00    +0.000 A 
BRANCH  12  15
ATOM     15  N   UNL     1      11.627  14.748  19.271  0.00  0.00    +0.000 N 
ATOM     16  C   UNL     1      12.333  15.451  18.205  0.00  0.00    +0.000 C 
ATOM     17  C   UNL     1      11.716  15.364  20.590  0.00  0.00    +0.000 C 
ENDBRANCH  12  15
ENDBRANCH   8   9
ENDBRANCH   4   7
BRANCH   1  18
ATOM     18  C   UNL     1       5.312   4.014  17.255  0.00  0.00    +0.000 C 
BRANCH  18  19
ATOM     19  C   UNL     1       4.030   3.968  18.115  0.00  0.00    +0.000 C 
ATOM     20  C   UNL     1       2.979   3.065  17.469  0.00  0.00    +0.000 C 
BRANCH  19  24
ATOM     21  C   UNL     1       2.343   7.040  19.576  0.00  0.00    +0.000 C 
ATOM     22  C   UNL     1       2.889   5.640  19.541  0.00  0.00    +0.000 C 
ATOM     23  O   UNL     1       2.819   4.885  20.507  0.00  0.00    +0.000 OA
ATOM     24  N   UNL     1       3.472   5.298  18.341  0.00  0.00    +0.000 N 
ATOM     25  H   UNL     1       3.447   5.958  17.575  0.00  0.00    +0.000 HD
ENDBRANCH  19  24
ENDBRANCH  18  19
ENDBRANCH   1  18
TORSDOF 6
ENDMDL
MODEL 4
REMARK VINA RESULT:      -7.4      3.157      4.114
REMARK  Name = 
REMARK  10 active torsions:
REMARK  status: ('A' for Active; 'I' for Inactive)
REMARK    1  A    between atoms: C_1  and  C_2
REMARK    2  A    between atoms: N_4  and  C_5
REMARK    3  A    between atoms: C_5  and  C_6
REMARK    4  A    between atoms: C_5  and  C_7
REMARK    5  A    between atoms: C_7  and  C_8
REMARK    6  A    between atoms: C_11  and  C_12
REMARK    7  A    between atoms: C_13  and  C_14
REMARK    8  A    between atoms: C_17  and  N_18
REMARK    9  A    between atoms: N_18  and  C_19
REMARK   10  A    between atoms: N_18  and  C_20
REMARK                            x       y       z     vdW  Elec       q    Type
REMARK                         _______ _______ _______ _____ _____    ______ ____
ROOT
ATOM      1  C   UNL     1       6.171   5.040  16.247  0.00  0.00    +0.000 A 
ATOM      2  C   UNL     1       5.628   6.307  15.989  0.00  0.00    +0.000 A 
ATOM      3  C   UNL     1       6.199   7.455  16.552  0.00  0.00    +0.000 A 
ATOM      4  C   UNL     1       7.309   7.342  17.387  0.00  0.00    +0.000 A 
ATOM      5  C   UNL     1       7.834   6.082  17.680  0.00  0.00    +0.000 A 
ATOM      6  C   UNL     1       7.264   4.937  17.118  0.00  0.00    +0.000 A 
ENDROOT
BRANCH   4   7
ATOM      7  C   UNL     1       7.925   8.514  17.923  0.00  0.00    +0.000 C 
ATOM      8  C   UNL     1       8.464   9.498  18.355  0.00  0.00    +0.000 C 
BRANCH   8   9
ATOM      9  C   UNL     1       9.113  10.678  18.837  0.00  0.00    +0.000 A 
ATOM     10  C   UNL     1       9.693  10.687  20.100  0.00  0.00    +0.000 A 
ATOM     11  C   UNL     1      10.319  11.847  20.580  0.00  0.00    +0.000 A 
ATOM     12  C   UNL     1      10.388  13.030  19.825  0.00  0.00    +0.000 A 
ATOM     13  C   UNL     1       9.794  12.983  18.551  0.00  0.00    +0.000 A 
ATOM     14  C   UNL     1       9.165  11.830  18.061  0.00  0.00    +0.000 A 
BRANCH  12  15
ATOM     15  N   UNL     1      10.995  14.176  20.309  0.00  0.00    +0.000 N 
ATOM     16  C   UNL     1      10.463  14.916  21.448  0.00  0.00    +0.000 C 
ATOM     17  C   UNL     1      12.176  14.760  19.682  0.00  0.00    +0.000 C 
ENDBRANCH  12  15
ENDBRANCH   8   9
ENDBRANCH   4   7
BRANCH   1  18
ATOM     18  C   UNL     1       5.596   3.805  15.587  0.00  0.00    +0.000 C 
BRANCH  18  19
ATOM     19  C   UNL     1       6.077   3.604  14.133  0.00  0.00    +0.000 C 
ATOM     20  C   UNL     1       7.217   4.570  13.804  0.00  0.00    +0.000 C 
BRANCH  19  24
ATOM     21  C   UNL     1       3.801   3.388  11.102  0.00  0.00    +0.000 C 
ATOM     22  C   UNL     1       4.977   3.068  11.981  0.00  0.00    +0.000 C 
ATOM     23  O   UNL     1       5.834   2.250  11.656  0.00  0.00    +0.000 OA
ATOM     24  N   UNL     1       4.994   3.766  13.168  0.00  0.00    +0.000 N 
ATOM     25  H   UNL     1       4.279   4.459  13.342  0.00  0.00    +0.000 HD
ENDBRANCH  19  24
ENDBRANCH  18  19
ENDBRANCH   1  18
TORSDOF 6
ENDMDL
MODEL 5
REMARK VINA RESULT:      -7.2      2.233      3.274
REMARK  Name = 
REMARK  10 active torsions:
REMARK  status: ('A' for Active; 'I' for Inactive)
REMARK    1  A    between atoms: C_1  and  C_2
REMARK    2  A    between atoms: N_4  and  C_5
REMARK    3  A    between atoms: C_5  and  C_6
REMARK    4  A    between atoms: C_5  and  C_7
REMARK    5  A    between atoms: C_7  and  C_8
REMARK    6  A    between atoms: C_11  and  C_12
REMARK    7  A    between atoms: C_13  and  C_14
REMARK    8  A    between atoms: C_17  and  N_18
REMARK    9  A    between atoms: N_18  and  C_19
REMARK   10  A    between atoms: N_18  and  C_20
REMARK                            x       y       z     vdW  Elec       q    Type
REMARK                         _______ _______ _______ _____ _____    ______ ____
ROOT
ATOM      1  C   UNL     1       6.771   5.793  18.097  0.00  0.00    +0.000 A 
ATOM      2  C   UNL     1       7.902   5.982  18.905  0.00  0.00    +0.000 A 
ATOM      3  C   UNL     1       8.530   7.231  18.971  0.00  0.00    +0.000 A 
ATOM      4  C   UNL     1       8.039   8.297  18.220  0.00  0.00    +0.000 A 
ATOM      5  C   UNL     1       6.937   8.110  17.385  0.00  0.00    +0.000 A 
ATOM      6  C   UNL     1       6.310   6.863  17.319  0.00  0.00    +0.000 A 
ENDROOT
BRANCH   4   7
ATOM      7  C   UNL     1       8.646   9.586  18.323  0.00  0.00    +0.000 C 
ATOM      8  C   UNL     1       9.179  10.659  18.422  0.00  0.00    +0.000 C 
BRANCH   8   9
ATOM      9  C   UNL     1       9.843  11.922  18.531  0.00  0.00    +0.000 A 
ATOM     10  C   UNL     1      10.618  12.206  19.649  0.00  0.00    +0.000 A 
ATOM     11  C   UNL     1      11.260  13.448  19.764  0.00  0.00    +0.000 A 
ATOM     12  C   UNL     1      11.153  14.443  18.778  0.00  0.00    +0.000 A 
ATOM     13  C   UNL     1      10.363  14.119  17.660  0.00  0.00    +0.000 A 
ATOM     14  C   UNL     1       9.717  12.882  17.534  0.00  0.00    +0.000 A 
BRANCH  12  15
ATOM     15  N   UNL     1      11.777  15.672  18.904  0.00  0.00    +0.000 N 
ATOM     16  C   UNL     1      12.306  16.398  17.755  0.00  0.00    +0.000 C 
ATOM     17  C   UNL     1      12.006  16.303  20.199  0.00  0.00    +0.000 C 
ENDBRANCH  12  15
ENDBRANCH   8   9
ENDBRANCH   4   7
BRANCH   1  18
ATOM     18  C   UNL     1       6.050   4.462  18.075  0.00  0.00    +0.000 C 
BRANCH  18  19
ATOM     19  C   UNL     1       5.036   4.331  16.919  0.00  0.00    +0.000 C 
ATOM     20  C   UNL     1       3.840   3.478  17.344  0.00  0.00    +0.000 C 
BRANCH  19  24
ATOM     21  C   UNL     1       6.459   3.780  13.442  0.00  0.00    +0.000 C 
ATOM     22  C   UNL     1       5.853   4.536  14.591  0.00  0.00    +0.000 C 
ATOM     23  O   UNL     1       5.582   5.732  14.517  0.00  0.00    +0.000 OA
ATOM     24  N   UNL     1       5.643   3.770  15.715  0.00  0.00    +0.000 N 
ATOM     25  H   UNL     1       5.846   2.780  15.682  0.00  0.00    +0.000 HD
ENDBRANCH  19  24
ENDBRANCH  18  19
ENDBRANCH   1  18
TORSDOF 6
ENDMDL
MODEL 6
REMARK VINA RESULT:      -7.2      1.243      1.425
REMARK  Name = 
REMARK  10 active torsions:
REMARK  status: ('A' for Active; 'I' for Inactive)
REMARK    1  A    between atoms: C_1  and  C_2
REMARK    2  A    between atoms: N_4  and  C_5
REMARK    3  A    between atoms: C_5  and  C_6
REMARK    4  A    between atoms: C_5  and  C_7
REMARK    5  A    between atoms: C_7  and  C_8
REMARK    6  A    between atoms: C_11  and  C_12
REMARK    7  A    between atoms: C_13  and  C_14
REMARK    8  A    between atoms: C_17  and  N_18
REMARK    9  A    between atoms: N_18  and  C_19
REMARK   10  A    between atoms: N_18  and  C_20
REMARK                            x       y       z     vdW  Elec       q    Type
REMARK                         _______ _______ _______ _____ _____    ______ ____
ROOT
ATOM      1  C   UNL     1       5.891   4.940  17.802  0.00  0.00    +0.000 A 
ATOM      2  C   UNL     1       7.082   5.039  18.537  0.00  0.00    +0.000 A 
ATOM      3  C   UNL     1       7.780   6.250  18.603  0.00  0.00    +0.000 A 
ATOM      4  C   UNL     1       7.299   7.368  17.925  0.00  0.00    +0.000 A 
ATOM      5  C   UNL     1       6.135   7.271  17.160  0.00  0.00    +0.000 A 
ATOM      6  C   UNL     1       5.439   6.062  17.094  0.00  0.00    +0.000 A 
ENDROOT
BRANCH   4   7
ATOM      7  C   UNL     1       7.980   8.620  18.031  0.00  0.00    +0.000 C 
ATOM      8  C   UNL     1       8.576   9.661  18.110  0.00  0.00    +0.000 C 
BRANCH   8   9
ATOM      9  C   UNL     1       9.301  10.893  18.174  0.00  0.00    +0.000 A 
ATOM     10  C   UNL     1      10.573  10.923  18.733  0.00  0.00    +0.000 A 
ATOM     11  C   UNL     1      11.281  12.132  18.809  0.00  0.00    +0.000 A 
ATOM     12  C   UNL     1      10.750  13.344  18.335  0.00  0.00    +0.000 A 
ATOM     13  C   UNL     1       9.463  13.274  17.773  0.00  0.00    +0.000 A 
ATOM     14  C   UNL     1       8.745  12.072  17.693  0.00  0.00    +0.000 A 
BRANCH  12  15
ATOM     15  N   UNL     1      11.448  14.535  18.425  0.00  0.00    +0.000 N 
ATOM     16  C   UNL     1      12.333  15.001  17.363  0.00  0.00    +0.000 C 
ATOM     17  C   UNL     1      11.396  15.384  19.610  0.00  0.00    +0.000 C 
ENDBRANCH  12  15
ENDBRANCH   8   9
ENDBRANCH   4   7
BRANCH   1  18
ATOM     18  C   UNL     1       5.100   3.650  17.783  0.00  0.00    +0.000 C 
BRANCH  18  19
ATOM     19  C   UNL     1       4.292   3.405  19.076  0.00  0.00    +0.000 C 
ATOM     20  C   UNL     1       5.007   2.396  19.975  0.00  0.00    +0.000 C 
BRANCH  19  24
ATOM     21  C   UNL     1       0.536   3.144  18.583  0.00  0.00    +0.000 C 
ATOM     22  C   UNL     1       1.857   3.801  18.872  0.00  0.00    +0.000 C 
ATOM     23  O   UNL     1       1.949   4.995  19.143  0.00  0.00    +0.000 OA
ATOM     24  N   UNL     1       2.934   2.947  18.797  0.00  0.00    +0.000 N 
ATOM     25  H   UNL     1       2.773   1.965  18.617  0.00  0.00    +0.000 HD
ENDBRANCH  19  24
ENDBRANCH  18  19
ENDBRANCH   1  18
TORSDOF 6
ENDMDL
MODEL 7
REMARK VINA RESULT:      -7.2      2.405      3.593
REMARK  Name = 
REMARK  10 active torsions:
REMARK  status: ('A' for Active; 'I' for Inactive)
REMARK    1  A    between atoms: C_1  and  C_2
REMARK    2  A    between atoms: N_4  and  C_5
REMARK    3  A    between atoms: C_5  and  C_6
REMARK    4  A    between atoms: C_5  and  C_7
REMARK    5  A    between atoms: C_7  and  C_8
REMARK    6  A    between atoms: C_11  and  C_12
REMARK    7  A    between atoms: C_13  and  C_14
REMARK    8  A    between atoms: C_17  and  N_18
REMARK    9  A    between atoms: N_18  and  C_19
REMARK   10  A    between atoms: N_18  and  C_20
REMARK                            x       y       z     vdW  Elec       q    Type
REMARK                         _______ _______ _______ _____ _____    ______ ____
ROOT
ATOM      1  C   UNL     1       6.989   5.654  17.691  0.00  0.00    +0.000 A 
ATOM      2  C   UNL     1       6.638   6.793  16.950  0.00  0.00    +0.000 A 
ATOM      3  C   UNL     1       7.212   8.036  17.239  0.00  0.00    +0.000 A 
ATOM      4  C   UNL     1       8.132   8.152  18.279  0.00  0.00    +0.000 A 
ATOM      5  C   UNL     1       8.461   7.033  19.046  0.00  0.00    +0.000 A 
ATOM      6  C   UNL     1       7.887   5.793  18.757  0.00  0.00    +0.000 A 
ENDROOT
BRANCH   4   7
ATOM      7  C   UNL     1       8.759   9.408  18.544  0.00  0.00    +0.000 C 
ATOM      8  C   UNL     1       9.266  10.478  18.755  0.00  0.00    +0.000 C 
BRANCH   8   9
ATOM      9  C   UNL     1       9.837  11.764  19.014  0.00  0.00    +0.000 A 
ATOM     10  C   UNL     1      10.335  12.063  20.276  0.00  0.00    +0.000 A 
ATOM     11  C   UNL     1      10.884  13.328  20.536  0.00  0.00    +0.000 A 
ATOM     12  C   UNL     1      10.956  14.331  19.555  0.00  0.00    +0.000 A 
ATOM     13  C   UNL     1      10.446  13.991  18.289  0.00  0.00    +0.000 A 
ATOM     14  C   UNL     1       9.894  12.731  18.017  0.00  0.00    +0.000 A 
BRANCH  12  15
ATOM     15  N   UNL     1      11.486  15.581  19.821  0.00  0.00    +0.000 N 
ATOM     16  C   UNL     1      12.333  16.287  18.866  0.00  0.00    +0.000 C 
ATOM     17  C   UNL     1      11.287  16.259  21.097  0.00  0.00    +0.000 C 
ENDBRANCH  12  15
ENDBRANCH   8   9
ENDBRANCH   4   7
BRANCH   1  18
ATOM     18  C   UNL     1       6.419   4.297  17.338  0.00  0.00    +0.000 C 
BRANCH  18  19
ATOM     19  C   UNL     1       5.199   4.369  16.394  0.00  0.00    +0.000 C 
ATOM     20  C   UNL     1       3.954   3.799  17.076  0.00  0.00    +0.000 C 
BRANCH  19  24
ATOM     21  C   UNL     1       6.276   3.399  12.884  0.00  0.00    +0.000 C 
ATOM     22  C   UNL     1       6.162   4.254  14.116  0.00  0.00    +0.000 C 
ATOM     23  O   UNL     1       6.680   5.364  14.193  0.00  0.00    +0.000 OA
ATOM     24  N   UNL     1       5.438   3.673  15.132  0.00  0.00    +0.000 N 
ATOM     25  H   UNL     1       5.000   2.775  14.976  0.00  0.00    +0.000 HD
ENDBRANCH  19  24
ENDBRANCH  18  19
ENDBRANCH   1  18
TORSDOF 6
ENDMDL
MODEL 8
REMARK VINA RESULT:      -7.1      3.316     10.445
REMARK  Name = 
REMARK  10 active torsions:
REMARK  status: ('A' for Active; 'I' for Inactive)
REMARK    1  A    between atoms: C_1  and  C_2
REMARK    2  A    between atoms: N_4  and  C_5
REMARK    3  A    between atoms: C_5  and  C_6
REMARK    4  A    between atoms: C_5  and  C_7
REMARK    5  A    between atoms: C_7  and  C_8
REMARK    6  A    between atoms: C_11  and  C_12
REMARK    7  A    between atoms: C_13  and  C_14
REMARK    8  A    between atoms: C_17  and  N_18
REMARK    9  A    between atoms: N_18  and  C_19
REMARK   10  A    between atoms: N_18  and  C_20
REMARK                            x       y       z     vdW  Elec       q    Type
REMARK                         _______ _______ _______ _____ _____    ______ ____
ROOT
ATOM      1  C   UNL     1      11.254  13.280  19.355  0.00  0.00    +0.000 A 
ATOM      2  C   UNL     1      11.000  12.910  18.026  0.00  0.00    +0.000 A 
ATOM      3  C   UNL     1      10.277  11.747  17.736  0.00  0.00    +0.000 A 
ATOM      4  C   UNL     1       9.814  10.939  18.773  0.00  0.00    +0.000 A 
ATOM      5  C   UNL     1      10.094  11.278  20.098  0.00  0.00    +0.000 A 
ATOM      6  C   UNL     1      10.816  12.439  20.387  0.00  0.00    +0.000 A 
ENDROOT
BRANCH   4   7
ATOM      7  C   UNL     1       9.033   9.779  18.483  0.00  0.00    +0.000 C 
ATOM      8  C   UNL     1       8.384   8.791  18.263  0.00  0.00    +0.000 C 
BRANCH   8   9
ATOM      9  C   UNL     1       7.605   7.612  18.034  0.00  0.00    +0.000 A 
ATOM     10  C   UNL     1       6.537   7.646  17.147  0.00  0.00    +0.000 A 
ATOM     11  C   UNL     1       5.764   6.496  16.931  0.00  0.00    +0.000 A 
ATOM     12  C   UNL     1       6.025   5.281  17.586  0.00  0.00    +0.000 A 
ATOM     13  C   UNL     1       7.116   5.283  18.474  0.00  0.00    +0.000 A 
ATOM     14  C   UNL     1       7.895   6.427  18.699  0.00  0.00    +0.000 A 
BRANCH  12  15
ATOM     15  N   UNL     1       5.250   4.153  17.379  0.00  0.00    +0.000 N 
ATOM     16  C   UNL     1       5.069   3.566  16.056  0.00  0.00    +0.000 C 
ATOM     17  C   UNL     1       4.512   3.504  18.456  0.00  0.00    +0.000 C 
ENDBRANCH  12  15
ENDBRANCH   8   9
ENDBRANCH   4   7
BRANCH   1  18
ATOM     18  C   UNL     1      11.979  14.571  19.673  0.00  0.00    +0.000 C 
BRANCH  18  19
ATOM     19  C   UNL     1      11.246  15.829  19.158  0.00  0.00    +0.000 C 
ATOM     20  C   UNL     1      12.029  17.093  19.514  0.00  0.00    +0.000 C 
BRANCH  19  24
ATOM     21  C   UNL     1       7.483  16.151  19.558  0.00  0.00    +0.000 C 
ATOM     22  C   UNL     1       8.799  16.032  18.840  0.00  0.00    +0.000 C 
ATOM     23  O   UNL     1       8.878  16.027  17.614  0.00  0.00    +0.000 OA
ATOM     24  N   UNL     1       9.885  15.924  19.680  0.00  0.00    +0.000 N 
ATOM     25  H   UNL     1       9.744  15.986  20.679  0.00  0.00    +0.000 HD
ENDBRANCH  19  24
ENDBRANCH  18  19
ENDBRANCH   1  18
TORSDOF 6
ENDMDL
MODEL 9
REMARK VINA RESULT:      -7.1      3.519     10.358
REMARK  Name = 
REMARK  10 active torsions:
REMARK  status: ('A' for Active; 'I' for Inactive)
REMARK    1  A    between atoms: C_1  and  C_2
REMARK    2  A    between atoms: N_4  and  C_5
REMARK    3  A    between atoms: C_5  and  C_6
REMARK    4  A    between atoms: C_5  and  C_7
REMARK    5  A    between atoms: C_7  and  C_8
REMARK    6  A    between atoms: C_11  and  C_12
REMARK    7  A    between atoms: C_13  and  C_14
REMARK    8  A    between atoms: C_17  and  N_18
REMARK    9  A    between atoms: N_18  and  C_19
REMARK   10  A    between atoms: N_18  and  C_20
REMARK                            x       y       z     vdW  Elec       q    Type
REMARK                         _______ _______ _______ _____ _____    ______ ____
ROOT
ATOM      1  C   UNL     1      11.150  13.107  19.563  0.00  0.00    +0.000 A 
ATOM      2  C   UNL     1      11.046  12.690  18.227  0.00  0.00    +0.000 A 
ATOM      3  C   UNL     1      10.321  11.541  17.894  0.00  0.00    +0.000 A 
ATOM      4  C   UNL     1       9.704  10.793  18.895  0.00  0.00    +0.000 A 
ATOM      5  C   UNL     1       9.832  11.178  20.231  0.00  0.00    +0.000 A 
ATOM      6  C   UNL     1      10.557  12.326  20.563  0.00  0.00    +0.000 A 
ENDROOT
BRANCH   4   7
ATOM      7  C   UNL     1       8.919   9.648  18.555  0.00  0.00    +0.000 C 
ATOM      8  C   UNL     1       8.282   8.674  18.257  0.00  0.00    +0.000 C 
BRANCH   8   9
ATOM      9  C   UNL     1       7.550   7.494  17.909  0.00  0.00    +0.000 A 
ATOM     10  C   UNL     1       6.549   7.555  16.947  0.00  0.00    +0.000 A 
ATOM     11  C   UNL     1       5.822   6.403  16.613  0.00  0.00    +0.000 A 
ATOM     12  C   UNL     1       6.063   5.160  17.222  0.00  0.00    +0.000 A 
ATOM     13  C   UNL     1       7.085   5.136  18.189  0.00  0.00    +0.000 A 
ATOM     14  C   UNL     1       7.818   6.281  18.531  0.00  0.00    +0.000 A 
BRANCH  12  15
ATOM     15  N   UNL     1       5.333   4.030  16.898  0.00  0.00    +0.000 N 
ATOM     16  C   UNL     1       4.352   3.450  17.809  0.00  0.00    +0.000 C 
ATOM     17  C   UNL     1       5.532   3.301  15.651  0.00  0.00    +0.000 C 
ENDBRANCH  12  15
ENDBRANCH   8   9
ENDBRANCH   4   7
BRANCH   1  18
ATOM     18  C   UNL     1      11.879  14.385  19.918  0.00  0.00    +0.000 C 
BRANCH  18  19
ATOM     19  C   UNL     1      10.942  15.601  20.084  0.00  0.00    +0.000 C 
ATOM     20  C   UNL     1      10.814  15.987  21.558  0.00  0.00    +0.000 C 
BRANCH  19  24
ATOM     21  C   UNL     1       7.848  15.536  17.885  0.00  0.00    +0.000 C 
ATOM     22  C   UNL     1       9.258  15.864  18.289  0.00  0.00    +0.000 C 
ATOM     23  O   UNL     1      10.008  16.522  17.572  0.00  0.00    +0.000 OA
ATOM     24  N   UNL     1       9.619  15.357  19.517  0.00  0.00    +0.000 N 
ATOM     25  H   UNL     1       8.929  14.867  20.070  0.00  0.00    +0.000 HD
ENDBRANCH  19  24
ENDBRANCH  18  19
ENDBRANCH   1  18
TORSDOF 6
ENDMDL
