MODEL 1
REMARK VINA RESULT:      -8.4      0.000      0.000
REMARK  Name = 
REMARK  4 active torsions:
REMARK  status: ('A' for Active; 'I' for Inactive)
REMARK    1  A    between atoms: C_1  and  C_2
REMARK    2  A    between atoms: C_2  and  C_3
REMARK    3  A    between atoms: C_2  and  N_12
REMARK    4  A    between atoms: C_15  and  N_16
REMARK                            x       y       z     vdW  Elec       q    Type
REMARK                         _______ _______ _______ _____ _____    ______ ____
ROOT
ATOM      1  N   UNL     1       2.097   6.908  19.082  0.00  0.00    +0.000 NA
ATOM      2  C   UNL     1       2.331   6.374  17.736  0.00  0.00    +0.000 C 
ATOM      3  C   UNL     1       2.575   4.866  17.702  0.00  0.00    +0.000 C 
ATOM      4  C   UNL     1       3.754   4.444  18.586  0.00  0.00    +0.000 C 
ATOM      5  C   UNL     1       3.450   4.955  20.001  0.00  0.00    +0.000 C 
ATOM      6  C   UNL     1       3.108   6.450  20.054  0.00  0.00    +0.000 C 
ENDROOT
BRANCH   4   7
ATOM      7  N   UNL     1       5.077   4.789  18.037  0.00  0.00    +0.000 N 
ATOM      8  C   UNL     1       6.270   5.081  18.749  0.00  0.00    +0.000 A 
ATOM      9  O   UNL     1       6.463   5.163  19.948  0.00  0.00    +0.000 OA
ATOM     10  N   UNL     1       7.290   5.232  17.802  0.00  0.00    +0.000 N 
ATOM     11  C   UNL     1       6.789   4.954  16.544  0.00  0.00    +0.000 A 
ATOM     12  C   UNL     1       7.478   4.905  15.353  0.00  0.00    +0.000 A 
ATOM     13  C   UNL     1       6.748   4.537  14.225  0.00  0.00    +0.000 A 
ATOM     14  C   UNL     1       5.374   4.235  14.325  0.00  0.00    +0.000 A 
ATOM     15  C   UNL     1       4.700   4.295  15.557  0.00  0.00    +0.000 A 
ATOM     16  C   UNL     1       5.428   4.667  16.667  0.00  0.00    +0.000 A 
ATOM     17  H   UNL     1       8.247   5.417  18.052  0.00  0.00    +0.000 HD
ENDBRANCH   4   7
BRANCH   1  19
ATOM     18  C   UNL     1       1.636   9.112  17.809  0.00  0.00    +0.000 C 
ATOM     19  C   UNL     1       2.004   8.401  19.132  0.00  0.00    +0.000 C 
BRANCH  19  20
ATOM     20  C   UNL     1       1.115   8.953  20.251  0.00  0.00    +0.000 A 
ATOM     21  C   UNL     1       1.338   8.533  21.588  0.00  0.00    +0.000 A 
ATOM     22  C   UNL     1       0.689   9.152  22.664  0.00  0.00    +0.000 A 
ATOM     23  C   UNL     1      -0.192  10.172  22.380  0.00  0.00    +0.000 A 
ATOM     24  C   UNL     1      -0.449  10.563  21.090  0.00  0.00    +0.000 A 
ATOM     25  C   UNL     1       0.182   9.978  20.013  0.00  0.00    +0.000 A 
ATOM     26  O   UNL     1      -1.336  11.590  21.021  0.00  0.00    +0.000 OA
ATOM     27  C   UNL     1      -1.617  11.794  22.420  0.00  0.00    +0.000 C 
ATOM     28  O   UNL     1      -0.876  10.914  23.290  0.00  0.00    +0.000 OA
ENDBRANCH  19  20
ENDBRANCH   1  19
TORSDOF 3
ENDMDL
MODEL 2
REMARK VINA RESULT:      -7.8      3.870      9.738
REMARK  Name = 
REMARK  4 active torsions:
REMARK  status: ('A' for Active; 'I' for Inactive)
REMARK    1  A    between atoms: C_1  and  C_2
REMARK    2  A    between atoms: C_2  and  C_3
REMARK    3  A    between atoms: C_2  and  N_12
REMARK    4  A    between atoms: C_15  and  N_16
REMARK                            x       y       z     vdW  Elec       q    Type
REMARK                         _______ _______ _______ _____ _____    ______ ____
ROOT
ATOM      1  N   UNL     1       0.244  10.361  18.824  0.00  0.00    +0.000 NA
ATOM      2  C   UNL     1      -1.077   9.836  18.464  0.00  0.00    +0.000 C 
ATOM      3  C   UNL     1      -1.871  10.746  17.528  0.00  0.00    +0.000 C 
ATOM      4  C   UNL     1      -2.068  12.152  18.108  0.00  0.00    +0.000 C 
ATOM      5  C   UNL     1      -0.669  12.703  18.411  0.00  0.00    +0.000 C 
ATOM      6  C   UNL     1       0.188  11.767  19.271  0.00  0.00    +0.000 C 
ENDROOT
BRANCH   4   7
ATOM      7  N   UNL     1      -3.050  12.223  19.204  0.00  0.00    +0.000 N 
ATOM      8  C   UNL     1      -2.911  12.869  20.461  0.00  0.00    +0.000 A 
ATOM      9  O   UNL     1      -1.955  13.453  20.937  0.00  0.00    +0.000 OA
ATOM     10  N   UNL     1      -4.143  12.766  21.117  0.00  0.00    +0.000 N 
ATOM     11  C   UNL     1      -5.059  12.165  20.274  0.00  0.00    +0.000 A 
ATOM     12  C   UNL     1      -6.401  11.953  20.499  0.00  0.00    +0.000 A 
ATOM     13  C   UNL     1      -7.126  11.378  19.457  0.00  0.00    +0.000 A 
ATOM     14  C   UNL     1      -6.493  11.041  18.242  0.00  0.00    +0.000 A 
ATOM     15  C   UNL     1      -5.120  11.270  18.045  0.00  0.00    +0.000 A 
ATOM     16  C   UNL     1      -4.409  11.832  19.084  0.00  0.00    +0.000 A 
ATOM     17  H   UNL     1      -4.319  13.170  22.021  0.00  0.00    +0.000 HD
ENDBRANCH   4   7
BRANCH   1  19
ATOM     18  C   UNL     1       0.120   9.065  21.058  0.00  0.00    +0.000 C 
ATOM     19  C   UNL     1       0.960   9.543  19.852  0.00  0.00    +0.000 C 
BRANCH  19  20
ATOM     20  C   UNL     1       1.743   8.351  19.293  0.00  0.00    +0.000 A 
ATOM     21  C   UNL     1       2.385   8.468  18.033  0.00  0.00    +0.000 A 
ATOM     22  C   UNL     1       3.270   7.485  17.571  0.00  0.00    +0.000 A 
ATOM     23  C   UNL     1       3.482   6.386  18.374  0.00  0.00    +0.000 A 
ATOM     24  C   UNL     1       2.838   6.238  19.577  0.00  0.00    +0.000 A 
ATOM     25  C   UNL     1       1.970   7.194  20.060  0.00  0.00    +0.000 A 
ATOM     26  O   UNL     1       3.191   5.095  20.223  0.00  0.00    +0.000 OA
ATOM     27  C   UNL     1       4.125   4.533  19.279  0.00  0.00    +0.000 C 
ATOM     28  O   UNL     1       4.334   5.359  18.115  0.00  0.00    +0.000 OA
ENDBRANCH  19  20
ENDBRANCH   1  19
TORSDOF 3
ENDMDL
MODEL 3
REMARK VINA RESULT:      -7.7      3.337      6.766
REMARK  Name = 
REMARK  4 active torsions:
REMARK  status: ('A' for Active; 'I' for Inactive)
REMARK    1  A    between atoms: C_1  and  C_2
REMARK    2  A    between atoms: C_2  and  C_3
REMARK    3  A    between atoms: C_2  and  N_12
REMARK    4  A    between atoms: C_15  and  N_16
REMARK                            x       y       z     vdW  Elec       q    Type
REMARK                         _______ _______ _______ _____ _____    ______ ____
ROOT
ATOM      1  N   UNL     1       4.644   3.099  17.048  0.00  0.00    +0.000 NA
ATOM      2  C   UNL     1       4.941   3.061  18.484  0.00  0.00    +0.000 C 
ATOM      3  C   UNL     1       3.914   2.284  19.307  0.00  0.00    +0.000 C 
ATOM      4  C   UNL     1       2.492   2.832  19.137  0.00  0.00    +0.000 C 
ATOM      5  C   UNL     1       2.184   2.797  17.634  0.00  0.00    +0.000 C 
ATOM      6  C   UNL     1       3.247   3.487  16.772  0.00  0.00    +0.000 C 
ENDROOT
BRANCH   4   7
ATOM      7  N   UNL     1       2.250   4.112  19.824  0.00  0.00    +0.000 N 
ATOM      8  C   UNL     1       2.181   4.355  21.222  0.00  0.00    +0.000 A 
ATOM      9  O   UNL     1       2.252   3.576  22.154  0.00  0.00    +0.000 OA
ATOM     10  N   UNL     1       2.052   5.738  21.395  0.00  0.00    +0.000 N 
ATOM     11  C   UNL     1       2.131   6.361  20.163  0.00  0.00    +0.000 A 
ATOM     12  C   UNL     1       2.134   7.712  19.900  0.00  0.00    +0.000 A 
ATOM     13  C   UNL     1       2.288   8.088  18.566  0.00  0.00    +0.000 A 
ATOM     14  C   UNL     1       2.433   7.113  17.558  0.00  0.00    +0.000 A 
ATOM     15  C   UNL     1       2.426   5.741  17.861  0.00  0.00    +0.000 A 
ATOM     16  C   UNL     1       2.265   5.378  19.181  0.00  0.00    +0.000 A 
ATOM     17  H   UNL     1       2.010   6.176  22.300  0.00  0.00    +0.000 HD
ENDBRANCH   4   7
BRANCH   1  19
ATOM     18  C   UNL     1       4.975   4.640  14.997  0.00  0.00    +0.000 C 
ATOM     19  C   UNL     1       5.566   3.979  16.264  0.00  0.00    +0.000 C 
BRANCH  19  20
ATOM     20  C   UNL     1       6.285   5.052  17.088  0.00  0.00    +0.000 A 
ATOM     21  C   UNL     1       7.151   4.657  18.141  0.00  0.00    +0.000 A 
ATOM     22  C   UNL     1       7.978   5.583  18.790  0.00  0.00    +0.000 A 
ATOM     23  C   UNL     1       7.910   6.897  18.386  0.00  0.00    +0.000 A 
ATOM     24  C   UNL     1       7.049   7.302  17.397  0.00  0.00    +0.000 A 
ATOM     25  C   UNL     1       6.230   6.413  16.735  0.00  0.00    +0.000 A 
ATOM     26  O   UNL     1       7.140   8.633  17.136  0.00  0.00    +0.000 OA
ATOM     27  C   UNL     1       8.152   9.023  18.086  0.00  0.00    +0.000 C 
ATOM     28  O   UNL     1       8.663   7.922  18.866  0.00  0.00    +0.000 OA
ENDBRANCH  19  20
ENDBRANCH   1  19
TORSDOF 3
ENDMDL
MODEL 4
REMARK VINA RESULT:      -7.6      3.756      9.506
REMARK  Name = 
REMARK  4 active torsions:
REMARK  status: ('A' for Active; 'I' for Inactive)
REMARK    1  A    between atoms: C_1  and  C_2
REMARK    2  A    between atoms: C_2  and  C_3
REMARK    3  A    between atoms: C_2  and  N_12
REMARK    4  A    between atoms: C_15  and  N_16
REMARK                            x       y       z     vdW  Elec       q    Type
REMARK                         _______ _______ _______ _____ _____    ______ ____
ROOT
ATOM      1  N   UNL     1       0.464  10.063  19.532  0.00  0.00    +0.000 NA
ATOM      2  C   UNL     1      -0.844   9.748  18.948  0.00  0.00    +0.000 C 
ATOM      3  C   UNL     1      -1.318  10.764  17.909  0.00  0.00    +0.000 C 
ATOM      4  C   UNL     1      -1.387  12.189  18.473  0.00  0.00    +0.000 C 
ATOM      5  C   UNL     1       0.011  12.515  19.014  0.00  0.00    +0.000 C 
ATOM      6  C   UNL     1       0.555  11.463  19.989  0.00  0.00    +0.000 C 
ENDROOT
BRANCH   4   7
ATOM      7  N   UNL     1      -2.515  12.424  19.391  0.00  0.00    +0.000 N 
ATOM      8  C   UNL     1      -2.549  13.263  20.536  0.00  0.00    +0.000 A 
ATOM      9  O   UNL     1      -1.665  13.926  21.044  0.00  0.00    +0.000 OA
ATOM     10  N   UNL     1      -3.864  13.253  21.015  0.00  0.00    +0.000 N 
ATOM     11  C   UNL     1      -4.657  12.515  20.157  0.00  0.00    +0.000 A 
ATOM     12  C   UNL     1      -6.020  12.327  20.217  0.00  0.00    +0.000 A 
ATOM     13  C   UNL     1      -6.594  11.585  19.187  0.00  0.00    +0.000 A 
ATOM     14  C   UNL     1      -5.798  11.064  18.146  0.00  0.00    +0.000 A 
ATOM     15  C   UNL     1      -4.409  11.275  18.114  0.00  0.00    +0.000 A 
ATOM     16  C   UNL     1      -3.847  12.003  19.141  0.00  0.00    +0.000 A 
ATOM     17  H   UNL     1      -4.163  13.794  21.809  0.00  0.00    +0.000 HD
ENDBRANCH   4   7
BRANCH   1  19
ATOM     18  C   UNL     1      -0.259   8.745  21.638  0.00  0.00    +0.000 C 
ATOM     19  C   UNL     1       0.860   9.151  20.651  0.00  0.00    +0.000 C 
BRANCH  19  20
ATOM     20  C   UNL     1       1.614   7.891  20.216  0.00  0.00    +0.000 A 
ATOM     21  C   UNL     1       1.434   6.685  20.944  0.00  0.00    +0.000 A 
ATOM     22  C   UNL     1       1.940   5.467  20.474  0.00  0.00    +0.000 A 
ATOM     23  C   UNL     1       2.640   5.479  19.288  0.00  0.00    +0.000 A 
ATOM     24  C   UNL     1       2.858   6.642  18.593  0.00  0.00    +0.000 A 
ATOM     25  C   UNL     1       2.364   7.853  19.027  0.00  0.00    +0.000 A 
ATOM     26  O   UNL     1       3.558   6.442  17.444  0.00  0.00    +0.000 OA
ATOM     27  C   UNL     1       3.765   5.017  17.503  0.00  0.00    +0.000 C 
ATOM     28  O   UNL     1       3.165   4.395  18.658  0.00  0.00    +0.000 OA
ENDBRANCH  19  20
ENDBRANCH   1  19
TORSDOF 3
ENDMDL
MODEL 5
REMARK VINA RESULT:      -7.5      3.244      9.923
REMARK  Name = 
REMARK  4 active torsions:
REMARK  status: ('A' for Active; 'I' for Inactive)
REMARK    1  A    between atoms: C_1  and  C_2
REMARK    2  A    between atoms: C_2  and  C_3
REMARK    3  A    between atoms: C_2  and  N_12
REMARK    4  A    between atoms: C_15  and  N_16
REMARK                            x       y       z     vdW  Elec       q    Type
REMARK                         _______ _______ _______ _____ _____    ______ ____
ROOT
ATOM      1  N   UNL     1       0.614  10.260  19.945  0.00  0.00    +0.000 NA
ATOM      2  C   UNL     1      -0.829  10.247  19.685  0.00  0.00    +0.000 C 
ATOM      3  C   UNL     1      -1.374  11.572  19.154  0.00  0.00    +0.000 C 
ATOM      4  C   UNL     1      -1.079  12.746  20.095  0.00  0.00    +0.000 C 
ATOM      5  C   UNL     1       0.443  12.777  20.295  0.00  0.00    +0.000 C 
ATOM      6  C   UNL     1       1.033  11.433  20.738  0.00  0.00    +0.000 C 
ENDROOT
BRANCH   4   7
ATOM      7  N   UNL     1      -1.899  12.762  21.318  0.00  0.00    +0.000 N 
ATOM      8  C   UNL     1      -1.474  12.996  22.653  0.00  0.00    +0.000 A 
ATOM      9  O   UNL     1      -0.355  13.181  23.094  0.00  0.00    +0.000 OA
ATOM     10  N   UNL     1      -2.622  13.030  23.452  0.00  0.00    +0.000 N 
ATOM     11  C   UNL     1      -3.741  12.917  22.649  0.00  0.00    +0.000 A 
ATOM     12  C   UNL     1      -5.063  12.989  23.027  0.00  0.00    +0.000 A 
ATOM     13  C   UNL     1      -6.009  12.907  22.007  0.00  0.00    +0.000 A 
ATOM     14  C   UNL     1      -5.607  12.759  20.664  0.00  0.00    +0.000 A 
ATOM     15  C   UNL     1      -4.248  12.689  20.311  0.00  0.00    +0.000 A 
ATOM     16  C   UNL     1      -3.319  12.762  21.327  0.00  0.00    +0.000 A 
ATOM     17  H   UNL     1      -2.596  13.209  24.442  0.00  0.00    +0.000 HD
ENDBRANCH   4   7
BRANCH   1  19
ATOM     18  C   UNL     1       0.109   8.234  21.472  0.00  0.00    +0.000 C 
ATOM     19  C   UNL     1       1.121   9.014  20.601  0.00  0.00    +0.000 C 
BRANCH  19  20
ATOM     20  C   UNL     1       1.819   8.029  19.657  0.00  0.00    +0.000 A 
ATOM     21  C   UNL     1       2.227   8.468  18.371  0.00  0.00    +0.000 A 
ATOM     22  C   UNL     1       3.039   7.672  17.552  0.00  0.00    +0.000 A 
ATOM     23  C   UNL     1       3.412   6.435  18.030  0.00  0.00    +0.000 A 
ATOM     24  C   UNL     1       2.993   5.980  19.254  0.00  0.00    +0.000 A 
ATOM     25  C   UNL     1       2.202   6.745  20.084  0.00  0.00    +0.000 A 
ATOM     26  O   UNL     1       3.478   4.744  19.547  0.00  0.00    +0.000 OA
ATOM     27  C   UNL     1       4.244   4.469  18.357  0.00  0.00    +0.000 C 
ATOM     28  O   UNL     1       4.227   5.548  17.400  0.00  0.00    +0.000 OA
ENDBRANCH  19  20
ENDBRANCH   1  19
TORSDOF 3
ENDMDL
MODEL 6
REMARK VINA RESULT:      -7.4      3.594      9.590
REMARK  Name = 
REMARK  4 active torsions:
REMARK  status: ('A' for Active; 'I' for Inactive)
REMARK    1  A    between atoms: C_1  and  C_2
REMARK    2  A    between atoms: C_2  and  C_3
REMARK    3  A    between atoms: C_2  and  N_12
REMARK    4  A    between atoms: C_15  and  N_16
REMARK                            x       y       z     vdW  Elec       q    Type
REMARK                         _______ _______ _______ _____ _____    ______ ____
ROOT
ATOM      1  N   UNL     1       0.703  10.312  19.944  0.00  0.00    +0.000 NA
ATOM      2  C   UNL     1      -0.506  10.155  19.128  0.00  0.00    +0.000 C 
ATOM      3  C   UNL     1      -0.917  11.424  18.381  0.00  0.00    +0.000 C 
ATOM      4  C   UNL     1      -1.139  12.612  19.324  0.00  0.00    +0.000 C 
ATOM      5  C   UNL     1       0.164  12.795  20.115  0.00  0.00    +0.000 C 
ATOM      6  C   UNL     1       0.653  11.513  20.799  0.00  0.00    +0.000 C 
ENDROOT
BRANCH   4   7
ATOM      7  N   UNL     1      -2.379  12.534  20.116  0.00  0.00    +0.000 N 
ATOM      8  C   UNL     1      -2.589  12.961  21.454  0.00  0.00    +0.000 A 
ATOM      9  O   UNL     1      -1.804  13.429  22.257  0.00  0.00    +0.000 OA
ATOM     10  N   UNL     1      -3.951  12.792  21.732  0.00  0.00    +0.000 N 
ATOM     11  C   UNL     1      -4.600  12.365  20.588  0.00  0.00    +0.000 A 
ATOM     12  C   UNL     1      -5.950  12.162  20.410  0.00  0.00    +0.000 A 
ATOM     13  C   UNL     1      -6.362  11.788  19.132  0.00  0.00    +0.000 A 
ATOM     14  C   UNL     1      -5.423  11.634  18.091  0.00  0.00    +0.000 A 
ATOM     15  C   UNL     1      -4.051  11.849  18.307  0.00  0.00    +0.000 A 
ATOM     16  C   UNL     1      -3.651  12.211  19.576  0.00  0.00    +0.000 A 
ATOM     17  H   UNL     1      -4.367  13.047  22.611  0.00  0.00    +0.000 HD
ENDBRANCH   4   7
BRANCH   1  19
ATOM     18  C   UNL     1      -0.116   8.591  21.692  0.00  0.00    +0.000 C 
ATOM     19  C   UNL     1       1.021   9.117  20.787  0.00  0.00    +0.000 C 
BRANCH  19  20
ATOM     20  C   UNL     1       1.629   7.936  20.024  0.00  0.00    +0.000 A 
ATOM     21  C   UNL     1       2.193   8.152  18.739  0.00  0.00    +0.000 A 
ATOM     22  C   UNL     1       2.932   7.155  18.090  0.00  0.00    +0.000 A 
ATOM     23  C   UNL     1       3.078   5.945  18.732  0.00  0.00    +0.000 A 
ATOM     24  C   UNL     1       2.504   5.706  19.956  0.00  0.00    +0.000 A 
ATOM     25  C   UNL     1       1.780   6.672  20.621  0.00  0.00    +0.000 A 
ATOM     26  O   UNL     1       2.773   4.459  20.425  0.00  0.00    +0.000 OA
ATOM     27  C   UNL     1       3.574   3.935  19.347  0.00  0.00    +0.000 C 
ATOM     28  O   UNL     1       3.792   4.881  18.280  0.00  0.00    +0.000 OA
ENDBRANCH  19  20
ENDBRANCH   1  19
TORSDOF 3
ENDMDL
MODEL 7
REMARK VINA RESULT:      -7.4      1.822      3.246
REMARK  Name = 
REMARK  4 active torsions:
REMARK  status: ('A' for Active; 'I' for Inactive)
REMARK    1  A    between atoms: C_1  and  C_2
REMARK    2  A    between atoms: C_2  and  C_3
REMARK    3  A    between atoms: C_2  and  N_12
REMARK    4  A    between atoms: C_15  and  N_16
REMARK                            x       y       z     vdW  Elec       q    Type
REMARK                         _______ _______ _______ _____ _____    ______ ____
ROOT
ATOM      1  N   UNL     1       4.286   6.365  18.540  0.00  0.00    +0.000 NA
ATOM      2  C   UNL     1       4.937   5.059  18.689  0.00  0.00    +0.000 C 
ATOM      3  C   UNL     1       6.435   5.076  18.388  0.00  0.00    +0.000 C 
ATOM      4  C   UNL     1       6.742   5.594  16.977  0.00  0.00    +0.000 C 
ATOM      5  C   UNL     1       6.108   6.988  16.873  0.00  0.00    +0.000 C 
ATOM      6  C   UNL     1       4.625   7.020  17.262  0.00  0.00    +0.000 C 
ENDROOT
BRANCH   4   7
ATOM      7  N   UNL     1       6.415   4.645  15.899  0.00  0.00    +0.000 N 
ATOM      8  C   UNL     1       5.431   3.622  15.904  0.00  0.00    +0.000 A 
ATOM      9  O   UNL     1       4.682   3.263  16.794  0.00  0.00    +0.000 OA
ATOM     10  N   UNL     1       5.410   3.062  14.621  0.00  0.00    +0.000 N 
ATOM     11  C   UNL     1       6.278   3.763  13.804  0.00  0.00    +0.000 A 
ATOM     12  C   UNL     1       6.491   3.591  12.455  0.00  0.00    +0.000 A 
ATOM     13  C   UNL     1       7.379   4.475  11.846  0.00  0.00    +0.000 A 
ATOM     14  C   UNL     1       8.014   5.486  12.596  0.00  0.00    +0.000 A 
ATOM     15  C   UNL     1       7.774   5.635  13.973  0.00  0.00    +0.000 A 
ATOM     16  C   UNL     1       6.900   4.751  14.569  0.00  0.00    +0.000 A 
ATOM     17  H   UNL     1       4.775   2.330  14.352  0.00  0.00    +0.000 HD
ENDBRANCH   4   7
BRANCH   1  19
ATOM     18  C   UNL     1       2.228   5.148  19.525  0.00  0.00    +0.000 C 
ATOM     19  C   UNL     1       2.798   6.319  18.693  0.00  0.00    +0.000 C 
BRANCH  19  20
ATOM     20  C   UNL     1       2.162   7.624  19.179  0.00  0.00    +0.000 A 
ATOM     21  C   UNL     1       1.851   8.641  18.239  0.00  0.00    +0.000 A 
ATOM     22  C   UNL     1       1.094   9.763  18.601  0.00  0.00    +0.000 A 
ATOM     23  C   UNL     1       0.675   9.858  19.909  0.00  0.00    +0.000 A 
ATOM     24  C   UNL     1       1.002   8.904  20.840  0.00  0.00    +0.000 A 
ATOM     25  C   UNL     1       1.737   7.786  20.511  0.00  0.00    +0.000 A 
ATOM     26  O   UNL     1       0.485   9.174  22.069  0.00  0.00    +0.000 OA
ATOM     27  C   UNL     1      -0.195  10.417  21.805  0.00  0.00    +0.000 C 
ATOM     28  O   UNL     1      -0.100  10.845  20.431  0.00  0.00    +0.000 OA
ENDBRANCH  19  20
ENDBRANCH   1  19
TORSDOF 3
ENDMDL
MODEL 8
REMARK VINA RESULT:      -7.3      1.939      3.350
REMARK  Name = 
REMARK  4 active torsions:
REMARK  status: ('A' for Active; 'I' for Inactive)
REMARK    1  A    between atoms: C_1  and  C_2
REMARK    2  A    between atoms: C_2  and  C_3
REMARK    3  A    between atoms: C_2  and  N_12
REMARK    4  A    between atoms: C_15  and  N_16
REMARK                            x       y       z     vdW  Elec       q    Type
REMARK                         _______ _______ _______ _____ _____    ______ ____
ROOT
ATOM      1  N   UNL     1       4.478   6.049  18.835  0.00  0.00    +0.000 NA
ATOM      2  C   UNL     1       5.333   4.857  18.851  0.00  0.00    +0.000 C 
ATOM      3  C   UNL     1       6.753   5.107  18.344  0.00  0.00    +0.000 C 
ATOM      4  C   UNL     1       6.774   5.679  16.922  0.00  0.00    +0.000 C 
ATOM      5  C   UNL     1       5.930   6.960  16.950  0.00  0.00    +0.000 C 
ATOM      6  C   UNL     1       4.530   6.761  17.543  0.00  0.00    +0.000 C 
ENDROOT
BRANCH   4   7
ATOM      7  N   UNL     1       6.444   4.702  15.871  0.00  0.00    +0.000 N 
ATOM      8  C   UNL     1       5.469   3.669  15.912  0.00  0.00    +0.000 A 
ATOM      9  O   UNL     1       4.735   3.325  16.819  0.00  0.00    +0.000 OA
ATOM     10  N   UNL     1       5.439   3.080  14.643  0.00  0.00    +0.000 N 
ATOM     11  C   UNL     1       6.290   3.768  13.799  0.00  0.00    +0.000 A 
ATOM     12  C   UNL     1       6.488   3.566  12.452  0.00  0.00    +0.000 A 
ATOM     13  C   UNL     1       7.361   4.444  11.811  0.00  0.00    +0.000 A 
ATOM     14  C   UNL     1       7.995   5.479  12.529  0.00  0.00    +0.000 A 
ATOM     15  C   UNL     1       7.770   5.658  13.905  0.00  0.00    +0.000 A 
ATOM     16  C   UNL     1       6.911   4.781  14.533  0.00  0.00    +0.000 A 
ATOM     17  H   UNL     1       4.808   2.335  14.400  0.00  0.00    +0.000 HD
ENDBRANCH   4   7
BRANCH   1  19
ATOM     18  C   UNL     1       2.809   4.724  20.300  0.00  0.00    +0.000 C 
ATOM     19  C   UNL     1       3.051   5.774  19.191  0.00  0.00    +0.000 C 
BRANCH  19  20
ATOM     20  C   UNL     1       2.215   7.020  19.502  0.00  0.00    +0.000 A 
ATOM     21  C   UNL     1       1.702   7.205  20.812  0.00  0.00    +0.000 A 
ATOM     22  C   UNL     1       1.104   8.412  21.197  0.00  0.00    +0.000 A 
ATOM     23  C   UNL     1       1.012   9.411  20.254  0.00  0.00    +0.000 A 
ATOM     24  C   UNL     1       1.466   9.233  18.971  0.00  0.00    +0.000 A 
ATOM     25  C   UNL     1       2.066   8.060  18.567  0.00  0.00    +0.000 A 
ATOM     26  O   UNL     1       1.295  10.338  18.197  0.00  0.00    +0.000 OA
ATOM     27  C   UNL     1       0.667  11.229  19.140  0.00  0.00    +0.000 C 
ATOM     28  O   UNL     1       0.506  10.657  20.455  0.00  0.00    +0.000 OA
ENDBRANCH  19  20
ENDBRANCH   1  19
TORSDOF 3
ENDMDL
MODEL 9
REMARK VINA RESULT:      -7.3      3.568      9.101
REMARK  Name = 
REMARK  4 active torsions:
REMARK  status: ('A' for Active; 'I' for Inactive)
REMARK    1  A    between atoms: C_1  and  C_2
REMARK    2  A    between atoms: C_2  and  C_3
REMARK    3  A    between atoms: C_2  and  N_12
REMARK    4  A    between atoms: C_15  and  N_16
REMARK                            x       y       z     vdW  Elec       q    Type
REMARK                         _______ _______ _______ _____ _____    ______ ____
ROOT
ATOM      1  N   UNL     1       1.052   9.830  20.093  0.00  0.00    +0.000 NA
ATOM      2  C   UNL     1       0.055   9.716  19.023  0.00  0.00    +0.000 C 
ATOM      3  C   UNL     1      -0.079  10.974  18.166  0.00  0.00    +0.000 C 
ATOM      4  C   UNL     1      -0.424  12.215  18.999  0.00  0.00    +0.000 C 
ATOM      5  C   UNL     1       0.671  12.348  20.065  0.00  0.00    +0.000 C 
ATOM      6  C   UNL     1       0.895  11.068  20.880  0.00  0.00    +0.000 C 
ENDROOT
BRANCH   4   7
ATOM      7  N   UNL     1      -1.815  12.253  19.482  0.00  0.00    +0.000 N 
ATOM      8  C   UNL     1      -2.312  12.849  20.672  0.00  0.00    +0.000 A 
ATOM      9  O   UNL     1      -1.714  13.408  21.572  0.00  0.00    +0.000 OA
ATOM     10  N   UNL     1      -3.706  12.731  20.642  0.00  0.00    +0.000 N 
ATOM     11  C   UNL     1      -4.091  12.168  19.440  0.00  0.00    +0.000 A 
ATOM     12  C   UNL     1      -5.371  11.958  18.977  0.00  0.00    +0.000 A 
ATOM     13  C   UNL     1      -5.491  11.428  17.694  0.00  0.00    +0.000 A 
ATOM     14  C   UNL     1      -4.345  11.131  16.928  0.00  0.00    +0.000 A 
ATOM     15  C   UNL     1      -3.052  11.358  17.430  0.00  0.00    +0.000 A 
ATOM     16  C   UNL     1      -2.941  11.876  18.704  0.00  0.00    +0.000 A 
ATOM     17  H   UNL     1      -4.303  13.102  21.362  0.00  0.00    +0.000 HD
ENDBRANCH   4   7
BRANCH   1  19
ATOM     18  C   UNL     1      -0.245   8.316  21.741  0.00  0.00    +0.000 C 
ATOM     19  C   UNL     1       1.080   8.655  21.020  0.00  0.00    +0.000 C 
BRANCH  19  20
ATOM     20  C   UNL     1       1.652   7.371  20.413  0.00  0.00    +0.000 A 
ATOM     21  C   UNL     1       2.455   7.450  19.244  0.00  0.00    +0.000 A 
ATOM     22  C   UNL     1       3.160   6.338  18.767  0.00  0.00    +0.000 A 
ATOM     23  C   UNL     1       3.033   5.154  19.459  0.00  0.00    +0.000 A 
ATOM     24  C   UNL     1       2.229   5.050  20.566  0.00  0.00    +0.000 A 
ATOM     25  C   UNL     1       1.531   6.130  21.064  0.00  0.00    +0.000 A 
ATOM     26  O   UNL     1       2.248   3.805  21.112  0.00  0.00    +0.000 OA
ATOM     27  C   UNL     1       3.149   3.132  20.211  0.00  0.00    +0.000 C 
ATOM     28  O   UNL     1       3.671   3.988  19.173  0.00  0.00    +0.000 OA
ENDBRANCH  19  20
ENDBRANCH   1  19
TORSDOF 3
ENDMDL
