MODEL 1
REMARK VINA RESULT:      -6.3      0.000      0.000
REMARK  Name = 
REMARK  26 active torsions:
REMARK  status: ('A' for Active; 'I' for Inactive)
REMARK    1  A    between atoms: C_1  and  C_2
REMARK    2  A    between atoms: C_2  and  C_3
REMARK    3  A    between atoms: C_3  and  C_4
REMARK    4  A    between atoms: C_4  and  C_5
REMARK    5  A    between atoms: C_5  and  C_6
REMARK    6  A    between atoms: C_6  and  C_7
REMARK    7  A    between atoms: C_7  and  C_8
REMARK    8  A    between atoms: C_8  and  C_9
REMARK    9  A    between atoms: C_9  and  C_10
REMARK   10  A    between atoms: C_10  and  C_11
REMARK   11  A    between atoms: C_11  and  O_12
REMARK   12  A    between atoms: O_12  and  C_13
REMARK   13  A    between atoms: C_13  and  C_15
REMARK   14  A    between atoms: C_15  and  C_16
REMARK   15  A    between atoms: C_16  and  C_17
REMARK   16  A    between atoms: C_16  and  O_22
REMARK   17  A    between atoms: C_17  and  N_18
REMARK   18  A    between atoms: N_18  and  C_19
REMARK   19  A    between atoms: N_18  and  C_20
REMARK   20  A    between atoms: N_18  and  C_21
REMARK   21  A    between atoms: O_22  and  C_23
REMARK   22  A    between atoms: C_23  and  C_25
REMARK   23  A    between atoms: C_25  and  C_26
REMARK   24  A    between atoms: C_26  and  C_27
REMARK   25  A    between atoms: C_27  and  C_28
REMARK   26  A    between atoms: C_27  and  C_29
REMARK                            x       y       z     vdW  Elec       q    Type
REMARK                         _______ _______ _______ _____ _____    ______ ____
ROOT
ATOM      1  C   UNL     1       7.656   5.849  17.884  0.00  0.00    +0.000 C 
ENDROOT
BRANCH   1   2
ATOM      2  C   UNL     1       7.603   7.326  17.595  0.00  0.00    +0.000 C 
ATOM      3  O   UNL     1       6.898   7.827  16.733  0.00  0.00    +0.000 OA
BRANCH   2   4
ATOM      4  O   UNL     1       8.362   8.018  18.479  0.00  0.00    +0.000 OA
BRANCH   4   5
ATOM      5  C   UNL     1       8.443   9.440  18.252  0.00  0.00    +0.000 C 
BRANCH   5   6
ATOM      6  C   UNL     1       9.514  10.092  19.135  0.00  0.00    +0.000 C 
BRANCH   6   7
ATOM      7  C   UNL     1       9.719  11.562  18.778  0.00  0.00    +0.000 C 
BRANCH   7   8
ATOM      8  C   UNL     1      10.261  12.366  19.958  0.00  0.00    +0.000 C 
BRANCH   8   9
ATOM      9  C   UNL     1       9.497  11.996  21.228  0.00  0.00    +0.000 C 
BRANCH   9  10
ATOM     10  C   UNL     1       8.478  13.061  21.622  0.00  0.00    +0.000 C 
BRANCH  10  11
ATOM     11  C   UNL     1       8.801  13.601  23.015  0.00  0.00    +0.000 C 
BRANCH  11  12
ATOM     12  C   UNL     1       8.272  12.687  24.117  0.00  0.00    +0.000 C 
BRANCH  12  13
ATOM     13  C   UNL     1       6.805  12.334  23.866  0.00  0.00    +0.000 C 
BRANCH  13  15
ATOM     14  C   UNL     1       6.435  11.729  26.278  0.00  0.00    +0.000 C 
ATOM     15  C   UNL     1       6.310  11.263  24.837  0.00  0.00    +0.000 C 
ENDBRANCH  13  15
ENDBRANCH  12  13
ENDBRANCH  11  12
ENDBRANCH  10  11
ENDBRANCH   9  10
ENDBRANCH   8   9
ENDBRANCH   7   8
ENDBRANCH   6   7
ENDBRANCH   5   6
ENDBRANCH   4   5
ENDBRANCH   2   4
ENDBRANCH   1   2
BRANCH   1  16
ATOM     16  C   UNL     1       6.448   5.080  17.329  0.00  0.00    +0.000 C 
BRANCH  16  17
ATOM     17  O   UNL     1       6.967   4.220  16.275  0.00  0.00    +0.000 OA
BRANCH  17  18
ATOM     18  C   UNL     1       6.922   4.700  15.003  0.00  0.00    +0.000 C 
ATOM     19  O   UNL     1       7.721   5.502  14.544  0.00  0.00    +0.000 OA
BRANCH  18  20
ATOM     20  C   UNL     1       5.806   4.083  14.211  0.00  0.00    +0.000 C 
BRANCH  20  21
ATOM     21  C   UNL     1       6.336   3.685  12.832  0.00  0.00    +0.000 C 
BRANCH  21  22
ATOM     22  C   UNL     1       5.460   2.651  12.094  0.00  0.00    +0.000 C 
ATOM     23  C   UNL     1       4.300   3.307  11.345  0.00  0.00    +0.000 C 
ATOM     24  C   UNL     1       6.317   1.829  11.132  0.00  0.00    +0.000 C 
ENDBRANCH  21  22
ENDBRANCH  20  21
ENDBRANCH  18  20
ENDBRANCH  17  18
ENDBRANCH  16  17
BRANCH  16  25
ATOM     25  C   UNL     1       5.499   4.365  18.345  0.00  0.00    +0.000 C 
BRANCH  25  26
ATOM     26  N   UNL     1       3.965   4.478  18.165  0.00  0.00    +0.000 N 
ATOM     27  C   UNL     1       3.509   5.901  17.896  0.00  0.00    +0.000 C 
ATOM     28  C   UNL     1       3.424   3.542  17.101  0.00  0.00    +0.000 C 
ATOM     29  C   UNL     1       3.356   4.045  19.513  0.00  0.00    +0.000 C 
ENDBRANCH  25  26
ENDBRANCH  16  25
ENDBRANCH   1  16
TORSDOF 20
ENDMDL
MODEL 2
REMARK VINA RESULT:      -6.1      5.100      6.878
REMARK  Name = 
REMARK  26 active torsions:
REMARK  status: ('A' for Active; 'I' for Inactive)
REMARK    1  A    between atoms: C_1  and  C_2
REMARK    2  A    between atoms: C_2  and  C_3
REMARK    3  A    between atoms: C_3  and  C_4
REMARK    4  A    between atoms: C_4  and  C_5
REMARK    5  A    between atoms: C_5  and  C_6
REMARK    6  A    between atoms: C_6  and  C_7
REMARK    7  A    between atoms: C_7  and  C_8
REMARK    8  A    between atoms: C_8  and  C_9
REMARK    9  A    between atoms: C_9  and  C_10
REMARK   10  A    between atoms: C_10  and  C_11
REMARK   11  A    between atoms: C_11  and  O_12
REMARK   12  A    between atoms: O_12  and  C_13
REMARK   13  A    between atoms: C_13  and  C_15
REMARK   14  A    between atoms: C_15  and  C_16
REMARK   15  A    between atoms: C_16  and  C_17
REMARK   16  A    between atoms: C_16  and  O_22
REMARK   17  A    between atoms: C_17  and  N_18
REMARK   18  A    between atoms: N_18  and  C_19
REMARK   19  A    between atoms: N_18  and  C_20
REMARK   20  A    between atoms: N_18  and  C_21
REMARK   21  A    between atoms: O_22  and  C_23
REMARK   22  A    between atoms: C_23  and  C_25
REMARK   23  A    between atoms: C_25  and  C_26
REMARK   24  A    between atoms: C_26  and  C_27
REMARK   25  A    between atoms: C_27  and  C_28
REMARK   26  A    between atoms: C_27  and  C_29
REMARK                            x       y       z     vdW  Elec       q    Type
REMARK                         _______ _______ _______ _____ _____    ______ ____
ROOT
ATOM      1  C   UNL     1       4.176   5.128  16.896  0.00  0.00    +0.000 C 
ENDROOT
BRANCH   1   2
ATOM      2  C   UNL     1       3.956   6.421  17.636  0.00  0.00    +0.000 C 
ATOM      3  O   UNL     1       4.808   7.286  17.765  0.00  0.00    +0.000 OA
BRANCH   2   4
ATOM      4  O   UNL     1       2.669   6.529  18.047  0.00  0.00    +0.000 OA
BRANCH   4   5
ATOM      5  C   UNL     1       2.484   6.844  19.441  0.00  0.00    +0.000 C 
BRANCH   5   6
ATOM      6  C   UNL     1       1.894   8.246  19.629  0.00  0.00    +0.000 C 
BRANCH   6   7
ATOM      7  C   UNL     1       1.555   8.899  18.291  0.00  0.00    +0.000 C 
BRANCH   7   8
ATOM      8  C   UNL     1       1.801  10.406  18.312  0.00  0.00    +0.000 C 
BRANCH   8   9
ATOM      9  C   UNL     1       0.910  11.060  19.366  0.00  0.00    +0.000 C 
BRANCH   9  10
ATOM     10  C   UNL     1      -0.225  11.869  18.745  0.00  0.00    +0.000 C 
BRANCH  10  11
ATOM     11  C   UNL     1      -1.525  11.066  18.795  0.00  0.00    +0.000 C 
BRANCH  11  12
ATOM     12  C   UNL     1      -1.732  10.239  17.529  0.00  0.00    +0.000 C 
BRANCH  12  13
ATOM     13  C   UNL     1      -3.188   9.783  17.416  0.00  0.00    +0.000 C 
BRANCH  13  15
ATOM     14  C   UNL     1      -2.880  10.413  15.002  0.00  0.00    +0.000 C 
ATOM     15  C   UNL     1      -3.858  10.346  16.163  0.00  0.00    +0.000 C 
ENDBRANCH  13  15
ENDBRANCH  12  13
ENDBRANCH  11  12
ENDBRANCH  10  11
ENDBRANCH   9  10
ENDBRANCH   8   9
ENDBRANCH   7   8
ENDBRANCH   6   7
ENDBRANCH   5   6
ENDBRANCH   4   5
ENDBRANCH   2   4
ENDBRANCH   1   2
BRANCH   1  16
ATOM     16  C   UNL     1       5.130   4.169  17.624  0.00  0.00    +0.000 C 
BRANCH  16  17
ATOM     17  O   UNL     1       6.477   4.615  17.297  0.00  0.00    +0.000 OA
BRANCH  17  18
ATOM     18  C   UNL     1       6.782   4.755  15.979  0.00  0.00    +0.000 C 
ATOM     19  O   UNL     1       7.460   5.664  15.525  0.00  0.00    +0.000 OA
BRANCH  18  20
ATOM     20  C   UNL     1       6.235   3.626  15.155  0.00  0.00    +0.000 C 
BRANCH  20  21
ATOM     21  C   UNL     1       5.704   4.187  13.833  0.00  0.00    +0.000 C 
BRANCH  21  22
ATOM     22  C   UNL     1       6.131   3.379  12.589  0.00  0.00    +0.000 C 
ATOM     23  C   UNL     1       4.957   3.098  11.652  0.00  0.00    +0.000 C 
ATOM     24  C   UNL     1       7.243   4.117  11.842  0.00  0.00    +0.000 C 
ENDBRANCH  21  22
ENDBRANCH  20  21
ENDBRANCH  18  20
ENDBRANCH  17  18
ENDBRANCH  16  17
BRANCH  16  25
ATOM     25  C   UNL     1       4.885   3.896  19.143  0.00  0.00    +0.000 C 
BRANCH  25  26
ATOM     26  N   UNL     1       4.013   2.690  19.570  0.00  0.00    +0.000 N 
ATOM     27  C   UNL     1       3.584   1.829  18.395  0.00  0.00    +0.000 C 
ATOM     28  C   UNL     1       4.670   1.834  20.636  0.00  0.00    +0.000 C 
ATOM     29  C   UNL     1       2.737   3.296  20.188  0.00  0.00    +0.000 C 
ENDBRANCH  25  26
ENDBRANCH  16  25
ENDBRANCH   1  16
TORSDOF 20
ENDMDL
MODEL 3
REMARK VINA RESULT:      -6.1      4.372      6.595
REMARK  Name = 
REMARK  26 active torsions:
REMARK  status: ('A' for Active; 'I' for Inactive)
REMARK    1  A    between atoms: C_1  and  C_2
REMARK    2  A    between atoms: C_2  and  C_3
REMARK    3  A    between atoms: C_3  and  C_4
REMARK    4  A    between atoms: C_4  and  C_5
REMARK    5  A    between atoms: C_5  and  C_6
REMARK    6  A    between atoms: C_6  and  C_7
REMARK    7  A    between atoms: C_7  and  C_8
REMARK    8  A    between atoms: C_8  and  C_9
REMARK    9  A    between atoms: C_9  and  C_10
REMARK   10  A    between atoms: C_10  and  C_11
REMARK   11  A    between atoms: C_11  and  O_12
REMARK   12  A    between atoms: O_12  and  C_13
REMARK   13  A    between atoms: C_13  and  C_15
REMARK   14  A    between atoms: C_15  and  C_16
REMARK   15  A    between atoms: C_16  and  C_17
REMARK   16  A    between atoms: C_16  and  O_22
REMARK   17  A    between atoms: C_17  and  N_18
REMARK   18  A    between atoms: N_18  and  C_19
REMARK   19  A    between atoms: N_18  and  C_20
REMARK   20  A    between atoms: N_18  and  C_21
REMARK   21  A    between atoms: O_22  and  C_23
REMARK   22  A    between atoms: C_23  and  C_25
REMARK   23  A    between atoms: C_25  and  C_26
REMARK   24  A    between atoms: C_26  and  C_27
REMARK   25  A    between atoms: C_27  and  C_28
REMARK   26  A    between atoms: C_27  and  C_29
REMARK                            x       y       z     vdW  Elec       q    Type
REMARK                         _______ _______ _______ _____ _____    ______ ____
ROOT
ATOM      1  C   UNL     1       4.538   3.141  19.299  0.00  0.00    +0.000 C 
ENDROOT
BRANCH   1   2
ATOM      2  C   UNL     1       3.441   2.352  18.634  0.00  0.00    +0.000 C 
ATOM      3  O   UNL     1       3.637   1.490  17.790  0.00  0.00    +0.000 OA
BRANCH   2   4
ATOM      4  O   UNL     1       2.234   2.661  19.167  0.00  0.00    +0.000 OA
BRANCH   4   5
ATOM      5  C   UNL     1       2.267   3.268  20.474  0.00  0.00    +0.000 C 
BRANCH   5   6
ATOM      6  C   UNL     1       1.083   4.218  20.685  0.00  0.00    +0.000 C 
BRANCH   6   7
ATOM      7  C   UNL     1       1.511   5.681  20.586  0.00  0.00    +0.000 C 
BRANCH   7   8
ATOM      8  C   UNL     1       1.705   6.122  19.136  0.00  0.00    +0.000 C 
BRANCH   8   9
ATOM      9  C   UNL     1       3.001   6.921  19.011  0.00  0.00    +0.000 C 
BRANCH   9  10
ATOM     10  C   UNL     1       2.944   7.944  17.880  0.00  0.00    +0.000 C 
BRANCH  10  11
ATOM     11  C   UNL     1       1.534   8.524  17.772  0.00  0.00    +0.000 C 
BRANCH  11  12
ATOM     12  C   UNL     1       1.392   9.826  18.557  0.00  0.00    +0.000 C 
BRANCH  12  13
ATOM     13  C   UNL     1      -0.066  10.057  18.957  0.00  0.00    +0.000 C 
BRANCH  13  15
ATOM     14  C   UNL     1       0.995   9.381  21.133  0.00  0.00    +0.000 C 
ATOM     15  C   UNL     1      -0.268   9.894  20.463  0.00  0.00    +0.000 C 
ENDBRANCH  13  15
ENDBRANCH  12  13
ENDBRANCH  11  12
ENDBRANCH  10  11
ENDBRANCH   9  10
ENDBRANCH   8   9
ENDBRANCH   7   8
ENDBRANCH   6   7
ENDBRANCH   5   6
ENDBRANCH   4   5
ENDBRANCH   2   4
ENDBRANCH   1   2
BRANCH   1  16
ATOM     16  C   UNL     1       5.257   4.105  18.343  0.00  0.00    +0.000 C 
BRANCH  16  17
ATOM     17  O   UNL     1       4.330   4.351  17.247  0.00  0.00    +0.000 OA
BRANCH  17  18
ATOM     18  C   UNL     1       4.854   4.825  16.085  0.00  0.00    +0.000 C 
ATOM     19  O   UNL     1       5.053   6.009  15.855  0.00  0.00    +0.000 OA
BRANCH  18  20
ATOM     20  C   UNL     1       5.214   3.717  15.139  0.00  0.00    +0.000 C 
BRANCH  20  21
ATOM     21  C   UNL     1       6.399   4.162  14.279  0.00  0.00    +0.000 C 
BRANCH  21  22
ATOM     22  C   UNL     1       6.383   3.598  12.843  0.00  0.00    +0.000 C 
ATOM     23  C   UNL     1       4.967   3.503  12.275  0.00  0.00    +0.000 C 
ATOM     24  C   UNL     1       7.264   4.455  11.934  0.00  0.00    +0.000 C 
ENDBRANCH  21  22
ENDBRANCH  20  21
ENDBRANCH  18  20
ENDBRANCH  17  18
ENDBRANCH  16  17
BRANCH  16  25
ATOM     25  C   UNL     1       5.910   5.390  18.945  0.00  0.00    +0.000 C 
BRANCH  25  26
ATOM     26  N   UNL     1       7.410   5.677  18.685  0.00  0.00    +0.000 N 
ATOM     27  C   UNL     1       7.638   6.984  17.946  0.00  0.00    +0.000 C 
ATOM     28  C   UNL     1       8.248   5.635  19.949  0.00  0.00    +0.000 C 
ATOM     29  C   UNL     1       7.899   4.537  17.770  0.00  0.00    +0.000 C 
ENDBRANCH  25  26
ENDBRANCH  16  25
ENDBRANCH   1  16
TORSDOF 20
ENDMDL
MODEL 4
REMARK VINA RESULT:      -6.0      1.038      1.647
REMARK  Name = 
REMARK  26 active torsions:
REMARK  status: ('A' for Active; 'I' for Inactive)
REMARK    1  A    between atoms: C_1  and  C_2
REMARK    2  A    between atoms: C_2  and  C_3
REMARK    3  A    between atoms: C_3  and  C_4
REMARK    4  A    between atoms: C_4  and  C_5
REMARK    5  A    between atoms: C_5  and  C_6
REMARK    6  A    between atoms: C_6  and  C_7
REMARK    7  A    between atoms: C_7  and  C_8
REMARK    8  A    between atoms: C_8  and  C_9
REMARK    9  A    between atoms: C_9  and  C_10
REMARK   10  A    between atoms: C_10  and  C_11
REMARK   11  A    between atoms: C_11  and  O_12
REMARK   12  A    between atoms: O_12  and  C_13
REMARK   13  A    between atoms: C_13  and  C_15
REMARK   14  A    between atoms: C_15  and  C_16
REMARK   15  A    between atoms: C_16  and  C_17
REMARK   16  A    between atoms: C_16  and  O_22
REMARK   17  A    between atoms: C_17  and  N_18
REMARK   18  A    between atoms: N_18  and  C_19
REMARK   19  A    between atoms: N_18  and  C_20
REMARK   20  A    between atoms: N_18  and  C_21
REMARK   21  A    between atoms: O_22  and  C_23
REMARK   22  A    between atoms: C_23  and  C_25
REMARK   23  A    between atoms: C_25  and  C_26
REMARK   24  A    between atoms: C_26  and  C_27
REMARK   25  A    between atoms: C_27  and  C_28
REMARK   26  A    between atoms: C_27  and  C_29
REMARK                            x       y       z     vdW  Elec       q    Type
REMARK                         _______ _______ _______ _____ _____    ______ ____
ROOT
ATOM      1  C   UNL     1       6.503   6.990  16.923  0.00  0.00    +0.000 C 
ENDROOT
BRANCH   1   2
ATOM      2  C   UNL     1       7.566   6.401  17.812  0.00  0.00    +0.000 C 
ATOM      3  O   UNL     1       7.931   5.237  17.759  0.00  0.00    +0.000 OA
BRANCH   2   4
ATOM      4  O   UNL     1       8.118   7.355  18.601  0.00  0.00    +0.000 OA
BRANCH   4   5
ATOM      5  C   UNL     1       8.288   8.649  17.987  0.00  0.00    +0.000 C 
BRANCH   5   6
ATOM      6  C   UNL     1       8.953   9.644  18.944  0.00  0.00    +0.000 C 
BRANCH   6   7
ATOM      7  C   UNL     1       9.185  10.998  18.278  0.00  0.00    +0.000 C 
BRANCH   7   8
ATOM      8  C   UNL     1      10.618  11.491  18.468  0.00  0.00    +0.000 C 
BRANCH   8   9
ATOM      9  C   UNL     1      10.605  12.937  18.958  0.00  0.00    +0.000 C 
BRANCH   9  10
ATOM     10  C   UNL     1       9.427  13.224  19.885  0.00  0.00    +0.000 C 
BRANCH  10  11
ATOM     11  C   UNL     1       9.708  12.657  21.276  0.00  0.00    +0.000 C 
BRANCH  11  12
ATOM     12  C   UNL     1       8.510  12.815  22.208  0.00  0.00    +0.000 C 
BRANCH  12  13
ATOM     13  C   UNL     1       8.348  11.576  23.091  0.00  0.00    +0.000 C 
BRANCH  13  15
ATOM     14  C   UNL     1       7.620  12.129  25.432  0.00  0.00    +0.000 C 
ATOM     15  C   UNL     1       7.162  11.716  24.044  0.00  0.00    +0.000 C 
ENDBRANCH  13  15
ENDBRANCH  12  13
ENDBRANCH  11  12
ENDBRANCH  10  11
ENDBRANCH   9  10
ENDBRANCH   8   9
ENDBRANCH   7   8
ENDBRANCH   6   7
ENDBRANCH   5   6
ENDBRANCH   4   5
ENDBRANCH   2   4
ENDBRANCH   1   2
BRANCH   1  16
ATOM     16  C   UNL     1       5.479   5.954  16.435  0.00  0.00    +0.000 C 
BRANCH  16  17
ATOM     17  O   UNL     1       5.652   5.864  14.992  0.00  0.00    +0.000 OA
BRANCH  17  18
ATOM     18  C   UNL     1       6.658   5.071  14.536  0.00  0.00    +0.000 C 
ATOM     19  O   UNL     1       7.835   5.400  14.512  0.00  0.00    +0.000 OA
BRANCH  18  20
ATOM     20  C   UNL     1       6.159   3.718  14.118  0.00  0.00    +0.000 C 
BRANCH  20  21
ATOM     21  C   UNL     1       6.268   3.596  12.597  0.00  0.00    +0.000 C 
BRANCH  21  22
ATOM     22  C   UNL     1       5.298   2.568  11.976  0.00  0.00    +0.000 C 
ATOM     23  C   UNL     1       4.205   3.237  11.142  0.00  0.00    +0.000 C 
ATOM     24  C   UNL     1       6.074   1.562  11.127  0.00  0.00    +0.000 C 
ENDBRANCH  21  22
ENDBRANCH  20  21
ENDBRANCH  18  20
ENDBRANCH  17  18
ENDBRANCH  16  17
BRANCH  16  25
ATOM     25  C   UNL     1       5.416   4.577  17.170  0.00  0.00    +0.000 C 
BRANCH  25  26
ATOM     26  N   UNL     1       4.230   4.272  18.119  0.00  0.00    +0.000 N 
ATOM     27  C   UNL     1       4.610   3.336  19.252  0.00  0.00    +0.000 C 
ATOM     28  C   UNL     1       3.577   5.526  18.670  0.00  0.00    +0.000 C 
ATOM     29  C   UNL     1       3.180   3.548  17.253  0.00  0.00    +0.000 C 
ENDBRANCH  25  26
ENDBRANCH  16  25
ENDBRANCH   1  16
TORSDOF 20
ENDMDL
MODEL 5
REMARK VINA RESULT:      -5.8      3.200      6.137
REMARK  Name = 
REMARK  26 active torsions:
REMARK  status: ('A' for Active; 'I' for Inactive)
REMARK    1  A    between atoms: C_1  and  C_2
REMARK    2  A    between atoms: C_2  and  C_3
REMARK    3  A    between atoms: C_3  and  C_4
REMARK    4  A    between atoms: C_4  and  C_5
REMARK    5  A    between atoms: C_5  and  C_6
REMARK    6  A    between atoms: C_6  and  C_7
REMARK    7  A    between atoms: C_7  and  C_8
REMARK    8  A    between atoms: C_8  and  C_9
REMARK    9  A    between atoms: C_9  and  C_10
REMARK   10  A    between atoms: C_10  and  C_11
REMARK   11  A    between atoms: C_11  and  O_12
REMARK   12  A    between atoms: O_12  and  C_13
REMARK   13  A    between atoms: C_13  and  C_15
REMARK   14  A    between atoms: C_15  and  C_16
REMARK   15  A    between atoms: C_16  and  C_17
REMARK   16  A    between atoms: C_16  and  O_22
REMARK   17  A    between atoms: C_17  and  N_18
REMARK   18  A    between atoms: N_18  and  C_19
REMARK   19  A    between atoms: N_18  and  C_20
REMARK   20  A    between atoms: N_18  and  C_21
REMARK   21  A    between atoms: O_22  and  C_23
REMARK   22  A    between atoms: C_23  and  C_25
REMARK   23  A    between atoms: C_25  and  C_26
REMARK   24  A    between atoms: C_26  and  C_27
REMARK   25  A    between atoms: C_27  and  C_28
REMARK   26  A    between atoms: C_27  and  C_29
REMARK                            x       y       z     vdW  Elec       q    Type
REMARK                         _______ _______ _______ _____ _____    ______ ____
ROOT
ATOM      1  C   UNL     1       4.420   5.050  18.417  0.00  0.00    +0.000 C 
ENDROOT
BRANCH   1   2
ATOM      2  C   UNL     1       5.796   5.499  18.832  0.00  0.00    +0.000 C 
ATOM      3  O   UNL     1       6.488   4.910  19.649  0.00  0.00    +0.000 OA
BRANCH   2   4
ATOM      4  O   UNL     1       6.190   6.576  18.110  0.00  0.00    +0.000 OA
BRANCH   4   5
ATOM      5  C   UNL     1       7.603   6.861  18.136  0.00  0.00    +0.000 C 
BRANCH   5   6
ATOM      6  C   UNL     1       7.899   8.290  17.669  0.00  0.00    +0.000 C 
BRANCH   6   7
ATOM      7  C   UNL     1       8.628   9.094  18.743  0.00  0.00    +0.000 C 
BRANCH   7   8
ATOM      8  C   UNL     1       9.243  10.374  18.180  0.00  0.00    +0.000 C 
BRANCH   8   9
ATOM      9  C   UNL     1       9.896  11.171  19.307  0.00  0.00    +0.000 C 
BRANCH   9  10
ATOM     10  C   UNL     1      11.270  11.708  18.916  0.00  0.00    +0.000 C 
BRANCH  10  11
ATOM     11  C   UNL     1      11.247  12.192  17.466  0.00  0.00    +0.000 C 
BRANCH  11  12
ATOM     12  C   UNL     1      10.650  13.592  17.343  0.00  0.00    +0.000 C 
BRANCH  12  13
ATOM     13  C   UNL     1      11.669  14.651  17.766  0.00  0.00    +0.000 C 
BRANCH  13  15
ATOM     14  C   UNL     1      10.283  16.717  17.407  0.00  0.00    +0.000 C 
ATOM     15  C   UNL     1      11.509  15.939  16.959  0.00  0.00    +0.000 C 
ENDBRANCH  13  15
ENDBRANCH  12  13
ENDBRANCH  11  12
ENDBRANCH  10  11
ENDBRANCH   9  10
ENDBRANCH   8   9
ENDBRANCH   7   8
ENDBRANCH   6   7
ENDBRANCH   5   6
ENDBRANCH   4   5
ENDBRANCH   2   4
ENDBRANCH   1   2
BRANCH   1  16
ATOM     16  C   UNL     1       4.420   4.199  17.137  0.00  0.00    +0.000 C 
BRANCH  16  17
ATOM     17  O   UNL     1       3.147   3.495  17.122  0.00  0.00    +0.000 OA
BRANCH  17  18
ATOM     18  C   UNL     1       3.031   2.404  17.926  0.00  0.00    +0.000 C 
ATOM     19  O   UNL     1       3.953   1.648  18.194  0.00  0.00    +0.000 OA
BRANCH  18  20
ATOM     20  C   UNL     1       1.647   2.272  18.494  0.00  0.00    +0.000 C 
BRANCH  20  21
ATOM     21  C   UNL     1       1.101   3.667  18.801  0.00  0.00    +0.000 C 
BRANCH  21  22
ATOM     22  C   UNL     1       0.917   3.955  20.307  0.00  0.00    +0.000 C 
ATOM     23  C   UNL     1       1.365   2.782  21.178  0.00  0.00    +0.000 C 
ATOM     24  C   UNL     1       1.675   5.225  20.693  0.00  0.00    +0.000 C 
ENDBRANCH  21  22
ENDBRANCH  20  21
ENDBRANCH  18  20
ENDBRANCH  17  18
ENDBRANCH  16  17
BRANCH  16  25
ATOM     25  C   UNL     1       4.797   4.896  15.790  0.00  0.00    +0.000 C 
BRANCH  25  26
ATOM     26  N   UNL     1       6.190   4.640  15.163  0.00  0.00    +0.000 N 
ATOM     27  C   UNL     1       6.851   5.911  14.662  0.00  0.00    +0.000 C 
ATOM     28  C   UNL     1       7.127   3.889  16.090  0.00  0.00    +0.000 C 
ATOM     29  C   UNL     1       5.935   3.738  13.938  0.00  0.00    +0.000 C 
ENDBRANCH  25  26
ENDBRANCH  16  25
ENDBRANCH   1  16
TORSDOF 20
ENDMDL
MODEL 6
REMARK VINA RESULT:      -5.8      6.529     10.603
REMARK  Name = 
REMARK  26 active torsions:
REMARK  status: ('A' for Active; 'I' for Inactive)
REMARK    1  A    between atoms: C_1  and  C_2
REMARK    2  A    between atoms: C_2  and  C_3
REMARK    3  A    between atoms: C_3  and  C_4
REMARK    4  A    between atoms: C_4  and  C_5
REMARK    5  A    between atoms: C_5  and  C_6
REMARK    6  A    between atoms: C_6  and  C_7
REMARK    7  A    between atoms: C_7  and  C_8
REMARK    8  A    between atoms: C_8  and  C_9
REMARK    9  A    between atoms: C_9  and  C_10
REMARK   10  A    between atoms: C_10  and  C_11
REMARK   11  A    between atoms: C_11  and  O_12
REMARK   12  A    between atoms: O_12  and  C_13
REMARK   13  A    between atoms: C_13  and  C_15
REMARK   14  A    between atoms: C_15  and  C_16
REMARK   15  A    between atoms: C_16  and  C_17
REMARK   16  A    between atoms: C_16  and  O_22
REMARK   17  A    between atoms: C_17  and  N_18
REMARK   18  A    between atoms: N_18  and  C_19
REMARK   19  A    between atoms: N_18  and  C_20
REMARK   20  A    between atoms: N_18  and  C_21
REMARK   21  A    between atoms: O_22  and  C_23
REMARK   22  A    between atoms: C_23  and  C_25
REMARK   23  A    between atoms: C_25  and  C_26
REMARK   24  A    between atoms: C_26  and  C_27
REMARK   25  A    between atoms: C_27  and  C_28
REMARK   26  A    between atoms: C_27  and  C_29
REMARK                            x       y       z     vdW  Elec       q    Type
REMARK                         _______ _______ _______ _____ _____    ______ ____
ROOT
ATOM      1  C   UNL     1      -0.252   9.688  21.022  0.00  0.00    +0.000 C 
ENDROOT
BRANCH   1   2
ATOM      2  C   UNL     1       0.953   8.945  20.509  0.00  0.00    +0.000 C 
ATOM      3  O   UNL     1       1.694   8.278  21.214  0.00  0.00    +0.000 OA
BRANCH   2   4
ATOM      4  O   UNL     1       1.040   9.040  19.160  0.00  0.00    +0.000 OA
BRANCH   4   5
ATOM      5  C   UNL     1       2.343   8.784  18.599  0.00  0.00    +0.000 C 
BRANCH   5   6
ATOM      6  C   UNL     1       2.510   7.312  18.207  0.00  0.00    +0.000 C 
BRANCH   6   7
ATOM      7  C   UNL     1       3.671   7.115  17.235  0.00  0.00    +0.000 C 
BRANCH   7   8
ATOM      8  C   UNL     1       4.720   6.152  17.787  0.00  0.00    +0.000 C 
BRANCH   8   9
ATOM      9  C   UNL     1       4.044   4.864  18.253  0.00  0.00    +0.000 C 
BRANCH   9  10
ATOM     10  C   UNL     1       3.803   3.888  17.106  0.00  0.00    +0.000 C 
BRANCH  10  11
ATOM     11  C   UNL     1       2.655   2.943  17.458  0.00  0.00    +0.000 C 
BRANCH  11  12
ATOM     12  C   UNL     1       1.476   3.687  18.079  0.00  0.00    +0.000 C 
BRANCH  12  13
ATOM     13  C   UNL     1       0.787   2.819  19.134  0.00  0.00    +0.000 C 
BRANCH  13  15
ATOM     14  C   UNL     1       1.362   4.731  20.660  0.00  0.00    +0.000 C 
ATOM     15  C   UNL     1       1.193   3.225  20.550  0.00  0.00    +0.000 C 
ENDBRANCH  13  15
ENDBRANCH  12  13
ENDBRANCH  11  12
ENDBRANCH  10  11
ENDBRANCH   9  10
ENDBRANCH   8   9
ENDBRANCH   7   8
ENDBRANCH   6   7
ENDBRANCH   5   6
ENDBRANCH   4   5
ENDBRANCH   2   4
ENDBRANCH   1   2
BRANCH   1  16
ATOM     16  C   UNL     1      -0.356  11.122  20.479  0.00  0.00    +0.000 C 
BRANCH  16  17
ATOM     17  O   UNL     1      -1.568  11.161  19.675  0.00  0.00    +0.000 OA
BRANCH  17  18
ATOM     18  C   UNL     1      -1.428  11.447  18.353  0.00  0.00    +0.000 C 
ATOM     19  O   UNL     1      -1.146  12.554  17.917  0.00  0.00    +0.000 OA
BRANCH  18  20
ATOM     20  C   UNL     1      -1.602  10.229  17.494  0.00  0.00    +0.000 C 
BRANCH  20  21
ATOM     21  C   UNL     1      -3.072   9.804  17.526  0.00  0.00    +0.000 C 
BRANCH  21  22
ATOM     22  C   UNL     1      -3.918  10.375  16.369  0.00  0.00    +0.000 C 
ATOM     23  C   UNL     1      -4.685  11.632  16.779  0.00  0.00    +0.000 C 
ATOM     24  C   UNL     1      -3.026  10.666  15.161  0.00  0.00    +0.000 C 
ENDBRANCH  21  22
ENDBRANCH  20  21
ENDBRANCH  18  20
ENDBRANCH  17  18
ENDBRANCH  16  17
BRANCH  16  25
ATOM     25  C   UNL     1      -0.205  12.305  21.489  0.00  0.00    +0.000 C 
BRANCH  25  26
ATOM     26  N   UNL     1      -1.459  12.853  22.214  0.00  0.00    +0.000 N 
ATOM     27  C   UNL     1      -2.438  13.523  21.268  0.00  0.00    +0.000 C 
ATOM     28  C   UNL     1      -2.168  11.801  23.047  0.00  0.00    +0.000 C 
ATOM     29  C   UNL     1      -0.939  13.934  23.184  0.00  0.00    +0.000 C 
ENDBRANCH  25  26
ENDBRANCH  16  25
ENDBRANCH   1  16
TORSDOF 20
ENDMDL
MODEL 7
REMARK VINA RESULT:      -5.7      4.550      6.106
REMARK  Name = 
REMARK  26 active torsions:
REMARK  status: ('A' for Active; 'I' for Inactive)
REMARK    1  A    between atoms: C_1  and  C_2
REMARK    2  A    between atoms: C_2  and  C_3
REMARK    3  A    between atoms: C_3  and  C_4
REMARK    4  A    between atoms: C_4  and  C_5
REMARK    5  A    between atoms: C_5  and  C_6
REMARK    6  A    between atoms: C_6  and  C_7
REMARK    7  A    between atoms: C_7  and  C_8
REMARK    8  A    between atoms: C_8  and  C_9
REMARK    9  A    between atoms: C_9  and  C_10
REMARK   10  A    between atoms: C_10  and  C_11
REMARK   11  A    between atoms: C_11  and  O_12
REMARK   12  A    between atoms: O_12  and  C_13
REMARK   13  A    between atoms: C_13  and  C_15
REMARK   14  A    between atoms: C_15  and  C_16
REMARK   15  A    between atoms: C_16  and  C_17
REMARK   16  A    between atoms: C_16  and  O_22
REMARK   17  A    between atoms: C_17  and  N_18
REMARK   18  A    between atoms: N_18  and  C_19
REMARK   19  A    between atoms: N_18  and  C_20
REMARK   20  A    between atoms: N_18  and  C_21
REMARK   21  A    between atoms: O_22  and  C_23
REMARK   22  A    between atoms: C_23  and  C_25
REMARK   23  A    between atoms: C_25  and  C_26
REMARK   24  A    between atoms: C_26  and  C_27
REMARK   25  A    between atoms: C_27  and  C_28
REMARK   26  A    between atoms: C_27  and  C_29
REMARK                            x       y       z     vdW  Elec       q    Type
REMARK                         _______ _______ _______ _____ _____    ______ ____
ROOT
ATOM      1  C   UNL     1       4.442   6.119  17.432  0.00  0.00    +0.000 C 
ENDROOT
BRANCH   1   2
ATOM      2  C   UNL     1       3.054   6.482  17.890  0.00  0.00    +0.000 C 
ATOM      3  O   UNL     1       2.110   5.706  17.884  0.00  0.00    +0.000 OA
BRANCH   2   4
ATOM      4  O   UNL     1       3.025   7.740  18.394  0.00  0.00    +0.000 OA
BRANCH   4   5
ATOM      5  C   UNL     1       2.138   8.659  17.724  0.00  0.00    +0.000 C 
BRANCH   5   6
ATOM      6  C   UNL     1       1.224   9.385  18.718  0.00  0.00    +0.000 C 
BRANCH   6   7
ATOM      7  C   UNL     1      -0.082   9.826  18.063  0.00  0.00    +0.000 C 
BRANCH   7   8
ATOM      8  C   UNL     1      -0.928  10.688  18.999  0.00  0.00    +0.000 C 
BRANCH   8   9
ATOM      9  C   UNL     1      -1.059  12.097  18.425  0.00  0.00    +0.000 C 
BRANCH   9  10
ATOM     10  C   UNL     1      -1.154  13.161  19.514  0.00  0.00    +0.000 C 
BRANCH  10  11
ATOM     11  C   UNL     1      -0.060  14.209  19.316  0.00  0.00    +0.000 C 
BRANCH  11  12
ATOM     12  C   UNL     1       1.169  13.626  18.625  0.00  0.00    +0.000 C 
BRANCH  12  13
ATOM     13  C   UNL     1       2.450  14.231  19.202  0.00  0.00    +0.000 C 
BRANCH  13  15
ATOM     14  C   UNL     1       3.497  15.777  17.519  0.00  0.00    +0.000 C 
ATOM     15  C   UNL     1       3.530  14.387  18.133  0.00  0.00    +0.000 C 
ENDBRANCH  13  15
ENDBRANCH  12  13
ENDBRANCH  11  12
ENDBRANCH  10  11
ENDBRANCH   9  10
ENDBRANCH   8   9
ENDBRANCH   7   8
ENDBRANCH   6   7
ENDBRANCH   5   6
ENDBRANCH   4   5
ENDBRANCH   2   4
ENDBRANCH   1   2
BRANCH   1  16
ATOM     16  C   UNL     1       4.862   4.699  17.839  0.00  0.00    +0.000 C 
BRANCH  16  17
ATOM     17  O   UNL     1       6.285   4.601  17.547  0.00  0.00    +0.000 OA
BRANCH  17  18
ATOM     18  C   UNL     1       6.668   4.790  16.256  0.00  0.00    +0.000 C 
ATOM     19  O   UNL     1       7.458   5.650  15.894  0.00  0.00    +0.000 OA
BRANCH  18  20
ATOM     20  C   UNL     1       6.050   3.780  15.334  0.00  0.00    +0.000 C 
BRANCH  20  21
ATOM     21  C   UNL     1       5.816   4.430  13.969  0.00  0.00    +0.000 C 
BRANCH  21  22
ATOM     22  C   UNL     1       6.262   3.562  12.773  0.00  0.00    +0.000 C 
ATOM     23  C   UNL     1       5.079   3.104  11.920  0.00  0.00    +0.000 C 
ATOM     24  C   UNL     1       7.270   4.329  11.916  0.00  0.00    +0.000 C 
ENDBRANCH  21  22
ENDBRANCH  20  21
ENDBRANCH  18  20
ENDBRANCH  17  18
ENDBRANCH  16  17
BRANCH  16  25
ATOM     25  C   UNL     1       4.451   4.186  19.257  0.00  0.00    +0.000 C 
BRANCH  25  26
ATOM     26  N   UNL     1       3.721   2.827  19.394  0.00  0.00    +0.000 N 
ATOM     27  C   UNL     1       2.428   2.932  20.182  0.00  0.00    +0.000 C 
ATOM     28  C   UNL     1       3.470   2.153  18.058  0.00  0.00    +0.000 C 
ATOM     29  C   UNL     1       4.678   1.920  20.194  0.00  0.00    +0.000 C 
ENDBRANCH  25  26
ENDBRANCH  16  25
ENDBRANCH   1  16
TORSDOF 20
ENDMDL
MODEL 8
REMARK VINA RESULT:      -5.7      3.203      6.322
REMARK  Name = 
REMARK  26 active torsions:
REMARK  status: ('A' for Active; 'I' for Inactive)
REMARK    1  A    between atoms: C_1  and  C_2
REMARK    2  A    between atoms: C_2  and  C_3
REMARK    3  A    between atoms: C_3  and  C_4
REMARK    4  A    between atoms: C_4  and  C_5
REMARK    5  A    between atoms: C_5  and  C_6
REMARK    6  A    between atoms: C_6  and  C_7
REMARK    7  A    between atoms: C_7  and  C_8
REMARK    8  A    between atoms: C_8  and  C_9
REMARK    9  A    between atoms: C_9  and  C_10
REMARK   10  A    between atoms: C_10  and  C_11
REMARK   11  A    between atoms: C_11  and  O_12
REMARK   12  A    between atoms: O_12  and  C_13
REMARK   13  A    between atoms: C_13  and  C_15
REMARK   14  A    between atoms: C_15  and  C_16
REMARK   15  A    between atoms: C_16  and  C_17
REMARK   16  A    between atoms: C_16  and  O_22
REMARK   17  A    between atoms: C_17  and  N_18
REMARK   18  A    between atoms: N_18  and  C_19
REMARK   19  A    between atoms: N_18  and  C_20
REMARK   20  A    between atoms: N_18  and  C_21
REMARK   21  A    between atoms: O_22  and  C_23
REMARK   22  A    between atoms: C_23  and  C_25
REMARK   23  A    between atoms: C_25  and  C_26
REMARK   24  A    between atoms: C_26  and  C_27
REMARK   25  A    between atoms: C_27  and  C_28
REMARK   26  A    between atoms: C_27  and  C_29
REMARK                            x       y       z     vdW  Elec       q    Type
REMARK                         _______ _______ _______ _____ _____    ______ ____
ROOT
ATOM      1  C   UNL     1       4.602   5.177  17.778  0.00  0.00    +0.000 C 
ENDROOT
BRANCH   1   2
ATOM      2  C   UNL     1       5.841   4.740  18.514  0.00  0.00    +0.000 C 
ATOM      3  O   UNL     1       5.840   3.929  19.428  0.00  0.00    +0.000 OA
BRANCH   2   4
ATOM      4  O   UNL     1       6.950   5.290  17.962  0.00  0.00    +0.000 OA
BRANCH   4   5
ATOM      5  C   UNL     1       6.712   6.300  16.962  0.00  0.00    +0.000 C 
BRANCH   5   6
ATOM      6  C   UNL     1       7.161   7.685  17.441  0.00  0.00    +0.000 C 
BRANCH   6   7
ATOM      7  C   UNL     1       8.311   7.590  18.441  0.00  0.00    +0.000 C 
BRANCH   7   8
ATOM      8  C   UNL     1       8.780   8.968  18.905  0.00  0.00    +0.000 C 
BRANCH   8   9
ATOM      9  C   UNL     1       8.516   9.998  17.810  0.00  0.00    +0.000 C 
BRANCH   9  10
ATOM     10  C   UNL     1       9.025  11.387  18.185  0.00  0.00    +0.000 C 
BRANCH  10  11
ATOM     11  C   UNL     1      10.525  11.485  17.907  0.00  0.00    +0.000 C 
BRANCH  11  12
ATOM     12  C   UNL     1      11.246  12.320  18.961  0.00  0.00    +0.000 C 
BRANCH  12  13
ATOM     13  C   UNL     1      10.943  11.794  20.365  0.00  0.00    +0.000 C 
BRANCH  13  15
ATOM     14  C   UNL     1       9.035  12.159  21.960  0.00  0.00    +0.000 C 
ATOM     15  C   UNL     1      10.170  12.818  21.194  0.00  0.00    +0.000 C 
ENDBRANCH  13  15
ENDBRANCH  12  13
ENDBRANCH  11  12
ENDBRANCH  10  11
ENDBRANCH   9  10
ENDBRANCH   8   9
ENDBRANCH   7   8
ENDBRANCH   6   7
ENDBRANCH   5   6
ENDBRANCH   4   5
ENDBRANCH   2   4
ENDBRANCH   1   2
BRANCH   1  16
ATOM     16  C   UNL     1       3.393   5.392  18.701  0.00  0.00    +0.000 C 
BRANCH  16  17
ATOM     17  O   UNL     1       3.220   6.833  18.809  0.00  0.00    +0.000 OA
BRANCH  17  18
ATOM     18  C   UNL     1       2.202   7.279  19.593  0.00  0.00    +0.000 C 
ATOM     19  O   UNL     1       1.840   6.732  20.624  0.00  0.00    +0.000 OA
BRANCH  18  20
ATOM     20  C   UNL     1       1.612   8.557  19.072  0.00  0.00    +0.000 C 
BRANCH  20  21
ATOM     21  C   UNL     1       0.973   9.321  20.234  0.00  0.00    +0.000 C 
BRANCH  21  22
ATOM     22  C   UNL     1       0.165  10.563  19.804  0.00  0.00    +0.000 C 
ATOM     23  C   UNL     1       1.034  11.818  19.725  0.00  0.00    +0.000 C 
ATOM     24  C   UNL     1      -0.518  10.304  18.461  0.00  0.00    +0.000 C 
ENDBRANCH  21  22
ENDBRANCH  20  21
ENDBRANCH  18  20
ENDBRANCH  17  18
ENDBRANCH  16  17
BRANCH  16  25
ATOM     25  C   UNL     1       2.082   4.599  18.394  0.00  0.00    +0.000 C 
BRANCH  25  26
ATOM     26  N   UNL     1       1.984   3.105  18.790  0.00  0.00    +0.000 N 
ATOM     27  C   UNL     1       0.554   2.594  18.808  0.00  0.00    +0.000 C 
ATOM     28  C   UNL     1       2.852   2.207  17.928  0.00  0.00    +0.000 C 
ATOM     29  C   UNL     1       2.523   3.020  20.232  0.00  0.00    +0.000 C 
ENDBRANCH  25  26
ENDBRANCH  16  25
ENDBRANCH   1  16
TORSDOF 20
ENDMDL
MODEL 9
REMARK VINA RESULT:      -5.6      4.595      6.194
REMARK  Name = 
REMARK  26 active torsions:
REMARK  status: ('A' for Active; 'I' for Inactive)
REMARK    1  A    between atoms: C_1  and  C_2
REMARK    2  A    between atoms: C_2  and  C_3
REMARK    3  A    between atoms: C_3  and  C_4
REMARK    4  A    between atoms: C_4  and  C_5
REMARK    5  A    between atoms: C_5  and  C_6
REMARK    6  A    between atoms: C_6  and  C_7
REMARK    7  A    between atoms: C_7  and  C_8
REMARK    8  A    between atoms: C_8  and  C_9
REMARK    9  A    between atoms: C_9  and  C_10
REMARK   10  A    between atoms: C_10  and  C_11
REMARK   11  A    between atoms: C_11  and  O_12
REMARK   12  A    between atoms: O_12  and  C_13
REMARK   13  A    between atoms: C_13  and  C_15
REMARK   14  A    between atoms: C_15  and  C_16
REMARK   15  A    between atoms: C_16  and  C_17
REMARK   16  A    between atoms: C_16  and  O_22
REMARK   17  A    between atoms: C_17  and  N_18
REMARK   18  A    between atoms: N_18  and  C_19
REMARK   19  A    between atoms: N_18  and  C_20
REMARK   20  A    between atoms: N_18  and  C_21
REMARK   21  A    between atoms: O_22  and  C_23
REMARK   22  A    between atoms: C_23  and  C_25
REMARK   23  A    between atoms: C_25  and  C_26
REMARK   24  A    between atoms: C_26  and  C_27
REMARK   25  A    between atoms: C_27  and  C_28
REMARK   26  A    between atoms: C_27  and  C_29
REMARK                            x       y       z     vdW  Elec       q    Type
REMARK                         _______ _______ _______ _____ _____    ______ ____
ROOT
ATOM      1  C   UNL     1       3.260   5.135  17.653  0.00  0.00    +0.000 C 
ENDROOT
BRANCH   1   2
ATOM      2  C   UNL     1       3.116   6.331  18.557  0.00  0.00    +0.000 C 
ATOM      3  O   UNL     1       3.118   6.266  19.777  0.00  0.00    +0.000 OA
BRANCH   2   4
ATOM      4  O   UNL     1       3.084   7.479  17.838  0.00  0.00    +0.000 OA
BRANCH   4   5
ATOM      5  C   UNL     1       1.846   8.215  17.895  0.00  0.00    +0.000 C 
BRANCH   5   6
ATOM      6  C   UNL     1       2.091   9.726  17.971  0.00  0.00    +0.000 C 
BRANCH   6   7
ATOM      7  C   UNL     1       1.001  10.434  18.772  0.00  0.00    +0.000 C 
BRANCH   7   8
ATOM      8  C   UNL     1      -0.387  10.201  18.179  0.00  0.00    +0.000 C 
BRANCH   8   9
ATOM      9  C   UNL     1      -1.329  11.320  18.618  0.00  0.00    +0.000 C 
BRANCH   9  10
ATOM     10  C   UNL     1      -0.905  11.949  19.942  0.00  0.00    +0.000 C 
BRANCH  10  11
ATOM     11  C   UNL     1      -0.995  13.472  19.848  0.00  0.00    +0.000 C 
BRANCH  11  12
ATOM     12  C   UNL     1      -0.202  14.017  18.663  0.00  0.00    +0.000 C 
BRANCH  12  13
ATOM     13  C   UNL     1       1.233  14.344  19.080  0.00  0.00    +0.000 C 
BRANCH  13  15
ATOM     14  C   UNL     1       3.635  14.320  18.340  0.00  0.00    +0.000 C 
ATOM     15  C   UNL     1       2.251  13.733  18.119  0.00  0.00    +0.000 C 
ENDBRANCH  13  15
ENDBRANCH  12  13
ENDBRANCH  11  12
ENDBRANCH  10  11
ENDBRANCH   9  10
ENDBRANCH   8   9
ENDBRANCH   7   8
ENDBRANCH   6   7
ENDBRANCH   5   6
ENDBRANCH   4   5
ENDBRANCH   2   4
ENDBRANCH   1   2
BRANCH   1  16
ATOM     16  C   UNL     1       4.567   4.360  17.876  0.00  0.00    +0.000 C 
BRANCH  16  17
ATOM     17  O   UNL     1       5.634   5.219  17.385  0.00  0.00    +0.000 OA
BRANCH  17  18
ATOM     18  C   UNL     1       5.656   5.482  16.051  0.00  0.00    +0.000 C 
ATOM     19  O   UNL     1       5.448   6.584  15.565  0.00  0.00    +0.000 OA
BRANCH  18  20
ATOM     20  C   UNL     1       6.025   4.269  15.248  0.00  0.00    +0.000 C 
BRANCH  20  21
ATOM     21  C   UNL     1       5.392   4.381  13.859  0.00  0.00    +0.000 C 
BRANCH  21  22
ATOM     22  C   UNL     1       6.009   3.435  12.807  0.00  0.00    +0.000 C 
ATOM     23  C   UNL     1       4.983   2.972  11.773  0.00  0.00    +0.000 C 
ATOM     24  C   UNL     1       7.189   4.120  12.116  0.00  0.00    +0.000 C 
ENDBRANCH  21  22
ENDBRANCH  20  21
ENDBRANCH  18  20
ENDBRANCH  17  18
ENDBRANCH  16  17
BRANCH  16  25
ATOM     25  C   UNL     1       4.825   3.742  19.288  0.00  0.00    +0.000 C 
BRANCH  25  26
ATOM     26  N   UNL     1       4.049   2.472  19.718  0.00  0.00    +0.000 N 
ATOM     27  C   UNL     1       4.885   1.533  20.568  0.00  0.00    +0.000 C 
ATOM     28  C   UNL     1       2.739   2.787  20.416  0.00  0.00    +0.000 C 
ATOM     29  C   UNL     1       3.707   1.731  18.410  0.00  0.00    +0.000 C 
ENDBRANCH  25  26
ENDBRANCH  16  25
ENDBRANCH   1  16
TORSDOF 20
ENDMDL
