MODEL 1
REMARK VINA RESULT:      -8.0      0.000      0.000
REMARK  Name = 
REMARK  5 active torsions:
REMARK  status: ('A' for Active; 'I' for Inactive)
REMARK    1  A    between atoms: C_1  and  N_2
REMARK    2  A    between atoms: N_5  and  C_6
REMARK    3  A    between atoms: C_9  and  C_10
REMARK    4  A    between atoms: C_16  and  C_17
REMARK    5  A    between atoms: N_22  and  C_23
REMARK                            x       y       z     vdW  Elec       q    Type
REMARK                         _______ _______ _______ _____ _____    ______ ____
ROOT
ATOM      1  C   UNL     1       1.369   7.958  20.294  0.00  0.00    +0.000 A 
ATOM      2  C   UNL     1       1.471   6.720  20.916  0.00  0.00    +0.000 A 
ATOM      3  C   UNL     1       2.232   5.851  20.101  0.00  0.00    +0.000 A 
ATOM      4  C   UNL     1       2.661   4.521  20.165  0.00  0.00    +0.000 A 
ATOM      5 CL   UNL     1       2.208   3.629  21.548  0.00  0.00    +0.000 Cl
ATOM      6  C   UNL     1       3.416   3.978  19.149  0.00  0.00    +0.000 A 
ATOM      7  C   UNL     1       3.722   4.805  18.081  0.00  0.00    +0.000 A 
ATOM      8  N   UNL     1       3.348   6.119  17.938  0.00  0.00    +0.000 NA
ATOM      9  C   UNL     1       2.608   6.580  18.978  0.00  0.00    +0.000 A 
ATOM     10  N   UNL     1       2.093   7.858  19.112  0.00  0.00    +0.000 N 
ATOM     11  C   UNL     1       2.344   8.919  18.163  0.00  0.00    +0.000 C 
ENDROOT
BRANCH   1  15
ATOM     12  C   UNL     1      -0.869  11.311  21.901  0.00  0.00    +0.000 A 
ATOM     13  C   UNL     1      -0.360  10.297  22.718  0.00  0.00    +0.000 A 
ATOM     14  C   UNL     1       0.390   9.235  22.190  0.00  0.00    +0.000 A 
ATOM     15  C   UNL     1       0.648   9.132  20.819  0.00  0.00    +0.000 A 
ATOM     16  C   UNL     1       0.118  10.120  19.994  0.00  0.00    +0.000 A 
ATOM     17  C   UNL     1      -0.608  11.193  20.530  0.00  0.00    +0.000 A 
BRANCH  12  22
ATOM     18  C   UNL     1      -3.042  15.098  25.325  0.00  0.00    +0.000 C 
ATOM     19  N   UNL     1      -2.752  14.467  24.040  0.00  0.00    +0.000 NA
ATOM     20  C   UNL     1      -3.296  13.091  23.998  0.00  0.00    +0.000 C 
ATOM     21  C   UNL     1      -2.997  12.371  22.660  0.00  0.00    +0.000 C 
ATOM     22  N   UNL     1      -1.550  12.397  22.403  0.00  0.00    +0.000 N 
ATOM     23  C   UNL     1      -0.954  13.743  22.450  0.00  0.00    +0.000 C 
ATOM     24  C   UNL     1      -1.292  14.414  23.799  0.00  0.00    +0.000 C 
ENDBRANCH  12  22
ENDBRANCH   1  15
BRANCH   7  25
ATOM     25  C   UNL     1       4.545   4.213  16.970  0.00  0.00    +0.000 C 
ATOM     26  N   UNL     1       4.830   2.881  17.075  0.00  0.00    +0.000 N 
ATOM     27  O   UNL     1       4.946   4.881  16.022  0.00  0.00    +0.000 OA
ATOM     28  H   UNL     1       4.491   2.345  17.859  0.00  0.00    +0.000 HD
ATOM     29  H   UNL     1       5.379   2.447  16.344  0.00  0.00    +0.000 HD
ENDBRANCH   7  25
TORSDOF 3
ENDMDL
MODEL 2
REMARK VINA RESULT:      -8.0      0.728      1.191
REMARK  Name = 
REMARK  5 active torsions:
REMARK  status: ('A' for Active; 'I' for Inactive)
REMARK    1  A    between atoms: C_1  and  N_2
REMARK    2  A    between atoms: N_5  and  C_6
REMARK    3  A    between atoms: C_9  and  C_10
REMARK    4  A    between atoms: C_16  and  C_17
REMARK    5  A    between atoms: N_22  and  C_23
REMARK                            x       y       z     vdW  Elec       q    Type
REMARK                         _______ _______ _______ _____ _____    ______ ____
ROOT
ATOM      1  C   UNL     1       1.460   7.944  20.264  0.00  0.00    +0.000 A 
ATOM      2  C   UNL     1       1.605   6.678  20.815  0.00  0.00    +0.000 A 
ATOM      3  C   UNL     1       2.382   5.878  19.947  0.00  0.00    +0.000 A 
ATOM      4  C   UNL     1       2.851   4.560  19.934  0.00  0.00    +0.000 A 
ATOM      5 CL   UNL     1       2.439   3.580  21.270  0.00  0.00    +0.000 Cl
ATOM      6  C   UNL     1       3.610   4.096  18.883  0.00  0.00    +0.000 A 
ATOM      7  C   UNL     1       3.881   4.990  17.859  0.00  0.00    +0.000 A 
ATOM      8  N   UNL     1       3.467   6.298  17.792  0.00  0.00    +0.000 NA
ATOM      9  C   UNL     1       2.725   6.678  18.863  0.00  0.00    +0.000 A 
ATOM     10  N   UNL     1       2.174   7.931  19.072  0.00  0.00    +0.000 N 
ATOM     11  C   UNL     1       2.384   9.050  18.180  0.00  0.00    +0.000 C 
ENDROOT
BRANCH   1  15
ATOM     12  C   UNL     1      -0.850  11.135  22.084  0.00  0.00    +0.000 A 
ATOM     13  C   UNL     1      -0.223  10.145  22.845  0.00  0.00    +0.000 A 
ATOM     14  C   UNL     1       0.548   9.137  22.246  0.00  0.00    +0.000 A 
ATOM     15  C   UNL     1       0.710   9.066  20.858  0.00  0.00    +0.000 A 
ATOM     16  C   UNL     1       0.063  10.030  20.090  0.00  0.00    +0.000 A 
ATOM     17  C   UNL     1      -0.685  11.050  20.696  0.00  0.00    +0.000 A 
BRANCH  12  22
ATOM     18  C   UNL     1      -4.248  15.454  22.854  0.00  0.00    +0.000 C 
ATOM     19  N   UNL     1      -3.290  14.422  23.239  0.00  0.00    +0.000 NA
ATOM     20  C   UNL     1      -2.016  14.588  22.506  0.00  0.00    +0.000 C 
ATOM     21  C   UNL     1      -0.972  13.503  22.866  0.00  0.00    +0.000 C 
ATOM     22  N   UNL     1      -1.557  12.172  22.652  0.00  0.00    +0.000 N 
ATOM     23  C   UNL     1      -2.838  11.958  23.349  0.00  0.00    +0.000 C 
ATOM     24  C   UNL     1      -3.833  13.072  22.959  0.00  0.00    +0.000 C 
ENDBRANCH  12  22
ENDBRANCH   1  15
BRANCH   7  25
ATOM     25  C   UNL     1       4.709   4.484  16.710  0.00  0.00    +0.000 C 
ATOM     26  N   UNL     1       5.120   3.184  16.789  0.00  0.00    +0.000 N 
ATOM     27  O   UNL     1       5.007   5.192  15.754  0.00  0.00    +0.000 OA
ATOM     28  H   UNL     1       4.865   2.613  17.581  0.00  0.00    +0.000 HD
ATOM     29  H   UNL     1       5.677   2.808  16.033  0.00  0.00    +0.000 HD
ENDBRANCH   7  25
TORSDOF 3
ENDMDL
MODEL 3
REMARK VINA RESULT:      -8.0      2.621      3.452
REMARK  Name = 
REMARK  5 active torsions:
REMARK  status: ('A' for Active; 'I' for Inactive)
REMARK    1  A    between atoms: C_1  and  N_2
REMARK    2  A    between atoms: N_5  and  C_6
REMARK    3  A    between atoms: C_9  and  C_10
REMARK    4  A    between atoms: C_16  and  C_17
REMARK    5  A    between atoms: N_22  and  C_23
REMARK                            x       y       z     vdW  Elec       q    Type
REMARK                         _______ _______ _______ _____ _____    ______ ____
ROOT
ATOM      1  C   UNL     1       2.324   7.467  18.911  0.00  0.00    +0.000 A 
ATOM      2  C   UNL     1       3.176   7.190  17.850  0.00  0.00    +0.000 A 
ATOM      3  C   UNL     1       3.688   5.881  17.993  0.00  0.00    +0.000 A 
ATOM      4  C   UNL     1       4.569   5.056  17.285  0.00  0.00    +0.000 A 
ATOM      5 CL   UNL     1       5.253   5.700  15.859  0.00  0.00    +0.000 Cl
ATOM      6  C   UNL     1       4.855   3.786  17.734  0.00  0.00    +0.000 A 
ATOM      7  C   UNL     1       4.234   3.377  18.902  0.00  0.00    +0.000 A 
ATOM      8  N   UNL     1       3.355   4.115  19.657  0.00  0.00    +0.000 NA
ATOM      9  C   UNL     1       3.126   5.353  19.149  0.00  0.00    +0.000 A 
ATOM     10  N   UNL     1       2.290   6.315  19.690  0.00  0.00    +0.000 N 
ATOM     11  C   UNL     1       1.476   6.092  20.864  0.00  0.00    +0.000 C 
ENDROOT
BRANCH   1  15
ATOM     12  C   UNL     1       0.321  11.270  19.509  0.00  0.00    +0.000 A 
ATOM     13  C   UNL     1       0.828  10.884  18.264  0.00  0.00    +0.000 A 
ATOM     14  C   UNL     1       1.445   9.638  18.077  0.00  0.00    +0.000 A 
ATOM     15  C   UNL     1       1.597   8.730  19.131  0.00  0.00    +0.000 A 
ATOM     16  C   UNL     1       1.124   9.119  20.381  0.00  0.00    +0.000 A 
ATOM     17  C   UNL     1       0.485  10.356  20.556  0.00  0.00    +0.000 A 
BRANCH  12  22
ATOM     18  C   UNL     1      -0.961  16.461  20.991  0.00  0.00    +0.000 C 
ATOM     19  N   UNL     1      -1.182  15.149  20.389  0.00  0.00    +0.000 NA
ATOM     20  C   UNL     1      -1.076  14.080  21.408  0.00  0.00    +0.000 C 
ATOM     21  C   UNL     1      -1.284  12.666  20.813  0.00  0.00    +0.000 C 
ATOM     22  N   UNL     1      -0.346  12.459  19.702  0.00  0.00    +0.000 N 
ATOM     23  C   UNL     1      -0.399  13.505  18.666  0.00  0.00    +0.000 C 
ATOM     24  C   UNL     1      -0.195  14.891  19.316  0.00  0.00    +0.000 C 
ENDBRANCH  12  22
ENDBRANCH   1  15
BRANCH   7  25
ATOM     25  C   UNL     1       4.546   1.990  19.394  0.00  0.00    +0.000 C 
ATOM     26  N   UNL     1       4.190   0.963  18.568  0.00  0.00    +0.000 N 
ATOM     27  O   UNL     1       5.085   1.784  20.477  0.00  0.00    +0.000 OA
ATOM     28  H   UNL     1       3.749   1.149  17.680  0.00  0.00    +0.000 HD
ATOM     29  H   UNL     1       4.387   0.016  18.864  0.00  0.00    +0.000 HD
ENDBRANCH   7  25
TORSDOF 3
ENDMDL
MODEL 4
REMARK VINA RESULT:      -7.9      2.391      2.969
REMARK  Name = 
REMARK  5 active torsions:
REMARK  status: ('A' for Active; 'I' for Inactive)
REMARK    1  A    between atoms: C_1  and  N_2
REMARK    2  A    between atoms: N_5  and  C_6
REMARK    3  A    between atoms: C_9  and  C_10
REMARK    4  A    between atoms: C_16  and  C_17
REMARK    5  A    between atoms: N_22  and  C_23
REMARK                            x       y       z     vdW  Elec       q    Type
REMARK                         _______ _______ _______ _____ _____    ______ ____
ROOT
ATOM      1  C   UNL     1       2.246   7.514  19.001  0.00  0.00    +0.000 A 
ATOM      2  C   UNL     1       3.107   7.268  17.939  0.00  0.00    +0.000 A 
ATOM      3  C   UNL     1       3.630   5.961  18.056  0.00  0.00    +0.000 A 
ATOM      4  C   UNL     1       4.523   5.160  17.336  0.00  0.00    +0.000 A 
ATOM      5 CL   UNL     1       5.210   5.841  15.929  0.00  0.00    +0.000 Cl
ATOM      6  C   UNL     1       4.817   3.882  17.758  0.00  0.00    +0.000 A 
ATOM      7  C   UNL     1       4.192   3.442  18.913  0.00  0.00    +0.000 A 
ATOM      8  N   UNL     1       3.302   4.155  19.678  0.00  0.00    +0.000 NA
ATOM      9  C   UNL     1       3.065   5.402  19.197  0.00  0.00    +0.000 A 
ATOM     10  N   UNL     1       2.217   6.345  19.753  0.00  0.00    +0.000 N 
ATOM     11  C   UNL     1       1.397   6.089  20.916  0.00  0.00    +0.000 C 
ENDROOT
BRANCH   1  15
ATOM     12  C   UNL     1      -0.050  11.110  19.791  0.00  0.00    +0.000 A 
ATOM     13  C   UNL     1       0.403  10.277  20.818  0.00  0.00    +0.000 A 
ATOM     14  C   UNL     1       1.172   9.134  20.551  0.00  0.00    +0.000 A 
ATOM     15  C   UNL     1       1.507   8.765  19.244  0.00  0.00    +0.000 A 
ATOM     16  C   UNL     1       1.033   9.573  18.212  0.00  0.00    +0.000 A 
ATOM     17  C   UNL     1       0.287  10.728  18.487  0.00  0.00    +0.000 A 
BRANCH  12  22
ATOM     18  C   UNL     1      -2.968  15.141  22.246  0.00  0.00    +0.000 C 
ATOM     19  N   UNL     1      -2.264  14.476  21.153  0.00  0.00    +0.000 NA
ATOM     20  C   UNL     1      -2.896  13.175  20.837  0.00  0.00    +0.000 C 
ATOM     21  C   UNL     1      -2.172  12.421  19.696  0.00  0.00    +0.000 C 
ATOM     22  N   UNL     1      -0.749  12.272  20.032  0.00  0.00    +0.000 N 
ATOM     23  C   UNL     1      -0.075  13.537  20.371  0.00  0.00    +0.000 C 
ATOM     24  C   UNL     1      -0.844  14.248  21.506  0.00  0.00    +0.000 C 
ENDBRANCH  12  22
ENDBRANCH   1  15
BRANCH   7  25
ATOM     25  C   UNL     1       4.513   2.047  19.376  0.00  0.00    +0.000 C 
ATOM     26  N   UNL     1       4.167   1.035  18.527  0.00  0.00    +0.000 N 
ATOM     27  O   UNL     1       5.051   1.821  20.455  0.00  0.00    +0.000 OA
ATOM     28  H   UNL     1       3.727   1.237  17.642  0.00  0.00    +0.000 HD
ATOM     29  H   UNL     1       4.370   0.083  18.804  0.00  0.00    +0.000 HD
ENDBRANCH   7  25
TORSDOF 3
ENDMDL
MODEL 5
REMARK VINA RESULT:      -7.9      0.448      1.018
REMARK  Name = 
REMARK  5 active torsions:
REMARK  status: ('A' for Active; 'I' for Inactive)
REMARK    1  A    between atoms: C_1  and  N_2
REMARK    2  A    between atoms: N_5  and  C_6
REMARK    3  A    between atoms: C_9  and  C_10
REMARK    4  A    between atoms: C_16  and  C_17
REMARK    5  A    between atoms: N_22  and  C_23
REMARK                            x       y       z     vdW  Elec       q    Type
REMARK                         _______ _______ _______ _____ _____    ______ ____
ROOT
ATOM      1  C   UNL     1       1.440   7.772  20.351  0.00  0.00    +0.000 A 
ATOM      2  C   UNL     1       1.543   6.515  20.932  0.00  0.00    +0.000 A 
ATOM      3  C   UNL     1       2.362   5.694  20.125  0.00  0.00    +0.000 A 
ATOM      4  C   UNL     1       2.820   4.373  20.161  0.00  0.00    +0.000 A 
ATOM      5 CL   UNL     1       2.323   3.420  21.488  0.00  0.00    +0.000 Cl
ATOM      6  C   UNL     1       3.635   3.884  19.165  0.00  0.00    +0.000 A 
ATOM      7  C   UNL     1       3.971   4.756  18.143  0.00  0.00    +0.000 A 
ATOM      8  N   UNL     1       3.573   6.066  18.029  0.00  0.00    +0.000 NA
ATOM      9  C   UNL     1       2.773   6.472  19.048  0.00  0.00    +0.000 A 
ATOM     10  N   UNL     1       2.222   7.732  19.202  0.00  0.00    +0.000 N 
ATOM     11  C   UNL     1       2.493   8.833  18.304  0.00  0.00    +0.000 C 
ENDROOT
BRANCH   1  15
ATOM     12  C   UNL     1      -0.728  11.225  21.836  0.00  0.00    +0.000 A 
ATOM     13  C   UNL     1      -0.547  10.993  20.470  0.00  0.00    +0.000 A 
ATOM     14  C   UNL     1       0.128   9.855  20.002  0.00  0.00    +0.000 A 
ATOM     15  C   UNL     1       0.667   8.910  20.881  0.00  0.00    +0.000 A 
ATOM     16  C   UNL     1       0.520   9.150  22.245  0.00  0.00    +0.000 A 
ATOM     17  C   UNL     1      -0.179  10.275  22.706  0.00  0.00    +0.000 A 
BRANCH  12  22
ATOM     18  C   UNL     1      -3.107  14.945  25.197  0.00  0.00    +0.000 C 
ATOM     19  N   UNL     1      -2.745  14.336  23.920  0.00  0.00    +0.000 NA
ATOM     20  C   UNL     1      -3.276  12.957  23.828  0.00  0.00    +0.000 C 
ATOM     21  C   UNL     1      -2.901  12.260  22.497  0.00  0.00    +0.000 C 
ATOM     22  N   UNL     1      -1.443  12.299  22.318  0.00  0.00    +0.000 N 
ATOM     23  C   UNL     1      -0.860  13.648  22.417  0.00  0.00    +0.000 C 
ATOM     24  C   UNL     1      -1.274  14.296  23.756  0.00  0.00    +0.000 C 
ENDBRANCH  12  22
ENDBRANCH   1  15
BRANCH   7  25
ATOM     25  C   UNL     1       4.860   4.224  17.053  0.00  0.00    +0.000 C 
ATOM     26  N   UNL     1       6.169   4.019  17.388  0.00  0.00    +0.000 N 
ATOM     27  O   UNL     1       4.445   3.989  15.923  0.00  0.00    +0.000 OA
ATOM     28  H   UNL     1       6.495   4.216  18.322  0.00  0.00    +0.000 HD
ATOM     29  H   UNL     1       6.796   3.659  16.681  0.00  0.00    +0.000 HD
ENDBRANCH   7  25
TORSDOF 3
ENDMDL
MODEL 6
REMARK VINA RESULT:      -7.8      0.891      1.002
REMARK  Name = 
REMARK  5 active torsions:
REMARK  status: ('A' for Active; 'I' for Inactive)
REMARK    1  A    between atoms: C_1  and  N_2
REMARK    2  A    between atoms: N_5  and  C_6
REMARK    3  A    between atoms: C_9  and  C_10
REMARK    4  A    between atoms: C_16  and  C_17
REMARK    5  A    between atoms: N_22  and  C_23
REMARK                            x       y       z     vdW  Elec       q    Type
REMARK                         _______ _______ _______ _____ _____    ______ ____
ROOT
ATOM      1  C   UNL     1       1.423   8.009  20.157  0.00  0.00    +0.000 A 
ATOM      2  C   UNL     1       1.506   6.803  20.840  0.00  0.00    +0.000 A 
ATOM      3  C   UNL     1       2.347   5.920  20.126  0.00  0.00    +0.000 A 
ATOM      4  C   UNL     1       2.800   4.606  20.282  0.00  0.00    +0.000 A 
ATOM      5 CL   UNL     1       2.262   3.762  21.666  0.00  0.00    +0.000 Cl
ATOM      6  C   UNL     1       3.644   4.039  19.353  0.00  0.00    +0.000 A 
ATOM      7  C   UNL     1       4.012   4.827  18.275  0.00  0.00    +0.000 A 
ATOM      8  N   UNL     1       3.621   6.123  18.044  0.00  0.00    +0.000 NA
ATOM      9  C   UNL     1       2.792   6.609  19.004  0.00  0.00    +0.000 A 
ATOM     10  N   UNL     1       2.239   7.877  19.040  0.00  0.00    +0.000 N 
ATOM     11  C   UNL     1       2.538   8.903  18.065  0.00  0.00    +0.000 C 
ENDROOT
BRANCH   1  15
ATOM     12  C   UNL     1      -0.990  11.371  21.465  0.00  0.00    +0.000 A 
ATOM     13  C   UNL     1      -0.314  10.545  22.368  0.00  0.00    +0.000 A 
ATOM     14  C   UNL     1       0.489   9.481  21.931  0.00  0.00    +0.000 A 
ATOM     15  C   UNL     1       0.637   9.186  20.571  0.00  0.00    +0.000 A 
ATOM     16  C   UNL     1      -0.058   9.984  19.666  0.00  0.00    +0.000 A 
ATOM     17  C   UNL     1      -0.838  11.062  20.108  0.00  0.00    +0.000 A 
BRANCH  12  22
ATOM     18  C   UNL     1      -4.873  14.597  23.768  0.00  0.00    +0.000 C 
ATOM     19  N   UNL     1      -3.663  14.297  23.009  0.00  0.00    +0.000 NA
ATOM     20  C   UNL     1      -3.978  13.467  21.824  0.00  0.00    +0.000 C 
ATOM     21  C   UNL     1      -2.722  13.106  20.995  0.00  0.00    +0.000 C 
ATOM     22  N   UNL     1      -1.730  12.460  21.867  0.00  0.00    +0.000 N 
ATOM     23  C   UNL     1      -1.390  13.237  23.072  0.00  0.00    +0.000 C 
ATOM     24  C   UNL     1      -2.680  13.576  23.851  0.00  0.00    +0.000 C 
ENDBRANCH  12  22
ENDBRANCH   1  15
BRANCH   7  25
ATOM     25  C   UNL     1       4.932   4.209  17.258  0.00  0.00    +0.000 C 
ATOM     26  N   UNL     1       6.234   4.053  17.640  0.00  0.00    +0.000 N 
ATOM     27  O   UNL     1       4.545   3.866  16.146  0.00  0.00    +0.000 OA
ATOM     28  H   UNL     1       6.537   4.338  18.558  0.00  0.00    +0.000 HD
ATOM     29  H   UNL     1       6.882   3.638  16.982  0.00  0.00    +0.000 HD
ENDBRANCH   7  25
TORSDOF 3
ENDMDL
MODEL 7
REMARK VINA RESULT:      -7.7      1.006      1.654
REMARK  Name = 
REMARK  5 active torsions:
REMARK  status: ('A' for Active; 'I' for Inactive)
REMARK    1  A    between atoms: C_1  and  N_2
REMARK    2  A    between atoms: N_5  and  C_6
REMARK    3  A    between atoms: C_9  and  C_10
REMARK    4  A    between atoms: C_16  and  C_17
REMARK    5  A    between atoms: N_22  and  C_23
REMARK                            x       y       z     vdW  Elec       q    Type
REMARK                         _______ _______ _______ _____ _____    ______ ____
ROOT
ATOM      1  C   UNL     1       1.424   7.943  20.246  0.00  0.00    +0.000 A 
ATOM      2  C   UNL     1       1.622   6.661  20.741  0.00  0.00    +0.000 A 
ATOM      3  C   UNL     1       2.430   5.933  19.838  0.00  0.00    +0.000 A 
ATOM      4  C   UNL     1       2.952   4.637  19.766  0.00  0.00    +0.000 A 
ATOM      5 CL   UNL     1       2.583   3.583  21.058  0.00  0.00    +0.000 Cl
ATOM      6  C   UNL     1       3.728   4.252  18.696  0.00  0.00    +0.000 A 
ATOM      7  C   UNL     1       3.960   5.200  17.713  0.00  0.00    +0.000 A 
ATOM      8  N   UNL     1       3.493   6.491  17.704  0.00  0.00    +0.000 NA
ATOM      9  C   UNL     1       2.737   6.793  18.791  0.00  0.00    +0.000 A 
ATOM     10  N   UNL     1       2.136   8.012  19.055  0.00  0.00    +0.000 N 
ATOM     11  C   UNL     1       2.299   9.177  18.213  0.00  0.00    +0.000 C 
ENDROOT
BRANCH   1  15
ATOM     12  C   UNL     1      -0.806  11.184  22.079  0.00  0.00    +0.000 A 
ATOM     13  C   UNL     1      -0.613  11.103  20.697  0.00  0.00    +0.000 A 
ATOM     14  C   UNL     1       0.083  10.033  20.114  0.00  0.00    +0.000 A 
ATOM     15  C   UNL     1       0.630   9.006  20.890  0.00  0.00    +0.000 A 
ATOM     16  C   UNL     1       0.469   9.094  22.270  0.00  0.00    +0.000 A 
ATOM     17  C   UNL     1      -0.249  10.153  22.845  0.00  0.00    +0.000 A 
BRANCH  12  22
ATOM     18  C   UNL     1      -4.374  15.342  22.952  0.00  0.00    +0.000 C 
ATOM     19  N   UNL     1      -3.357  14.358  23.307  0.00  0.00    +0.000 NA
ATOM     20  C   UNL     1      -2.117  14.580  22.529  0.00  0.00    +0.000 C 
ATOM     21  C   UNL     1      -1.012  13.546  22.856  0.00  0.00    +0.000 C 
ATOM     22  N   UNL     1      -1.541  12.188  22.668  0.00  0.00    +0.000 N 
ATOM     23  C   UNL     1      -2.785  11.918  23.409  0.00  0.00    +0.000 C 
ATOM     24  C   UNL     1      -3.845  12.983  23.050  0.00  0.00    +0.000 C 
ENDBRANCH  12  22
ENDBRANCH   1  15
BRANCH   7  25
ATOM     25  C   UNL     1       4.806   4.780  16.543  0.00  0.00    +0.000 C 
ATOM     26  N   UNL     1       5.256   5.784  15.733  0.00  0.00    +0.000 N 
ATOM     27  O   UNL     1       5.078   3.605  16.317  0.00  0.00    +0.000 OA
ATOM     28  H   UNL     1       5.025   6.745  15.933  0.00  0.00    +0.000 HD
ATOM     29  H   UNL     1       5.830   5.540  14.937  0.00  0.00    +0.000 HD
ENDBRANCH   7  25
TORSDOF 3
ENDMDL
MODEL 8
REMARK VINA RESULT:      -7.7      1.251      1.293
REMARK  Name = 
REMARK  5 active torsions:
REMARK  status: ('A' for Active; 'I' for Inactive)
REMARK    1  A    between atoms: C_1  and  N_2
REMARK    2  A    between atoms: N_5  and  C_6
REMARK    3  A    between atoms: C_9  and  C_10
REMARK    4  A    between atoms: C_16  and  C_17
REMARK    5  A    between atoms: N_22  and  C_23
REMARK                            x       y       z     vdW  Elec       q    Type
REMARK                         _______ _______ _______ _____ _____    ______ ____
ROOT
ATOM      1  C   UNL     1       1.084   8.816  20.111  0.00  0.00    +0.000 A 
ATOM      2  C   UNL     1       1.332   7.575  20.684  0.00  0.00    +0.000 A 
ATOM      3  C   UNL     1       2.202   6.841  19.846  0.00  0.00    +0.000 A 
ATOM      4  C   UNL     1       2.791   5.572  19.862  0.00  0.00    +0.000 A 
ATOM      5 CL   UNL     1       2.438   4.574  21.202  0.00  0.00    +0.000 Cl
ATOM      6  C   UNL     1       3.616   5.168  18.836  0.00  0.00    +0.000 A 
ATOM      7  C   UNL     1       3.828   6.070  17.807  0.00  0.00    +0.000 A 
ATOM      8  N   UNL     1       3.297   7.333  17.711  0.00  0.00    +0.000 NA
ATOM      9  C   UNL     1       2.496   7.656  18.759  0.00  0.00    +0.000 A 
ATOM     10  N   UNL     1       1.827   8.855  18.936  0.00  0.00    +0.000 N 
ATOM     11  C   UNL     1       1.954   9.978  18.034  0.00  0.00    +0.000 C 
ENDROOT
BRANCH   1  15
ATOM     12  C   UNL     1      -1.549  11.800  21.840  0.00  0.00    +0.000 A 
ATOM     13  C   UNL     1      -0.781  10.940  22.630  0.00  0.00    +0.000 A 
ATOM     14  C   UNL     1       0.091  10.001  22.058  0.00  0.00    +0.000 A 
ATOM     15  C   UNL     1       0.220   9.870  20.671  0.00  0.00    +0.000 A 
ATOM     16  C   UNL     1      -0.566  10.701  19.877  0.00  0.00    +0.000 A 
ATOM     17  C   UNL     1      -1.416  11.656  20.454  0.00  0.00    +0.000 A 
BRANCH  12  22
ATOM     18  C   UNL     1      -3.527  15.945  24.955  0.00  0.00    +0.000 C 
ATOM     19  N   UNL     1      -3.551  14.938  23.898  0.00  0.00    +0.000 NA
ATOM     20  C   UNL     1      -3.394  13.579  24.465  0.00  0.00    +0.000 C 
ATOM     21  C   UNL     1      -3.394  12.475  23.379  0.00  0.00    +0.000 C 
ATOM     22  N   UNL     1      -2.362  12.774  22.378  0.00  0.00    +0.000 N 
ATOM     23  C   UNL     1      -2.462  14.122  21.792  0.00  0.00    +0.000 C 
ATOM     24  C   UNL     1      -2.466  15.178  22.919  0.00  0.00    +0.000 C 
ENDBRANCH  12  22
ENDBRANCH   1  15
BRANCH   7  25
ATOM     25  C   UNL     1       4.729   5.630  16.685  0.00  0.00    +0.000 C 
ATOM     26  N   UNL     1       5.396   6.622  16.024  0.00  0.00    +0.000 N 
ATOM     27  O   UNL     1       4.858   4.452  16.372  0.00  0.00    +0.000 OA
ATOM     28  H   UNL     1       5.280   7.586  16.295  0.00  0.00    +0.000 HD
ATOM     29  H   UNL     1       6.013   6.363  15.265  0.00  0.00    +0.000 HD
ENDBRANCH   7  25
TORSDOF 3
ENDMDL
MODEL 9
REMARK VINA RESULT:      -7.6      1.213      1.676
REMARK  Name = 
REMARK  5 active torsions:
REMARK  status: ('A' for Active; 'I' for Inactive)
REMARK    1  A    between atoms: C_1  and  N_2
REMARK    2  A    between atoms: N_5  and  C_6
REMARK    3  A    between atoms: C_9  and  C_10
REMARK    4  A    between atoms: C_16  and  C_17
REMARK    5  A    between atoms: N_22  and  C_23
REMARK                            x       y       z     vdW  Elec       q    Type
REMARK                         _______ _______ _______ _____ _____    ______ ____
ROOT
ATOM      1  C   UNL     1       1.724   7.584  19.874  0.00  0.00    +0.000 A 
ATOM      2  C   UNL     1       1.897   6.338  20.462  0.00  0.00    +0.000 A 
ATOM      3  C   UNL     1       2.797   5.576  19.683  0.00  0.00    +0.000 A 
ATOM      4  C   UNL     1       3.345   4.291  19.738  0.00  0.00    +0.000 A 
ATOM      5 CL   UNL     1       2.876   3.306  21.051  0.00  0.00    +0.000 Cl
ATOM      6  C   UNL     1       4.224   3.860  18.768  0.00  0.00    +0.000 A 
ATOM      7  C   UNL     1       4.530   4.754  17.756  0.00  0.00    +0.000 A 
ATOM      8  N   UNL     1       4.044   6.032  17.625  0.00  0.00    +0.000 NA
ATOM      9  C   UNL     1       3.186   6.380  18.618  0.00  0.00    +0.000 A 
ATOM     10  N   UNL     1       2.543   7.599  18.751  0.00  0.00    +0.000 N 
ATOM     11  C   UNL     1       2.763   8.716  17.859  0.00  0.00    +0.000 C 
ENDROOT
BRANCH   1  15
ATOM     12  C   UNL     1      -0.720  10.876  21.295  0.00  0.00    +0.000 A 
ATOM     13  C   UNL     1      -0.390  10.725  19.946  0.00  0.00    +0.000 A 
ATOM     14  C   UNL     1       0.375   9.638  19.494  0.00  0.00    +0.000 A 
ATOM     15  C   UNL     1       0.856   8.665  20.377  0.00  0.00    +0.000 A 
ATOM     16  C   UNL     1       0.558   8.825  21.727  0.00  0.00    +0.000 A 
ATOM     17  C   UNL     1      -0.228   9.899  22.169  0.00  0.00    +0.000 A 
BRANCH  12  22
ATOM     18  C   UNL     1      -5.072  13.814  23.092  0.00  0.00    +0.000 C 
ATOM     19  N   UNL     1      -3.681  13.580  22.715  0.00  0.00    +0.000 NA
ATOM     20  C   UNL     1      -3.583  13.171  21.296  0.00  0.00    +0.000 C 
ATOM     21  C   UNL     1      -2.126  12.891  20.854  0.00  0.00    +0.000 C 
ATOM     22  N   UNL     1      -1.523  11.897  21.753  0.00  0.00    +0.000 N 
ATOM     23  C   UNL     1      -1.607  12.248  23.181  0.00  0.00    +0.000 C 
ATOM     24  C   UNL     1      -3.079  12.524  23.562  0.00  0.00    +0.000 C 
ENDBRANCH  12  22
ENDBRANCH   1  15
BRANCH   7  25
ATOM     25  C   UNL     1       5.488   4.285  16.695  0.00  0.00    +0.000 C 
ATOM     26  N   UNL     1       6.783   4.101  17.092  0.00  0.00    +0.000 N 
ATOM     27  O   UNL     1       5.138   4.082  15.537  0.00  0.00    +0.000 OA
ATOM     28  H   UNL     1       7.054   4.270  18.048  0.00  0.00    +0.000 HD
ATOM     29  H   UNL     1       7.455   3.783  16.406  0.00  0.00    +0.000 HD
ENDBRANCH   7  25
TORSDOF 3
ENDMDL
