MODEL 1
REMARK VINA RESULT:      -5.7      0.000      0.000
REMARK  Name = 
REMARK  10 active torsions:
REMARK  status: ('A' for Active; 'I' for Inactive)
REMARK    1  A    between atoms: C_1  and  C_2
REMARK    2  A    between atoms: C_2  and  C_3
REMARK    3  A    between atoms: C_4  and  N_5
REMARK    4  A    between atoms: N_5  and  S_6
REMARK    5  A    between atoms: S_6  and  N_9
REMARK    6  A    between atoms: C_14  and  C_15
REMARK    7  A    between atoms: C_14  and  C_16
REMARK    8  A    between atoms: C_17  and  N_18
REMARK    9  A    between atoms: N_18  and  S_19
REMARK   10  A    between atoms: S_19  and  N_22
REMARK                            x       y       z     vdW  Elec       q    Type
REMARK                         _______ _______ _______ _____ _____    ______ ____
ROOT
ATOM      1  C   UNL     1       2.570   4.688  21.675  0.00  0.00    +0.000 C 
ATOM      2  C   UNL     1       1.887   5.071  20.361  0.00  0.00    +0.000 C 
ATOM      3  C   UNL     1       0.795   4.038  20.057  0.00  0.00    +0.000 C 
ATOM      4  C   UNL     1       1.369   6.552  20.176  0.00  0.00    +0.000 C 
ATOM      5  C   UNL     1       2.105   6.575  18.755  0.00  0.00    +0.000 C 
ATOM      6  C   UNL     1       2.934   7.826  18.427  0.00  0.00    +0.000 C 
ATOM      7  C   UNL     1       1.228   6.279  17.526  0.00  0.00    +0.000 C 
ATOM      8  C   UNL     1       2.979   5.397  19.293  0.00  0.00    +0.000 C 
ENDROOT
BRANCH   4   9
ATOM      9  N   UNL     1       1.789   7.582  21.240  0.00  0.00    +0.000 NA
ATOM     10  H   UNL     1       2.618   8.087  20.912  0.00  0.00    +0.000 HD
BRANCH   9  11
ATOM     11  S   UNL     1       0.724   8.825  21.730  0.00  0.00    +0.000 S 
ATOM     12  O   UNL     1      -0.606   8.272  21.629  0.00  0.00    +0.000 OA
ATOM     13  O   UNL     1       1.169   9.488  22.927  0.00  0.00    +0.000 OA
BRANCH  11  14
ATOM     14  N   UNL     1       0.912   9.932  20.455  0.00  0.00    +0.000 NA
ATOM     15  C   UNL     1       1.006  11.370  20.815  0.00  0.00    +0.000 C 
ATOM     16  C   UNL     1      -0.417  11.889  20.772  0.00  0.00    +0.000 C 
ATOM     17  C   UNL     1      -1.052  11.115  19.633  0.00  0.00    +0.000 C 
ATOM     18  C   UNL     1      -0.233   9.833  19.489  0.00  0.00    +0.000 C 
ENDBRANCH  11  14
ENDBRANCH   9  11
ENDBRANCH   4   9
BRANCH   8  19
ATOM     19  N   UNL     1       3.442   4.276  18.388  0.00  0.00    +0.000 NA
ATOM     20  H   UNL     1       3.020   4.373  17.461  0.00  0.00    +0.000 HD
BRANCH  19  21
ATOM     21  S   UNL     1       5.110   4.134  18.079  0.00  0.00    +0.000 S 
ATOM     22  O   UNL     1       5.631   3.217  19.065  0.00  0.00    +0.000 OA
ATOM     23  O   UNL     1       5.337   3.947  16.671  0.00  0.00    +0.000 OA
BRANCH  21  24
ATOM     24  N   UNL     1       5.626   5.687  18.461  0.00  0.00    +0.000 NA
ATOM     25  C   UNL     1       6.018   6.525  17.298  0.00  0.00    +0.000 C 
ATOM     26  C   UNL     1       7.516   6.329  17.161  0.00  0.00    +0.000 C 
ATOM     27  C   UNL     1       7.991   6.230  18.596  0.00  0.00    +0.000 C 
ATOM     28  C   UNL     1       6.812   5.663  19.381  0.00  0.00    +0.000 C 
ENDBRANCH  21  24
ENDBRANCH  19  21
ENDBRANCH   8  19
TORSDOF 6
ENDMDL
MODEL 2
REMARK VINA RESULT:      -5.7      1.042      1.418
REMARK  Name = 
REMARK  10 active torsions:
REMARK  status: ('A' for Active; 'I' for Inactive)
REMARK    1  A    between atoms: C_1  and  C_2
REMARK    2  A    between atoms: C_2  and  C_3
REMARK    3  A    between atoms: C_4  and  N_5
REMARK    4  A    between atoms: N_5  and  S_6
REMARK    5  A    between atoms: S_6  and  N_9
REMARK    6  A    between atoms: C_14  and  C_15
REMARK    7  A    between atoms: C_14  and  C_16
REMARK    8  A    between atoms: C_17  and  N_18
REMARK    9  A    between atoms: N_18  and  S_19
REMARK   10  A    between atoms: S_19  and  N_22
REMARK                            x       y       z     vdW  Elec       q    Type
REMARK                         _______ _______ _______ _____ _____    ______ ____
ROOT
ATOM      1  C   UNL     1       2.568   4.853  21.783  0.00  0.00    +0.000 C 
ATOM      2  C   UNL     1       1.959   5.209  20.425  0.00  0.00    +0.000 C 
ATOM      3  C   UNL     1       0.899   4.159  20.073  0.00  0.00    +0.000 C 
ATOM      4  C   UNL     1       1.435   6.680  20.189  0.00  0.00    +0.000 C 
ATOM      5  C   UNL     1       2.255   6.693  18.813  0.00  0.00    +0.000 C 
ATOM      6  C   UNL     1       3.087   7.950  18.517  0.00  0.00    +0.000 C 
ATOM      7  C   UNL     1       1.455   6.369  17.539  0.00  0.00    +0.000 C 
ATOM      8  C   UNL     1       3.109   5.534  19.419  0.00  0.00    +0.000 C 
ENDROOT
BRANCH   4   9
ATOM      9  N   UNL     1       1.780   7.731  21.260  0.00  0.00    +0.000 NA
ATOM     10  H   UNL     1       2.587   8.279  20.948  0.00  0.00    +0.000 HD
BRANCH   9  11
ATOM     11  S   UNL     1       0.642   8.914  21.731  0.00  0.00    +0.000 S 
ATOM     12  O   UNL     1      -0.658   8.312  21.544  0.00  0.00    +0.000 OA
ATOM     13  O   UNL     1       0.996   9.556  22.969  0.00  0.00    +0.000 OA
BRANCH  11  14
ATOM     14  N   UNL     1       0.848  10.068  20.501  0.00  0.00    +0.000 NA
ATOM     15  C   UNL     1       0.851  11.497  20.907  0.00  0.00    +0.000 C 
ATOM     16  C   UNL     1      -0.591  11.950  20.795  0.00  0.00    +0.000 C 
ATOM     17  C   UNL     1      -1.120  11.183  19.599  0.00  0.00    +0.000 C 
ATOM     18  C   UNL     1      -0.233   9.945  19.467  0.00  0.00    +0.000 C 
ENDBRANCH  11  14
ENDBRANCH   9  11
ENDBRANCH   4   9
BRANCH   8  19
ATOM     19  N   UNL     1       3.638   4.406  18.559  0.00  0.00    +0.000 NA
ATOM     20  H   UNL     1       3.647   4.687  17.576  0.00  0.00    +0.000 HD
BRANCH  19  21
ATOM     21  S   UNL     1       5.218   3.849  18.855  0.00  0.00    +0.000 S 
ATOM     22  O   UNL     1       5.860   4.854  19.668  0.00  0.00    +0.000 OA
ATOM     23  O   UNL     1       5.188   2.463  19.241  0.00  0.00    +0.000 OA
BRANCH  21  24
ATOM     24  N   UNL     1       5.862   3.916  17.305  0.00  0.00    +0.000 NA
ATOM     25  C   UNL     1       7.081   4.756  17.164  0.00  0.00    +0.000 C 
ATOM     26  C   UNL     1       6.570   6.120  16.743  0.00  0.00    +0.000 C 
ATOM     27  C   UNL     1       5.404   5.795  15.832  0.00  0.00    +0.000 C 
ATOM     28  C   UNL     1       4.867   4.452  16.317  0.00  0.00    +0.000 C 
ENDBRANCH  21  24
ENDBRANCH  19  21
ENDBRANCH   8  19
TORSDOF 6
ENDMDL
MODEL 3
REMARK VINA RESULT:      -5.7      2.984      7.436
REMARK  Name = 
REMARK  10 active torsions:
REMARK  status: ('A' for Active; 'I' for Inactive)
REMARK    1  A    between atoms: C_1  and  C_2
REMARK    2  A    between atoms: C_2  and  C_3
REMARK    3  A    between atoms: C_4  and  N_5
REMARK    4  A    between atoms: N_5  and  S_6
REMARK    5  A    between atoms: S_6  and  N_9
REMARK    6  A    between atoms: C_14  and  C_15
REMARK    7  A    between atoms: C_14  and  C_16
REMARK    8  A    between atoms: C_17  and  N_18
REMARK    9  A    between atoms: N_18  and  S_19
REMARK   10  A    between atoms: S_19  and  N_22
REMARK                            x       y       z     vdW  Elec       q    Type
REMARK                         _______ _______ _______ _____ _____    ______ ____
ROOT
ATOM      1  C   UNL     1       2.183   9.826  17.882  0.00  0.00    +0.000 C 
ATOM      2  C   UNL     1       1.023   9.522  18.832  0.00  0.00    +0.000 C 
ATOM      3  C   UNL     1      -0.284   9.541  18.030  0.00  0.00    +0.000 C 
ATOM      4  C   UNL     1       1.121   8.258  19.774  0.00  0.00    +0.000 C 
ATOM      5  C   UNL     1       0.690   9.201  20.994  0.00  0.00    +0.000 C 
ATOM      6  C   UNL     1       1.495   9.059  22.294  0.00  0.00    +0.000 C 
ATOM      7  C   UNL     1      -0.800   9.180  21.380  0.00  0.00    +0.000 C 
ATOM      8  C   UNL     1       1.170  10.400  20.116  0.00  0.00    +0.000 C 
ENDROOT
BRANCH   4   9
ATOM      9  N   UNL     1       2.480   7.538  19.845  0.00  0.00    +0.000 NA
ATOM     10  H   UNL     1       2.936   7.764  20.734  0.00  0.00    +0.000 HD
BRANCH   9  11
ATOM     11  S   UNL     1       2.578   5.835  19.760  0.00  0.00    +0.000 S 
ATOM     12  O   UNL     1       3.944   5.498  20.084  0.00  0.00    +0.000 OA
ATOM     13  O   UNL     1       1.473   5.188  20.418  0.00  0.00    +0.000 OA
BRANCH  11  14
ATOM     14  N   UNL     1       2.374   5.582  18.092  0.00  0.00    +0.000 NA
ATOM     15  C   UNL     1       1.532   4.430  17.679  0.00  0.00    +0.000 C 
ATOM     16  C   UNL     1       2.490   3.267  17.522  0.00  0.00    +0.000 C 
ATOM     17  C   UNL     1       3.755   3.909  16.985  0.00  0.00    +0.000 C 
ATOM     18  C   UNL     1       3.700   5.374  17.419  0.00  0.00    +0.000 C 
ENDBRANCH  11  14
ENDBRANCH   9  11
ENDBRANCH   4   9
BRANCH   8  19
ATOM     19  N   UNL     1       0.462  11.737  20.145  0.00  0.00    +0.000 NA
ATOM     20  H   UNL     1      -0.466  11.637  20.564  0.00  0.00    +0.000 HD
BRANCH  19  21
ATOM     21  S   UNL     1       1.185  13.006  21.018  0.00  0.00    +0.000 S 
ATOM     22  O   UNL     1       0.253  13.367  22.060  0.00  0.00    +0.000 OA
ATOM     23  O   UNL     1       2.559  12.689  21.304  0.00  0.00    +0.000 OA
BRANCH  21  24
ATOM     24  N   UNL     1       1.189  14.217  19.854  0.00  0.00    +0.000 NA
ATOM     25  C   UNL     1       1.117  13.740  18.448  0.00  0.00    +0.000 C 
ATOM     26  C   UNL     1       2.560  13.641  17.993  0.00  0.00    +0.000 C 
ATOM     27  C   UNL     1       3.226  14.820  18.673  0.00  0.00    +0.000 C 
ATOM     28  C   UNL     1       2.423  15.067  19.946  0.00  0.00    +0.000 C 
ENDBRANCH  21  24
ENDBRANCH  19  21
ENDBRANCH   8  19
TORSDOF 6
ENDMDL
MODEL 4
REMARK VINA RESULT:      -5.6      7.077      8.571
REMARK  Name = 
REMARK  10 active torsions:
REMARK  status: ('A' for Active; 'I' for Inactive)
REMARK    1  A    between atoms: C_1  and  C_2
REMARK    2  A    between atoms: C_2  and  C_3
REMARK    3  A    between atoms: C_4  and  N_5
REMARK    4  A    between atoms: N_5  and  S_6
REMARK    5  A    between atoms: S_6  and  N_9
REMARK    6  A    between atoms: C_14  and  C_15
REMARK    7  A    between atoms: C_14  and  C_16
REMARK    8  A    between atoms: C_17  and  N_18
REMARK    9  A    between atoms: N_18  and  S_19
REMARK   10  A    between atoms: S_19  and  N_22
REMARK                            x       y       z     vdW  Elec       q    Type
REMARK                         _______ _______ _______ _____ _____    ______ ____
ROOT
ATOM      1  C   UNL     1      -1.900  14.005  22.466  0.00  0.00    +0.000 C 
ATOM      2  C   UNL     1      -1.429  12.724  21.775  0.00  0.00    +0.000 C 
ATOM      3  C   UNL     1      -1.177  11.655  22.844  0.00  0.00    +0.000 C 
ATOM      4  C   UNL     1      -2.270  12.162  20.562  0.00  0.00    +0.000 C 
ATOM      5  C   UNL     1      -0.901  12.036  19.742  0.00  0.00    +0.000 C 
ATOM      6  C   UNL     1      -0.915  12.545  18.292  0.00  0.00    +0.000 C 
ATOM      7  C   UNL     1      -0.239  10.647  19.726  0.00  0.00    +0.000 C 
ATOM      8  C   UNL     1      -0.313  13.081  20.742  0.00  0.00    +0.000 C 
ENDROOT
BRANCH   4   9
ATOM      9  N   UNL     1      -3.384  13.064  20.000  0.00  0.00    +0.000 NA
ATOM     10  H   UNL     1      -3.447  12.930  18.986  0.00  0.00    +0.000 HD
BRANCH   9  11
ATOM     11  S   UNL     1      -4.999  12.901  20.532  0.00  0.00    +0.000 S 
ATOM     12  O   UNL     1      -4.926  12.315  21.850  0.00  0.00    +0.000 OA
ATOM     13  O   UNL     1      -5.781  14.084  20.283  0.00  0.00    +0.000 OA
BRANCH  11  14
ATOM     14  N   UNL     1      -5.569  11.701  19.473  0.00  0.00    +0.000 NA
ATOM     15  C   UNL     1      -4.911  11.601  18.145  0.00  0.00    +0.000 C 
ATOM     16  C   UNL     1      -5.720  12.494  17.227  0.00  0.00    +0.000 C 
ATOM     17  C   UNL     1      -7.143  12.334  17.725  0.00  0.00    +0.000 C 
ATOM     18  C   UNL     1      -7.030  11.894  19.185  0.00  0.00    +0.000 C 
ENDBRANCH  11  14
ENDBRANCH   9  11
ENDBRANCH   4   9
BRANCH   8  19
ATOM     19  N   UNL     1       1.127  13.016  21.203  0.00  0.00    +0.000 NA
ATOM     20  H   UNL     1       1.649  12.344  20.635  0.00  0.00    +0.000 HD
BRANCH  19  21
ATOM     21  S   UNL     1       2.056  14.440  21.132  0.00  0.00    +0.000 S 
ATOM     22  O   UNL     1       1.181  15.473  20.631  0.00  0.00    +0.000 OA
ATOM     23  O   UNL     1       2.804  14.601  22.351  0.00  0.00    +0.000 OA
BRANCH  21  24
ATOM     24  N   UNL     1       3.153  14.031  19.928  0.00  0.00    +0.000 NA
ATOM     25  C   UNL     1       4.379  14.871  19.880  0.00  0.00    +0.000 C 
ATOM     26  C   UNL     1       4.066  15.964  18.878  0.00  0.00    +0.000 C 
ATOM     27  C   UNL     1       3.234  15.254  17.830  0.00  0.00    +0.000 C 
ATOM     28  C   UNL     1       2.533  14.116  18.564  0.00  0.00    +0.000 C 
ENDBRANCH  21  24
ENDBRANCH  19  21
ENDBRANCH   8  19
TORSDOF 6
ENDMDL
MODEL 5
REMARK VINA RESULT:      -5.5      3.213      7.781
REMARK  Name = 
REMARK  10 active torsions:
REMARK  status: ('A' for Active; 'I' for Inactive)
REMARK    1  A    between atoms: C_1  and  C_2
REMARK    2  A    between atoms: C_2  and  C_3
REMARK    3  A    between atoms: C_4  and  N_5
REMARK    4  A    between atoms: N_5  and  S_6
REMARK    5  A    between atoms: S_6  and  N_9
REMARK    6  A    between atoms: C_14  and  C_15
REMARK    7  A    between atoms: C_14  and  C_16
REMARK    8  A    between atoms: C_17  and  N_18
REMARK    9  A    between atoms: N_18  and  S_19
REMARK   10  A    between atoms: S_19  and  N_22
REMARK                            x       y       z     vdW  Elec       q    Type
REMARK                         _______ _______ _______ _____ _____    ______ ____
ROOT
ATOM      1  C   UNL     1       2.284   9.645  17.879  0.00  0.00    +0.000 C 
ATOM      2  C   UNL     1       1.117   9.461  18.852  0.00  0.00    +0.000 C 
ATOM      3  C   UNL     1      -0.196   9.554  18.066  0.00  0.00    +0.000 C 
ATOM      4  C   UNL     1       1.133   8.224  19.834  0.00  0.00    +0.000 C 
ATOM      5  C   UNL     1       0.792   9.236  21.027  0.00  0.00    +0.000 C 
ATOM      6  C   UNL     1       1.604   9.075  22.322  0.00  0.00    +0.000 C 
ATOM      7  C   UNL     1      -0.688   9.341  21.432  0.00  0.00    +0.000 C 
ATOM      8  C   UNL     1       1.349  10.366  20.104  0.00  0.00    +0.000 C 
ENDROOT
BRANCH   4   9
ATOM      9  N   UNL     1       2.435   7.405  19.913  0.00  0.00    +0.000 NA
ATOM     10  H   UNL     1       2.901   7.597  20.804  0.00  0.00    +0.000 HD
BRANCH   9  11
ATOM     11  S   UNL     1       2.407   5.700  19.828  0.00  0.00    +0.000 S 
ATOM     12  O   UNL     1       3.728   5.260  20.211  0.00  0.00    +0.000 OA
ATOM     13  O   UNL     1       1.228   5.139  20.435  0.00  0.00    +0.000 OA
BRANCH  11  14
ATOM     14  N   UNL     1       2.258   5.462  18.152  0.00  0.00    +0.000 NA
ATOM     15  C   UNL     1       1.469   4.287  17.702  0.00  0.00    +0.000 C 
ATOM     16  C   UNL     1       2.472   3.161  17.556  0.00  0.00    +0.000 C 
ATOM     17  C   UNL     1       3.727   3.853  17.063  0.00  0.00    +0.000 C 
ATOM     18  C   UNL     1       3.609   5.309  17.513  0.00  0.00    +0.000 C 
ENDBRANCH  11  14
ENDBRANCH   9  11
ENDBRANCH   4   9
BRANCH   8  19
ATOM     19  N   UNL     1       0.745  11.754  20.098  0.00  0.00    +0.000 NA
ATOM     20  H   UNL     1       0.196  11.904  20.948  0.00  0.00    +0.000 HD
BRANCH  19  21
ATOM     21  S   UNL     1       1.802  13.086  20.037  0.00  0.00    +0.000 S 
ATOM     22  O   UNL     1       2.435  13.164  21.331  0.00  0.00    +0.000 OA
ATOM     23  O   UNL     1       2.565  13.055  18.817  0.00  0.00    +0.000 OA
BRANCH  21  24
ATOM     24  N   UNL     1       0.699  14.346  19.898  0.00  0.00    +0.000 NA
ATOM     25  C   UNL     1       1.050  15.383  18.892  0.00  0.00    +0.000 C 
ATOM     26  C   UNL     1       1.793  16.450  19.672  0.00  0.00    +0.000 C 
ATOM     27  C   UNL     1       1.076  16.476  21.006  0.00  0.00    +0.000 C 
ATOM     28  C   UNL     1       0.521  15.069  21.201  0.00  0.00    +0.000 C 
ENDBRANCH  21  24
ENDBRANCH  19  21
ENDBRANCH   8  19
TORSDOF 6
ENDMDL
MODEL 6
REMARK VINA RESULT:      -5.5      2.962      7.958
REMARK  Name = 
REMARK  10 active torsions:
REMARK  status: ('A' for Active; 'I' for Inactive)
REMARK    1  A    between atoms: C_1  and  C_2
REMARK    2  A    between atoms: C_2  and  C_3
REMARK    3  A    between atoms: C_4  and  N_5
REMARK    4  A    between atoms: N_5  and  S_6
REMARK    5  A    between atoms: S_6  and  N_9
REMARK    6  A    between atoms: C_14  and  C_15
REMARK    7  A    between atoms: C_14  and  C_16
REMARK    8  A    between atoms: C_17  and  N_18
REMARK    9  A    between atoms: N_18  and  S_19
REMARK   10  A    between atoms: S_19  and  N_22
REMARK                            x       y       z     vdW  Elec       q    Type
REMARK                         _______ _______ _______ _____ _____    ______ ____
ROOT
ATOM      1  C   UNL     1       2.098  10.024  17.835  0.00  0.00    +0.000 C 
ATOM      2  C   UNL     1       0.983   9.638  18.809  0.00  0.00    +0.000 C 
ATOM      3  C   UNL     1      -0.359   9.717  18.073  0.00  0.00    +0.000 C 
ATOM      4  C   UNL     1       1.126   8.301  19.638  0.00  0.00    +0.000 C 
ATOM      5  C   UNL     1       0.752   9.138  20.950  0.00  0.00    +0.000 C 
ATOM      6  C   UNL     1       1.617   8.893  22.196  0.00  0.00    +0.000 C 
ATOM      7  C   UNL     1      -0.718   9.079  21.402  0.00  0.00    +0.000 C 
ATOM      8  C   UNL     1       1.190  10.408  20.153  0.00  0.00    +0.000 C 
ENDROOT
BRANCH   4   9
ATOM      9  N   UNL     1       2.487   7.583  19.586  0.00  0.00    +0.000 NA
ATOM     10  H   UNL     1       3.066   7.901  20.369  0.00  0.00    +0.000 HD
BRANCH   9  11
ATOM     11  S   UNL     1       2.587   5.880  19.672  0.00  0.00    +0.000 S 
ATOM     12  O   UNL     1       3.963   5.577  19.986  0.00  0.00    +0.000 OA
ATOM     13  O   UNL     1       1.505   5.304  20.426  0.00  0.00    +0.000 OA
BRANCH  11  14
ATOM     14  N   UNL     1       2.332   5.460  18.045  0.00  0.00    +0.000 NA
ATOM     15  C   UNL     1       1.486   4.269  17.778  0.00  0.00    +0.000 C 
ATOM     16  C   UNL     1       2.447   3.100  17.707  0.00  0.00    +0.000 C 
ATOM     17  C   UNL     1       3.689   3.689  17.068  0.00  0.00    +0.000 C 
ATOM     18  C   UNL     1       3.637   5.190  17.353  0.00  0.00    +0.000 C 
ENDBRANCH  11  14
ENDBRANCH   9  11
ENDBRANCH   4   9
BRANCH   8  19
ATOM     19  N   UNL     1       0.484  11.735  20.325  0.00  0.00    +0.000 NA
ATOM     20  H   UNL     1       0.005  11.766  21.229  0.00  0.00    +0.000 HD
BRANCH  19  21
ATOM     21  S   UNL     1       1.425  13.152  20.297  0.00  0.00    +0.000 S 
ATOM     22  O   UNL     1       2.329  13.064  21.420  0.00  0.00    +0.000 OA
ATOM     23  O   UNL     1       1.895  13.406  18.961  0.00  0.00    +0.000 OA
BRANCH  21  24
ATOM     24  N   UNL     1       0.253  14.306  20.636  0.00  0.00    +0.000 NA
ATOM     25  C   UNL     1       0.280  14.844  22.022  0.00  0.00    +0.000 C 
ATOM     26  C   UNL     1      -0.699  13.983  22.796  0.00  0.00    +0.000 C 
ATOM     27  C   UNL     1      -1.801  13.712  21.792  0.00  0.00    +0.000 C 
ATOM     28  C   UNL     1      -1.131  13.766  20.422  0.00  0.00    +0.000 C 
ENDBRANCH  21  24
ENDBRANCH  19  21
ENDBRANCH   8  19
TORSDOF 6
ENDMDL
MODEL 7
REMARK VINA RESULT:      -5.5      3.133      7.582
REMARK  Name = 
REMARK  10 active torsions:
REMARK  status: ('A' for Active; 'I' for Inactive)
REMARK    1  A    between atoms: C_1  and  C_2
REMARK    2  A    between atoms: C_2  and  C_3
REMARK    3  A    between atoms: C_4  and  N_5
REMARK    4  A    between atoms: N_5  and  S_6
REMARK    5  A    between atoms: S_6  and  N_9
REMARK    6  A    between atoms: C_14  and  C_15
REMARK    7  A    between atoms: C_14  and  C_16
REMARK    8  A    between atoms: C_17  and  N_18
REMARK    9  A    between atoms: N_18  and  S_19
REMARK   10  A    between atoms: S_19  and  N_22
REMARK                            x       y       z     vdW  Elec       q    Type
REMARK                         _______ _______ _______ _____ _____    ______ ____
ROOT
ATOM      1  C   UNL     1       2.467   9.500  17.920  0.00  0.00    +0.000 C 
ATOM      2  C   UNL     1       1.231   9.319  18.803  0.00  0.00    +0.000 C 
ATOM      3  C   UNL     1      -0.014   9.308  17.907  0.00  0.00    +0.000 C 
ATOM      4  C   UNL     1       1.213   8.141  19.855  0.00  0.00    +0.000 C 
ATOM      5  C   UNL     1       0.731   9.201  20.953  0.00  0.00    +0.000 C 
ATOM      6  C   UNL     1       1.436   9.150  22.318  0.00  0.00    +0.000 C 
ATOM      7  C   UNL     1      -0.781   9.262  21.228  0.00  0.00    +0.000 C 
ATOM      8  C   UNL     1       1.318  10.302  20.014  0.00  0.00    +0.000 C 
ENDROOT
BRANCH   4   9
ATOM      9  N   UNL     1       2.535   7.387  20.089  0.00  0.00    +0.000 NA
ATOM     10  H   UNL     1       2.581   7.083  21.066  0.00  0.00    +0.000 HD
BRANCH   9  11
ATOM     11  S   UNL     1       2.910   5.975  19.205  0.00  0.00    +0.000 S 
ATOM     12  O   UNL     1       1.900   5.867  18.179  0.00  0.00    +0.000 OA
ATOM     13  O   UNL     1       4.311   5.882  18.887  0.00  0.00    +0.000 OA
BRANCH  11  14
ATOM     14  N   UNL     1       2.588   4.774  20.364  0.00  0.00    +0.000 NA
ATOM     15  C   UNL     1       3.230   3.450  20.163  0.00  0.00    +0.000 C 
ATOM     16  C   UNL     1       2.236   2.638  19.359  0.00  0.00    +0.000 C 
ATOM     17  C   UNL     1       0.887   3.101  19.874  0.00  0.00    +0.000 C 
ATOM     18  C   UNL     1       1.115   4.498  20.451  0.00  0.00    +0.000 C 
ENDBRANCH  11  14
ENDBRANCH   9  11
ENDBRANCH   4   9
BRANCH   8  19
ATOM     19  N   UNL     1       0.662  11.658  19.875  0.00  0.00    +0.000 NA
ATOM     20  H   UNL     1      -0.356  11.562  19.901  0.00  0.00    +0.000 HD
BRANCH  19  21
ATOM     21  S   UNL     1       1.005  12.838  21.052  0.00  0.00    +0.000 S 
ATOM     22  O   UNL     1       0.026  12.666  22.099  0.00  0.00    +0.000 OA
ATOM     23  O   UNL     1       2.417  12.864  21.328  0.00  0.00    +0.000 OA
BRANCH  21  24
ATOM     24  N   UNL     1       0.642  14.238  20.198  0.00  0.00    +0.000 NA
ATOM     25  C   UNL     1       0.768  14.127  18.721  0.00  0.00    +0.000 C 
ATOM     26  C   UNL     1       2.175  14.600  18.411  0.00  0.00    +0.000 C 
ATOM     27  C   UNL     1       2.397  15.721  19.407  0.00  0.00    +0.000 C 
ATOM     28  C   UNL     1       1.525  15.380  20.610  0.00  0.00    +0.000 C 
ENDBRANCH  21  24
ENDBRANCH  19  21
ENDBRANCH   8  19
TORSDOF 6
ENDMDL
MODEL 8
REMARK VINA RESULT:      -5.5      3.169      7.798
REMARK  Name = 
REMARK  10 active torsions:
REMARK  status: ('A' for Active; 'I' for Inactive)
REMARK    1  A    between atoms: C_1  and  C_2
REMARK    2  A    between atoms: C_2  and  C_3
REMARK    3  A    between atoms: C_4  and  N_5
REMARK    4  A    between atoms: N_5  and  S_6
REMARK    5  A    between atoms: S_6  and  N_9
REMARK    6  A    between atoms: C_14  and  C_15
REMARK    7  A    between atoms: C_14  and  C_16
REMARK    8  A    between atoms: C_17  and  N_18
REMARK    9  A    between atoms: N_18  and  S_19
REMARK   10  A    between atoms: S_19  and  N_22
REMARK                            x       y       z     vdW  Elec       q    Type
REMARK                         _______ _______ _______ _____ _____    ______ ____
ROOT
ATOM      1  C   UNL     1       2.432   9.469  17.831  0.00  0.00    +0.000 C 
ATOM      2  C   UNL     1       1.199   9.309  18.723  0.00  0.00    +0.000 C 
ATOM      3  C   UNL     1      -0.047   9.256  17.830  0.00  0.00    +0.000 C 
ATOM      4  C   UNL     1       1.192   8.168  19.815  0.00  0.00    +0.000 C 
ATOM      5  C   UNL     1       0.704   9.262  20.876  0.00  0.00    +0.000 C 
ATOM      6  C   UNL     1       1.411   9.264  22.241  0.00  0.00    +0.000 C 
ATOM      7  C   UNL     1      -0.809   9.320  21.151  0.00  0.00    +0.000 C 
ATOM      8  C   UNL     1       1.280  10.334  19.898  0.00  0.00    +0.000 C 
ENDROOT
BRANCH   4   9
ATOM      9  N   UNL     1       2.521   7.433  20.073  0.00  0.00    +0.000 NA
ATOM     10  H   UNL     1       2.562   7.146  21.055  0.00  0.00    +0.000 HD
BRANCH   9  11
ATOM     11  S   UNL     1       2.920   6.011  19.215  0.00  0.00    +0.000 S 
ATOM     12  O   UNL     1       1.929   5.883  18.172  0.00  0.00    +0.000 OA
ATOM     13  O   UNL     1       4.327   5.922  18.924  0.00  0.00    +0.000 OA
BRANCH  11  14
ATOM     14  N   UNL     1       2.583   4.824  20.384  0.00  0.00    +0.000 NA
ATOM     15  C   UNL     1       3.235   3.500  20.213  0.00  0.00    +0.000 C 
ATOM     16  C   UNL     1       2.259   2.673  19.402  0.00  0.00    +0.000 C 
ATOM     17  C   UNL     1       0.899   3.136  19.887  0.00  0.00    +0.000 C 
ATOM     18  C   UNL     1       1.110   4.543  20.449  0.00  0.00    +0.000 C 
ENDBRANCH  11  14
ENDBRANCH   9  11
ENDBRANCH   4   9
BRANCH   8  19
ATOM     19  N   UNL     1       0.613  11.679  19.713  0.00  0.00    +0.000 NA
ATOM     20  H   UNL     1      -0.252  11.722  20.258  0.00  0.00    +0.000 HD
BRANCH  19  21
ATOM     21  S   UNL     1       1.474  13.071  20.178  0.00  0.00    +0.000 S 
ATOM     22  O   UNL     1       2.263  12.698  21.327  0.00  0.00    +0.000 OA
ATOM     23  O   UNL     1       2.062  13.696  19.022  0.00  0.00    +0.000 OA
BRANCH  21  24
ATOM     24  N   UNL     1       0.213  14.057  20.685  0.00  0.00    +0.000 NA
ATOM     25  C   UNL     1       0.118  14.253  22.156  0.00  0.00    +0.000 C 
ATOM     26  C   UNL     1      -0.853  13.189  22.631  0.00  0.00    +0.000 C 
ATOM     27  C   UNL     1      -1.870  13.114  21.510  0.00  0.00    +0.000 C 
ATOM     28  C   UNL     1      -1.118  13.520  20.247  0.00  0.00    +0.000 C 
ENDBRANCH  21  24
ENDBRANCH  19  21
ENDBRANCH   8  19
TORSDOF 6
ENDMDL
MODEL 9
REMARK VINA RESULT:      -5.5      3.103      7.909
REMARK  Name = 
REMARK  10 active torsions:
REMARK  status: ('A' for Active; 'I' for Inactive)
REMARK    1  A    between atoms: C_1  and  C_2
REMARK    2  A    between atoms: C_2  and  C_3
REMARK    3  A    between atoms: C_4  and  N_5
REMARK    4  A    between atoms: N_5  and  S_6
REMARK    5  A    between atoms: S_6  and  N_9
REMARK    6  A    between atoms: C_14  and  C_15
REMARK    7  A    between atoms: C_14  and  C_16
REMARK    8  A    between atoms: C_17  and  N_18
REMARK    9  A    between atoms: N_18  and  S_19
REMARK   10  A    between atoms: S_19  and  N_22
REMARK                            x       y       z     vdW  Elec       q    Type
REMARK                         _______ _______ _______ _____ _____    ______ ____
ROOT
ATOM      1  C   UNL     1       1.496  10.572  18.326  0.00  0.00    +0.000 C 
ATOM      2  C   UNL     1       0.595  10.004  19.424  0.00  0.00    +0.000 C 
ATOM      3  C   UNL     1      -0.866  10.148  18.982  0.00  0.00    +0.000 C 
ATOM      4  C   UNL     1       0.902   8.562  19.989  0.00  0.00    +0.000 C 
ATOM      5  C   UNL     1       0.788   9.174  21.464  0.00  0.00    +0.000 C 
ATOM      6  C   UNL     1       1.882   8.771  22.465  0.00  0.00    +0.000 C 
ATOM      7  C   UNL     1      -0.564   8.996  22.176  0.00  0.00    +0.000 C 
ATOM      8  C   UNL     1       1.057  10.565  20.807  0.00  0.00    +0.000 C 
ENDROOT
BRANCH   4   9
ATOM      9  N   UNL     1       2.229   7.907  19.564  0.00  0.00    +0.000 NA
ATOM     10  H   UNL     1       2.991   8.291  20.132  0.00  0.00    +0.000 HD
BRANCH   9  11
ATOM     11  S   UNL     1       2.452   6.217  19.674  0.00  0.00    +0.000 S 
ATOM     12  O   UNL     1       3.829   6.022  20.061  0.00  0.00    +0.000 OA
ATOM     13  O   UNL     1       1.379   5.567  20.378  0.00  0.00    +0.000 OA
BRANCH  11  14
ATOM     14  N   UNL     1       2.314   5.767  18.041  0.00  0.00    +0.000 NA
ATOM     15  C   UNL     1       1.480   4.577  17.735  0.00  0.00    +0.000 C 
ATOM     16  C   UNL     1       2.434   3.400  17.757  0.00  0.00    +0.000 C 
ATOM     17  C   UNL     1       3.725   3.968  17.200  0.00  0.00    +0.000 C 
ATOM     18  C   UNL     1       3.664   5.475  17.453  0.00  0.00    +0.000 C 
ENDBRANCH  11  14
ENDBRANCH   9  11
ENDBRANCH   4   9
BRANCH   8  19
ATOM     19  N   UNL     1       0.393  11.825  21.318  0.00  0.00    +0.000 NA
ATOM     20  H   UNL     1       0.220  11.751  22.323  0.00  0.00    +0.000 HD
BRANCH  19  21
ATOM     21  S   UNL     1       1.227  13.298  21.141  0.00  0.00    +0.000 S 
ATOM     22  O   UNL     1       0.769  14.157  22.207  0.00  0.00    +0.000 OA
ATOM     23  O   UNL     1       2.626  13.048  20.912  0.00  0.00    +0.000 OA
BRANCH  21  24
ATOM     24  N   UNL     1       0.579  13.845  19.691  0.00  0.00    +0.000 NA
ATOM     25  C   UNL     1       1.565  14.411  18.733  0.00  0.00    +0.000 C 
ATOM     26  C   UNL     1       1.566  15.903  19.008  0.00  0.00    +0.000 C 
ATOM     27  C   UNL     1       0.116  16.204  19.329  0.00  0.00    +0.000 C 
ATOM     28  C   UNL     1      -0.450  14.914  19.915  0.00  0.00    +0.000 C 
ENDBRANCH  21  24
ENDBRANCH  19  21
ENDBRANCH   8  19
TORSDOF 6
ENDMDL
