MODEL 1
REMARK VINA RESULT:      -7.1      0.000      0.000
REMARK  Name = 
REMARK  1 active torsions:
REMARK  status: ('A' for Active; 'I' for Inactive)
REMARK    1  A    between atoms: C_1  and  N_2
REMARK                            x       y       z     vdW  Elec       q    Type
REMARK                         _______ _______ _______ _____ _____    ______ ____
ROOT
ATOM      1  C   UNL     1       3.706   1.505  18.244  0.00  0.00    +0.000 C 
ATOM      2  N   UNL     1       2.735   2.387  18.852  0.00  0.00    +0.000 N 
ATOM      3  C   UNL     1       1.837   1.793  19.844  0.00  0.00    +0.000 C 
ATOM      4  C   UNL     1       1.623   2.787  20.982  0.00  0.00    +0.000 C 
ATOM      5  O   UNL     1       2.163   2.685  22.081  0.00  0.00    +0.000 OA
ATOM      6  N   UNL     1       0.820   3.867  20.622  0.00  0.00    +0.000 N 
ATOM      7  C   UNL     1       1.520   4.896  19.931  0.00  0.00    +0.000 A 
ATOM      8  C   UNL     1       1.622   6.145  20.551  0.00  0.00    +0.000 A 
ATOM      9  C   UNL     1       2.237   7.201  19.877  0.00  0.00    +0.000 A 
ATOM     10  C   UNL     1       2.713   7.017  18.582  0.00  0.00    +0.000 A 
ATOM     11  F   UNL     1       3.305   8.032  17.944  0.00  0.00    +0.000 F 
ATOM     12  C   UNL     1       2.617   5.784  17.956  0.00  0.00    +0.000 A 
ATOM     13  C   UNL     1       2.046   4.706  18.643  0.00  0.00    +0.000 A 
ATOM     14  C   UNL     1       2.212   3.373  18.011  0.00  0.00    +0.000 C 
ATOM     15  O   UNL     1       2.110   3.255  16.797  0.00  0.00    +0.000 OA
ATOM     16  H   UNL     1       0.105   3.514  19.989  0.00  0.00    +0.000 HD
ENDROOT
TORSDOF 0
ENDMDL
MODEL 2
REMARK VINA RESULT:      -6.9      2.650      3.820
REMARK  Name = 
REMARK  1 active torsions:
REMARK  status: ('A' for Active; 'I' for Inactive)
REMARK    1  A    between atoms: C_1  and  N_2
REMARK                            x       y       z     vdW  Elec       q    Type
REMARK                         _______ _______ _______ _____ _____    ______ ____
ROOT
ATOM      1  C   UNL     1       2.526   2.855  21.221  0.00  0.00    +0.000 C 
ATOM      2  N   UNL     1       2.945   3.028  19.849  0.00  0.00    +0.000 N 
ATOM      3  C   UNL     1       2.048   2.509  18.816  0.00  0.00    +0.000 C 
ATOM      4  C   UNL     1       2.027   3.478  17.638  0.00  0.00    +0.000 C 
ATOM      5  O   UNL     1       1.098   4.250  17.413  0.00  0.00    +0.000 OA
ATOM      6  N   UNL     1       3.203   3.460  16.893  0.00  0.00    +0.000 N 
ATOM      7  C   UNL     1       4.248   4.250  17.451  0.00  0.00    +0.000 A 
ATOM      8  C   UNL     1       4.689   5.358  16.722  0.00  0.00    +0.000 A 
ATOM      9  C   UNL     1       5.759   6.116  17.199  0.00  0.00    +0.000 A 
ATOM     10  C   UNL     1       6.402   5.748  18.377  0.00  0.00    +0.000 A 
ATOM     11  F   UNL     1       7.424   6.481  18.830  0.00  0.00    +0.000 F 
ATOM     12  C   UNL     1       5.974   4.651  19.110  0.00  0.00    +0.000 A 
ATOM     13  C   UNL     1       4.871   3.914  18.663  0.00  0.00    +0.000 A 
ATOM     14  C   UNL     1       4.321   2.925  19.625  0.00  0.00    +0.000 C 
ATOM     15  O   UNL     1       5.079   2.254  20.313  0.00  0.00    +0.000 OA
ATOM     16  H   UNL     1       3.534   2.497  16.873  0.00  0.00    +0.000 HD
ENDROOT
TORSDOF 0
ENDMDL
MODEL 3
REMARK VINA RESULT:      -6.7      4.108      4.974
REMARK  Name = 
REMARK  1 active torsions:
REMARK  status: ('A' for Active; 'I' for Inactive)
REMARK    1  A    between atoms: C_1  and  N_2
REMARK                            x       y       z     vdW  Elec       q    Type
REMARK                         _______ _______ _______ _____ _____    ______ ____
ROOT
ATOM      1  C   UNL     1       3.771   2.232  19.188  0.00  0.00    +0.000 C 
ATOM      2  N   UNL     1       4.297   3.464  18.645  0.00  0.00    +0.000 N 
ATOM      3  C   UNL     1       4.496   4.566  19.587  0.00  0.00    +0.000 C 
ATOM      4  C   UNL     1       5.785   5.301  19.231  0.00  0.00    +0.000 C 
ATOM      5  O   UNL     1       6.832   5.176  19.863  0.00  0.00    +0.000 OA
ATOM      6  N   UNL     1       5.680   6.061  18.069  0.00  0.00    +0.000 N 
ATOM      7  C   UNL     1       5.846   5.307  16.874  0.00  0.00    +0.000 A 
ATOM      8  C   UNL     1       6.950   5.599  16.067  0.00  0.00    +0.000 A 
ATOM      9  C   UNL     1       7.111   4.933  14.851  0.00  0.00    +0.000 A 
ATOM     10  C   UNL     1       6.158   4.010  14.432  0.00  0.00    +0.000 A 
ATOM     11  F   UNL     1       6.321   3.372  13.268  0.00  0.00    +0.000 F 
ATOM     12  C   UNL     1       5.059   3.711  15.223  0.00  0.00    +0.000 A 
ATOM     13  C   UNL     1       4.915   4.339  16.466  0.00  0.00    +0.000 A 
ATOM     14  C   UNL     1       3.864   3.782  17.355  0.00  0.00    +0.000 C 
ATOM     15  O   UNL     1       2.789   3.431  16.886  0.00  0.00    +0.000 OA
ATOM     16  H   UNL     1       4.740   6.452  18.049  0.00  0.00    +0.000 HD
ENDROOT
TORSDOF 0
ENDMDL
MODEL 4
REMARK VINA RESULT:      -6.7      2.630      3.689
REMARK  Name = 
REMARK  1 active torsions:
REMARK  status: ('A' for Active; 'I' for Inactive)
REMARK    1  A    between atoms: C_1  and  N_2
REMARK                            x       y       z     vdW  Elec       q    Type
REMARK                         _______ _______ _______ _____ _____    ______ ____
ROOT
ATOM      1  C   UNL     1       1.011   4.179  19.927  0.00  0.00    +0.000 C 
ATOM      2  N   UNL     1       2.428   4.039  19.677  0.00  0.00    +0.000 N 
ATOM      3  C   UNL     1       3.108   2.932  20.348  0.00  0.00    +0.000 C 
ATOM      4  C   UNL     1       4.134   2.325  19.395  0.00  0.00    +0.000 C 
ATOM      5  O   UNL     1       3.963   1.260  18.804  0.00  0.00    +0.000 OA
ATOM      6  N   UNL     1       5.247   3.138  19.197  0.00  0.00    +0.000 N 
ATOM      7  C   UNL     1       5.042   4.164  18.232  0.00  0.00    +0.000 A 
ATOM      8  C   UNL     1       5.803   4.120  17.061  0.00  0.00    +0.000 A 
ATOM      9  C   UNL     1       5.686   5.145  16.122  0.00  0.00    +0.000 A 
ATOM     10  C   UNL     1       4.840   6.222  16.370  0.00  0.00    +0.000 A 
ATOM     11  F   UNL     1       4.728   7.199  15.464  0.00  0.00    +0.000 F 
ATOM     12  C   UNL     1       4.079   6.278  17.528  0.00  0.00    +0.000 A 
ATOM     13  C   UNL     1       4.155   5.230  18.453  0.00  0.00    +0.000 A 
ATOM     14  C   UNL     1       3.130   5.238  19.528  0.00  0.00    +0.000 C 
ATOM     15  O   UNL     1       2.802   6.295  20.051  0.00  0.00    +0.000 OA
ATOM     16  H   UNL     1       5.447   3.596  20.084  0.00  0.00    +0.000 HD
ENDROOT
TORSDOF 0
ENDMDL
MODEL 5
REMARK VINA RESULT:      -6.7      3.040      4.525
REMARK  Name = 
REMARK  1 active torsions:
REMARK  status: ('A' for Active; 'I' for Inactive)
REMARK    1  A    between atoms: C_1  and  N_2
REMARK                            x       y       z     vdW  Elec       q    Type
REMARK                         _______ _______ _______ _____ _____    ______ ____
ROOT
ATOM      1  C   UNL     1       3.153   7.169  17.953  0.00  0.00    +0.000 C 
ATOM      2  N   UNL     1       3.606   5.814  18.175  0.00  0.00    +0.000 N 
ATOM      3  C   UNL     1       4.898   5.450  17.592  0.00  0.00    +0.000 C 
ATOM      4  C   UNL     1       5.650   4.549  18.568  0.00  0.00    +0.000 C 
ATOM      5  O   UNL     1       6.587   4.937  19.263  0.00  0.00    +0.000 OA
ATOM      6  N   UNL     1       5.113   3.267  18.656  0.00  0.00    +0.000 N 
ATOM      7  C   UNL     1       3.989   3.174  19.524  0.00  0.00    +0.000 A 
ATOM      8  C   UNL     1       4.115   2.387  20.672  0.00  0.00    +0.000 A 
ATOM      9  C   UNL     1       3.015   2.211  21.512  0.00  0.00    +0.000 A 
ATOM     10  C   UNL     1       1.792   2.790  21.187  0.00  0.00    +0.000 A 
ATOM     11  F   UNL     1       0.743   2.621  21.999  0.00  0.00    +0.000 F 
ATOM     12  C   UNL     1       1.654   3.574  20.052  0.00  0.00    +0.000 A 
ATOM     13  C   UNL     1       2.765   3.795  19.229  0.00  0.00    +0.000 A 
ATOM     14  C   UNL     1       2.603   4.842  18.188  0.00  0.00    +0.000 C 
ATOM     15  O   UNL     1       1.547   4.937  17.577  0.00  0.00    +0.000 OA
ATOM     16  H   UNL     1       4.794   3.009  17.724  0.00  0.00    +0.000 HD
ENDROOT
TORSDOF 0
ENDMDL
MODEL 6
REMARK VINA RESULT:      -6.7      2.401      2.841
REMARK  Name = 
REMARK  1 active torsions:
REMARK  status: ('A' for Active; 'I' for Inactive)
REMARK    1  A    between atoms: C_1  and  N_2
REMARK                            x       y       z     vdW  Elec       q    Type
REMARK                         _______ _______ _______ _____ _____    ______ ____
ROOT
ATOM      1  C   UNL     1       0.442   2.101  18.774  0.00  0.00    +0.000 C 
ATOM      2  N   UNL     1       1.272   3.222  19.156  0.00  0.00    +0.000 N 
ATOM      3  C   UNL     1       0.938   3.888  20.415  0.00  0.00    +0.000 C 
ATOM      4  C   UNL     1       2.228   4.273  21.134  0.00  0.00    +0.000 C 
ATOM      5  O   UNL     1       2.672   3.661  22.104  0.00  0.00    +0.000 OA
ATOM      6  N   UNL     1       2.896   5.335  20.530  0.00  0.00    +0.000 N 
ATOM      7  C   UNL     1       3.697   4.949  19.418  0.00  0.00    +0.000 A 
ATOM      8  C   UNL     1       5.081   5.119  19.521  0.00  0.00    +0.000 A 
ATOM      9  C   UNL     1       5.896   4.822  18.428  0.00  0.00    +0.000 A 
ATOM     10  C   UNL     1       5.327   4.391  17.233  0.00  0.00    +0.000 A 
ATOM     11  F   UNL     1       6.114   4.103  16.191  0.00  0.00    +0.000 F 
ATOM     12  C   UNL     1       3.956   4.218  17.118  0.00  0.00    +0.000 A 
ATOM     13  C   UNL     1       3.136   4.468  18.224  0.00  0.00    +0.000 A 
ATOM     14  C   UNL     1       1.726   4.017  18.101  0.00  0.00    +0.000 C 
ATOM     15  O   UNL     1       1.130   4.157  17.041  0.00  0.00    +0.000 OA
ATOM     16  H   UNL     1       2.188   5.977  20.180  0.00  0.00    +0.000 HD
ENDROOT
TORSDOF 0
ENDMDL
MODEL 7
REMARK VINA RESULT:      -6.6      3.792      5.127
REMARK  Name = 
REMARK  1 active torsions:
REMARK  status: ('A' for Active; 'I' for Inactive)
REMARK    1  A    between atoms: C_1  and  N_2
REMARK                            x       y       z     vdW  Elec       q    Type
REMARK                         _______ _______ _______ _____ _____    ______ ____
ROOT
ATOM      1  C   UNL     1       7.845   4.529  17.625  0.00  0.00    +0.000 C 
ATOM      2  N   UNL     1       6.623   5.289  17.762  0.00  0.00    +0.000 N 
ATOM      3  C   UNL     1       6.591   6.605  17.122  0.00  0.00    +0.000 C 
ATOM      4  C   UNL     1       5.210   6.831  16.514  0.00  0.00    +0.000 C 
ATOM      5  O   UNL     1       4.978   6.746  15.309  0.00  0.00    +0.000 OA
ATOM      6  N   UNL     1       4.222   7.061  17.467  0.00  0.00    +0.000 N 
ATOM      7  C   UNL     1       3.706   5.871  18.055  0.00  0.00    +0.000 A 
ATOM      8  C   UNL     1       2.361   5.562  17.830  0.00  0.00    +0.000 A 
ATOM      9  C   UNL     1       1.797   4.445  18.446  0.00  0.00    +0.000 A 
ATOM     10  C   UNL     1       2.563   3.665  19.307  0.00  0.00    +0.000 A 
ATOM     11  F   UNL     1       2.017   2.592  19.891  0.00  0.00    +0.000 F 
ATOM     12  C   UNL     1       3.897   3.959  19.539  0.00  0.00    +0.000 A 
ATOM     13  C   UNL     1       4.484   5.051  18.887  0.00  0.00    +0.000 A 
ATOM     14  C   UNL     1       5.963   5.145  18.985  0.00  0.00    +0.000 C 
ATOM     15  O   UNL     1       6.524   4.880  20.040  0.00  0.00    +0.000 OA
ATOM     16  H   UNL     1       4.646   7.605  18.216  0.00  0.00    +0.000 HD
ENDROOT
TORSDOF 0
ENDMDL
MODEL 8
REMARK VINA RESULT:      -6.2      1.938      3.249
REMARK  Name = 
REMARK  1 active torsions:
REMARK  status: ('A' for Active; 'I' for Inactive)
REMARK    1  A    between atoms: C_1  and  N_2
REMARK                            x       y       z     vdW  Elec       q    Type
REMARK                         _______ _______ _______ _____ _____    ______ ____
ROOT
ATOM      1  C   UNL     1       0.724   3.167  20.428  0.00  0.00    +0.000 C 
ATOM      2  N   UNL     1       2.108   3.371  20.063  0.00  0.00    +0.000 N 
ATOM      3  C   UNL     1       3.021   2.251  20.293  0.00  0.00    +0.000 C 
ATOM      4  C   UNL     1       4.012   2.168  19.135  0.00  0.00    +0.000 C 
ATOM      5  O   UNL     1       3.938   1.330  18.239  0.00  0.00    +0.000 OA
ATOM      6  N   UNL     1       4.958   3.190  19.149  0.00  0.00    +0.000 N 
ATOM      7  C   UNL     1       4.491   4.411  18.588  0.00  0.00    +0.000 A 
ATOM      8  C   UNL     1       5.111   4.874  17.423  0.00  0.00    +0.000 A 
ATOM      9  C   UNL     1       4.733   6.102  16.881  0.00  0.00    +0.000 A 
ATOM     10  C   UNL     1       3.767   6.876  17.518  0.00  0.00    +0.000 A 
ATOM     11  F   UNL     1       3.406   8.050  16.990  0.00  0.00    +0.000 F 
ATOM     12  C   UNL     1       3.144   6.429  18.673  0.00  0.00    +0.000 A 
ATOM     13  C   UNL     1       3.483   5.176  19.197  0.00  0.00    +0.000 A 
ATOM     14  C   UNL     1       2.598   4.663  20.274  0.00  0.00    +0.000 C 
ATOM     15  O   UNL     1       2.176   5.425  21.133  0.00  0.00    +0.000 OA
ATOM     16  H   UNL     1       5.186   3.376  20.124  0.00  0.00    +0.000 HD
ENDROOT
TORSDOF 0
ENDMDL
MODEL 9
REMARK VINA RESULT:      -6.2      4.062      5.219
REMARK  Name = 
REMARK  1 active torsions:
REMARK  status: ('A' for Active; 'I' for Inactive)
REMARK    1  A    between atoms: C_1  and  N_2
REMARK                            x       y       z     vdW  Elec       q    Type
REMARK                         _______ _______ _______ _____ _____    ______ ____
ROOT
ATOM      1  C   UNL     1       6.778   8.459  17.420  0.00  0.00    +0.000 C 
ATOM      2  N   UNL     1       6.642   7.036  17.637  0.00  0.00    +0.000 N 
ATOM      3  C   UNL     1       7.847   6.315  18.046  0.00  0.00    +0.000 C 
ATOM      4  C   UNL     1       7.470   5.260  19.082  0.00  0.00    +0.000 C 
ATOM      5  O   UNL     1       7.687   5.385  20.286  0.00  0.00    +0.000 OA
ATOM      6  N   UNL     1       6.779   4.180  18.539  0.00  0.00    +0.000 N 
ATOM      7  C   UNL     1       5.387   4.421  18.361  0.00  0.00    +0.000 A 
ATOM      8  C   UNL     1       4.491   3.652  19.109  0.00  0.00    +0.000 A 
ATOM      9  C   UNL     1       3.118   3.806  18.912  0.00  0.00    +0.000 A 
ATOM     10  C   UNL     1       2.649   4.697  17.952  0.00  0.00    +0.000 A 
ATOM     11  F   UNL     1       1.332   4.843  17.771  0.00  0.00    +0.000 F 
ATOM     12  C   UNL     1       3.527   5.466  17.203  0.00  0.00    +0.000 A 
ATOM     13  C   UNL     1       4.904   5.352  17.428  0.00  0.00    +0.000 A 
ATOM     14  C   UNL     1       5.754   6.383  16.778  0.00  0.00    +0.000 C 
ATOM     15  O   UNL     1       5.499   6.756  15.640  0.00  0.00    +0.000 OA
ATOM     16  H   UNL     1       7.172   4.003  17.617  0.00  0.00    +0.000 HD
ENDROOT
TORSDOF 0
ENDMDL
