MODEL 1
REMARK VINA RESULT:      -8.0      0.000      0.000
REMARK  Name = 
REMARK  11 active torsions:
REMARK  status: ('A' for Active; 'I' for Inactive)
REMARK    1  A    between atoms: C_1  and  O_2
REMARK    2  A    between atoms: O_2  and  C_3
REMARK    3  A    between atoms: C_6  and  C_7
REMARK    4  A    between atoms: N_9  and  C_10
REMARK    5  A    between atoms: C_17  and  C_18
REMARK    6  A    between atoms: N_19  and  N_20
REMARK    7  A    between atoms: N_20  and  C_21
REMARK    8  A    between atoms: C_26  and  C_27
REMARK    9  A    between atoms: C_27  and  O_29
REMARK   10  A    between atoms: C_32  and  O_33
REMARK   11  A    between atoms: O_33  and  C_34
REMARK                            x       y       z     vdW  Elec       q    Type
REMARK                         _______ _______ _______ _____ _____    ______ ____
ROOT
ATOM      1  C   UNL     1       5.147   5.464  16.616  0.00  0.00    +0.000 A 
ATOM      2  N   UNL     1       4.735   4.865  15.488  0.00  0.00    +0.000 NA
ATOM      3  N   UNL     1       5.869   4.634  14.767  0.00  0.00    +0.000 N 
ATOM      4  C   UNL     1       6.972   5.144  15.401  0.00  0.00    +0.000 A 
ATOM      5  C   UNL     1       6.546   5.709  16.580  0.00  0.00    +0.000 A 
ENDROOT
BRANCH   1   9
ATOM      6  C   UNL     1       2.405   6.274  19.815  0.00  0.00    +0.000 A 
ATOM      7  C   UNL     1       2.738   7.270  18.880  0.00  0.00    +0.000 A 
ATOM      8  C   UNL     1       3.615   7.012  17.824  0.00  0.00    +0.000 A 
ATOM      9  C   UNL     1       4.223   5.765  17.716  0.00  0.00    +0.000 A 
ATOM     10  C   UNL     1       3.935   4.798  18.691  0.00  0.00    +0.000 A 
ATOM     11  C   UNL     1       3.063   5.042  19.760  0.00  0.00    +0.000 A 
BRANCH   6  13
ATOM     12  C   UNL     1       1.090   7.878  20.930  0.00  0.00    +0.000 C 
ATOM     13  O   UNL     1       1.449   6.502  20.767  0.00  0.00    +0.000 OA
ENDBRANCH   6  13
BRANCH  11  14
ATOM     14  O   UNL     1       2.989   3.964  20.598  0.00  0.00    +0.000 OA
ATOM     15  C   UNL     1       1.978   2.989  20.402  0.00  0.00    +0.000 C 
ENDBRANCH  11  14
ENDBRANCH   1   9
BRANCH   3  16
ATOM     16  C   UNL     1       5.840   3.950  13.524  0.00  0.00    +0.000 A 
ATOM     17  C   UNL     1       7.037   3.609  12.881  0.00  0.00    +0.000 A 
ATOM     18  C   UNL     1       7.017   2.947  11.648  0.00  0.00    +0.000 A 
ATOM     19  C   UNL     1       5.792   2.626  11.049  0.00  0.00    +0.000 A 
ATOM     20  C   UNL     1       4.600   2.962  11.680  0.00  0.00    +0.000 A 
ATOM     21  C   UNL     1       4.621   3.621  12.910  0.00  0.00    +0.000 A 
ENDBRANCH   3  16
BRANCH   5  22
ATOM     22  C   UNL     1       7.362   6.377  17.557  0.00  0.00    +0.000 C 
ATOM     23  N   UNL     1       7.540   7.655  17.475  0.00  0.00    +0.000 NA
BRANCH  23  24
ATOM     24  N   UNL     1       8.409   8.147  18.390  0.00  0.00    +0.000 N 
ATOM     25  H   UNL     1       8.847   7.559  19.095  0.00  0.00    +0.000 HD
BRANCH  24  26
ATOM     26  C   UNL     1       8.659   9.520  18.461  0.00  0.00    +0.000 A 
ATOM     27  C   UNL     1       8.078  10.364  17.508  0.00  0.00    +0.000 A 
ATOM     28  C   UNL     1       8.302  11.740  17.536  0.00  0.00    +0.000 A 
ATOM     29  C   UNL     1       9.114  12.302  18.525  0.00  0.00    +0.000 A 
ATOM     30 CL   UNL     1       9.354  14.011  18.444  0.00  0.00    +0.000 Cl
ATOM     31  C   UNL     1       9.694  11.484  19.503  0.00  0.00    +0.000 A 
ATOM     32  C   UNL     1       9.453  10.098  19.462  0.00  0.00    +0.000 A 
BRANCH  31  33
ATOM     33  C   UNL     1      10.600  11.961  20.581  0.00  0.00    +0.000 C 
ATOM     34  O   UNL     1      11.799  12.111  20.402  0.00  0.00    +0.000 OA
BRANCH  33  35
ATOM     35  O   UNL     1      10.030  12.141  21.789  0.00  0.00    +0.000 OA
ATOM     36  H   UNL     1       9.543  12.981  21.900  0.00  0.00    +0.000 HD
ENDBRANCH  33  35
ENDBRANCH  31  33
ENDBRANCH  24  26
ENDBRANCH  23  24
ENDBRANCH   5  22
TORSDOF 9
ENDMDL
MODEL 2
REMARK VINA RESULT:      -8.0      0.797      1.840
REMARK  Name = 
REMARK  11 active torsions:
REMARK  status: ('A' for Active; 'I' for Inactive)
REMARK    1  A    between atoms: C_1  and  O_2
REMARK    2  A    between atoms: O_2  and  C_3
REMARK    3  A    between atoms: C_6  and  C_7
REMARK    4  A    between atoms: N_9  and  C_10
REMARK    5  A    between atoms: C_17  and  C_18
REMARK    6  A    between atoms: N_19  and  N_20
REMARK    7  A    between atoms: N_20  and  C_21
REMARK    8  A    between atoms: C_26  and  C_27
REMARK    9  A    between atoms: C_27  and  O_29
REMARK   10  A    between atoms: C_32  and  O_33
REMARK   11  A    between atoms: O_33  and  C_34
REMARK                            x       y       z     vdW  Elec       q    Type
REMARK                         _______ _______ _______ _____ _____    ______ ____
ROOT
ATOM      1  C   UNL     1       5.244   4.842  17.082  0.00  0.00    +0.000 A 
ATOM      2  N   UNL     1       4.989   4.264  15.896  0.00  0.00    +0.000 NA
ATOM      3  N   UNL     1       6.016   4.640  15.084  0.00  0.00    +0.000 N 
ATOM      4  C   UNL     1       6.869   5.499  15.727  0.00  0.00    +0.000 A 
ATOM      5  C   UNL     1       6.392   5.675  17.004  0.00  0.00    +0.000 A 
ENDROOT
BRANCH   1   9
ATOM      6  C   UNL     1       2.870   4.124  20.581  0.00  0.00    +0.000 A 
ATOM      7  C   UNL     1       3.662   3.104  20.025  0.00  0.00    +0.000 A 
ATOM      8  C   UNL     1       4.453   3.332  18.896  0.00  0.00    +0.000 A 
ATOM      9  C   UNL     1       4.423   4.573  18.268  0.00  0.00    +0.000 A 
ATOM     10  C   UNL     1       3.580   5.564  18.792  0.00  0.00    +0.000 A 
ATOM     11  C   UNL     1       2.774   5.351  19.918  0.00  0.00    +0.000 A 
BRANCH   6  13
ATOM     12  C   UNL     1       1.409   2.731  21.796  0.00  0.00    +0.000 C 
ATOM     13  O   UNL     1       2.200   3.924  21.758  0.00  0.00    +0.000 OA
ENDBRANCH   6  13
BRANCH  11  14
ATOM     14  O   UNL     1       2.009   6.448  20.199  0.00  0.00    +0.000 OA
ATOM     15  C   UNL     1       2.179   7.636  19.442  0.00  0.00    +0.000 C 
ENDBRANCH  11  14
ENDBRANCH   1   9
BRANCH   3  16
ATOM     16  C   UNL     1       6.127   4.169  13.750  0.00  0.00    +0.000 A 
ATOM     17  C   UNL     1       7.269   4.461  12.992  0.00  0.00    +0.000 A 
ATOM     18  C   UNL     1       7.380   4.012  11.672  0.00  0.00    +0.000 A 
ATOM     19  C   UNL     1       6.340   3.267  11.100  0.00  0.00    +0.000 A 
ATOM     20  C   UNL     1       5.204   2.973  11.843  0.00  0.00    +0.000 A 
ATOM     21  C   UNL     1       5.094   3.421  13.161  0.00  0.00    +0.000 A 
ENDBRANCH   3  16
BRANCH   5  22
ATOM     22  C   UNL     1       6.963   6.507  18.027  0.00  0.00    +0.000 C 
ATOM     23  N   UNL     1       7.884   7.362  17.716  0.00  0.00    +0.000 NA
BRANCH  23  24
ATOM     24  N   UNL     1       8.411   8.011  18.781  0.00  0.00    +0.000 N 
ATOM     25  H   UNL     1       8.555   7.555  19.679  0.00  0.00    +0.000 HD
BRANCH  24  26
ATOM     26  C   UNL     1       8.686   9.380  18.710  0.00  0.00    +0.000 A 
ATOM     27  C   UNL     1       8.131  10.127  17.666  0.00  0.00    +0.000 A 
ATOM     28  C   UNL     1       8.381  11.495  17.551  0.00  0.00    +0.000 A 
ATOM     29  C   UNL     1       9.191  12.144  18.486  0.00  0.00    +0.000 A 
ATOM     30 CL   UNL     1       9.464  13.831  18.228  0.00  0.00    +0.000 Cl
ATOM     31  C   UNL     1       9.745  11.425  19.552  0.00  0.00    +0.000 A 
ATOM     32  C   UNL     1       9.479  10.046  19.655  0.00  0.00    +0.000 A 
BRANCH  31  33
ATOM     33  C   UNL     1      10.648  11.997  20.586  0.00  0.00    +0.000 C 
ATOM     34  O   UNL     1      11.816  12.262  20.352  0.00  0.00    +0.000 OA
BRANCH  33  35
ATOM     35  O   UNL     1      10.118  12.131  21.818  0.00  0.00    +0.000 OA
ATOM     36  H   UNL     1       9.586  12.938  21.958  0.00  0.00    +0.000 HD
ENDBRANCH  33  35
ENDBRANCH  31  33
ENDBRANCH  24  26
ENDBRANCH  23  24
ENDBRANCH   5  22
TORSDOF 9
ENDMDL
MODEL 3
REMARK VINA RESULT:      -7.7      6.142     10.905
REMARK  Name = 
REMARK  11 active torsions:
REMARK  status: ('A' for Active; 'I' for Inactive)
REMARK    1  A    between atoms: C_1  and  O_2
REMARK    2  A    between atoms: O_2  and  C_3
REMARK    3  A    between atoms: C_6  and  C_7
REMARK    4  A    between atoms: N_9  and  C_10
REMARK    5  A    between atoms: C_17  and  C_18
REMARK    6  A    between atoms: N_19  and  N_20
REMARK    7  A    between atoms: N_20  and  C_21
REMARK    8  A    between atoms: C_26  and  C_27
REMARK    9  A    between atoms: C_27  and  O_29
REMARK   10  A    between atoms: C_32  and  O_33
REMARK   11  A    between atoms: O_33  and  C_34
REMARK                            x       y       z     vdW  Elec       q    Type
REMARK                         _______ _______ _______ _____ _____    ______ ____
ROOT
ATOM      1  C   UNL     1       0.179  12.059  19.134  0.00  0.00    +0.000 A 
ATOM      2  N   UNL     1      -1.009  12.606  18.832  0.00  0.00    +0.000 NA
ATOM      3  N   UNL     1      -1.881  11.561  18.764  0.00  0.00    +0.000 N 
ATOM      4  C   UNL     1      -1.238  10.365  18.951  0.00  0.00    +0.000 A 
ATOM      5  C   UNL     1       0.092  10.641  19.165  0.00  0.00    +0.000 A 
ENDROOT
BRANCH   1   9
ATOM      6  C   UNL     1       3.674  14.425  19.903  0.00  0.00    +0.000 A 
ATOM      7  C   UNL     1       3.009  13.759  20.948  0.00  0.00    +0.000 A 
ATOM      8  C   UNL     1       1.880  12.972  20.706  0.00  0.00    +0.000 A 
ATOM      9  C   UNL     1       1.361  12.880  19.418  0.00  0.00    +0.000 A 
ATOM     10  C   UNL     1       1.994  13.600  18.393  0.00  0.00    +0.000 A 
ATOM     11  C   UNL     1       3.121  14.401  18.619  0.00  0.00    +0.000 A 
BRANCH   6  13
ATOM     12  C   UNL     1       5.118  15.355  21.514  0.00  0.00    +0.000 C 
ATOM     13  O   UNL     1       4.848  15.088  20.134  0.00  0.00    +0.000 OA
ENDBRANCH   6  13
BRANCH  11  14
ATOM     14  O   UNL     1       3.517  15.037  17.476  0.00  0.00    +0.000 OA
ATOM     15  C   UNL     1       3.184  16.402  17.280  0.00  0.00    +0.000 C 
ENDBRANCH  11  14
ENDBRANCH   1   9
BRANCH   3  16
ATOM     16  C   UNL     1      -3.266  11.755  18.523  0.00  0.00    +0.000 A 
ATOM     17  C   UNL     1      -3.822  11.399  17.288  0.00  0.00    +0.000 A 
ATOM     18  C   UNL     1      -5.185  11.600  17.038  0.00  0.00    +0.000 A 
ATOM     19  C   UNL     1      -5.998  12.167  18.027  0.00  0.00    +0.000 A 
ATOM     20  C   UNL     1      -5.455  12.524  19.255  0.00  0.00    +0.000 A 
ATOM     21  C   UNL     1      -4.096  12.322  19.504  0.00  0.00    +0.000 A 
ENDBRANCH   3  16
BRANCH   5  22
ATOM     22  C   UNL     1       1.141   9.685  19.391  0.00  0.00    +0.000 C 
ATOM     23  N   UNL     1       0.986   8.766  20.288  0.00  0.00    +0.000 NA
BRANCH  23  24
ATOM     24  N   UNL     1       2.082   7.994  20.477  0.00  0.00    +0.000 N 
ATOM     25  H   UNL     1       2.889   8.316  21.006  0.00  0.00    +0.000 HD
BRANCH  24  26
ATOM     26  C   UNL     1       2.185   6.747  19.854  0.00  0.00    +0.000 A 
ATOM     27  C   UNL     1       2.843   6.657  18.624  0.00  0.00    +0.000 A 
ATOM     28  C   UNL     1       2.966   5.435  17.963  0.00  0.00    +0.000 A 
ATOM     29  C   UNL     1       2.433   4.273  18.526  0.00  0.00    +0.000 A 
ATOM     30 CL   UNL     1       2.610   2.821  17.605  0.00  0.00    +0.000 Cl
ATOM     31  C   UNL     1       1.786   4.329  19.766  0.00  0.00    +0.000 A 
ATOM     32  C   UNL     1       1.674   5.570  20.421  0.00  0.00    +0.000 A 
BRANCH  31  33
ATOM     33  C   UNL     1       1.150   3.169  20.446  0.00  0.00    +0.000 C 
ATOM     34  O   UNL     1       1.611   2.683  21.467  0.00  0.00    +0.000 OA
BRANCH  33  35
ATOM     35  O   UNL     1       0.079   2.638  19.823  0.00  0.00    +0.000 OA
ATOM     36  H   UNL     1      -0.779   2.791  20.264  0.00  0.00    +0.000 HD
ENDBRANCH  33  35
ENDBRANCH  31  33
ENDBRANCH  24  26
ENDBRANCH  23  24
ENDBRANCH   5  22
TORSDOF 9
ENDMDL
MODEL 4
REMARK VINA RESULT:      -7.7      5.934     10.137
REMARK  Name = 
REMARK  11 active torsions:
REMARK  status: ('A' for Active; 'I' for Inactive)
REMARK    1  A    between atoms: C_1  and  O_2
REMARK    2  A    between atoms: O_2  and  C_3
REMARK    3  A    between atoms: C_6  and  C_7
REMARK    4  A    between atoms: N_9  and  C_10
REMARK    5  A    between atoms: C_17  and  C_18
REMARK    6  A    between atoms: N_19  and  N_20
REMARK    7  A    between atoms: N_20  and  C_21
REMARK    8  A    between atoms: C_26  and  C_27
REMARK    9  A    between atoms: C_27  and  O_29
REMARK   10  A    between atoms: C_32  and  O_33
REMARK   11  A    between atoms: O_33  and  C_34
REMARK                            x       y       z     vdW  Elec       q    Type
REMARK                         _______ _______ _______ _____ _____    ______ ____
ROOT
ATOM      1  C   UNL     1      -0.244  12.082  18.530  0.00  0.00    +0.000 A 
ATOM      2  N   UNL     1       0.218  13.343  18.541  0.00  0.00    +0.000 NA
ATOM      3  N   UNL     1       1.576  13.229  18.585  0.00  0.00    +0.000 N 
ATOM      4  C   UNL     1       1.962  11.917  18.670  0.00  0.00    +0.000 A 
ATOM      5  C   UNL     1       0.820  11.151  18.665  0.00  0.00    +0.000 A 
ENDROOT
BRANCH   1   9
ATOM      6  C   UNL     1      -4.409  11.229  17.960  0.00  0.00    +0.000 A 
ATOM      7  C   UNL     1      -3.962  11.914  19.104  0.00  0.00    +0.000 A 
ATOM      8  C   UNL     1      -2.611  12.213  19.291  0.00  0.00    +0.000 A 
ATOM      9  C   UNL     1      -1.670  11.781  18.361  0.00  0.00    +0.000 A 
ATOM     10  C   UNL     1      -2.117  11.043  17.255  0.00  0.00    +0.000 A 
ATOM     11  C   UNL     1      -3.468  10.728  17.056  0.00  0.00    +0.000 A 
BRANCH   6  13
ATOM     12  C   UNL     1      -6.475  10.511  18.833  0.00  0.00    +0.000 C 
ATOM     13  O   UNL     1      -5.747  11.056  17.728  0.00  0.00    +0.000 OA
ENDBRANCH   6  13
BRANCH  11  14
ATOM     14  O   UNL     1      -3.641   9.959  15.938  0.00  0.00    +0.000 OA
ATOM     15  C   UNL     1      -2.871  10.225  14.777  0.00  0.00    +0.000 C 
ENDBRANCH  11  14
ENDBRANCH   1   9
BRANCH   3  16
ATOM     16  C   UNL     1       2.425  14.366  18.546  0.00  0.00    +0.000 A 
ATOM     17  C   UNL     1       1.961  15.606  19.003  0.00  0.00    +0.000 A 
ATOM     18  C   UNL     1       2.788  16.735  18.956  0.00  0.00    +0.000 A 
ATOM     19  C   UNL     1       4.087  16.626  18.443  0.00  0.00    +0.000 A 
ATOM     20  C   UNL     1       4.554  15.400  17.987  0.00  0.00    +0.000 A 
ATOM     21  C   UNL     1       3.730  14.275  18.036  0.00  0.00    +0.000 A 
ENDBRANCH   3  16
BRANCH   5  22
ATOM     22  C   UNL     1       0.748   9.718  18.754  0.00  0.00    +0.000 C 
ATOM     23  N   UNL     1       1.778   9.049  19.159  0.00  0.00    +0.000 NA
BRANCH  23  24
ATOM     24  N   UNL     1       1.618   7.706  19.100  0.00  0.00    +0.000 N 
ATOM     25  H   UNL     1       0.884   7.224  19.612  0.00  0.00    +0.000 HD
BRANCH  24  26
ATOM     26  C   UNL     1       2.536   6.914  18.404  0.00  0.00    +0.000 A 
ATOM     27  C   UNL     1       3.561   7.539  17.687  0.00  0.00    +0.000 A 
ATOM     28  C   UNL     1       4.497   6.791  16.974  0.00  0.00    +0.000 A 
ATOM     29  C   UNL     1       4.427   5.395  16.967  0.00  0.00    +0.000 A 
ATOM     30 CL   UNL     1       5.613   4.569  16.021  0.00  0.00    +0.000 Cl
ATOM     31  C   UNL     1       3.422   4.742  17.691  0.00  0.00    +0.000 A 
ATOM     32  C   UNL     1       2.488   5.513  18.409  0.00  0.00    +0.000 A 
BRANCH  31  33
ATOM     33  C   UNL     1       3.225   3.268  17.732  0.00  0.00    +0.000 C 
ATOM     34  O   UNL     1       2.208   2.738  17.312  0.00  0.00    +0.000 OA
BRANCH  33  35
ATOM     35  O   UNL     1       4.204   2.562  18.332  0.00  0.00    +0.000 OA
ATOM     36  H   UNL     1       4.542   2.942  19.166  0.00  0.00    +0.000 HD
ENDBRANCH  33  35
ENDBRANCH  31  33
ENDBRANCH  24  26
ENDBRANCH  23  24
ENDBRANCH   5  22
TORSDOF 9
ENDMDL
MODEL 5
REMARK VINA RESULT:      -7.6      6.086     10.754
REMARK  Name = 
REMARK  11 active torsions:
REMARK  status: ('A' for Active; 'I' for Inactive)
REMARK    1  A    between atoms: C_1  and  O_2
REMARK    2  A    between atoms: O_2  and  C_3
REMARK    3  A    between atoms: C_6  and  C_7
REMARK    4  A    between atoms: N_9  and  C_10
REMARK    5  A    between atoms: C_17  and  C_18
REMARK    6  A    between atoms: N_19  and  N_20
REMARK    7  A    between atoms: N_20  and  C_21
REMARK    8  A    between atoms: C_26  and  C_27
REMARK    9  A    between atoms: C_27  and  O_29
REMARK   10  A    between atoms: C_32  and  O_33
REMARK   11  A    between atoms: O_33  and  C_34
REMARK                            x       y       z     vdW  Elec       q    Type
REMARK                         _______ _______ _______ _____ _____    ______ ____
ROOT
ATOM      1  C   UNL     1       0.400  12.273  18.884  0.00  0.00    +0.000 A 
ATOM      2  N   UNL     1      -0.848  12.747  18.742  0.00  0.00    +0.000 NA
ATOM      3  N   UNL     1      -1.629  11.650  18.533  0.00  0.00    +0.000 N 
ATOM      4  C   UNL     1      -0.875  10.507  18.474  0.00  0.00    +0.000 A 
ATOM      5  C   UNL     1       0.438  10.869  18.668  0.00  0.00    +0.000 A 
ENDROOT
BRANCH   1   9
ATOM      6  C   UNL     1       3.726  14.788  19.893  0.00  0.00    +0.000 A 
ATOM      7  C   UNL     1       3.061  14.040  20.880  0.00  0.00    +0.000 A 
ATOM      8  C   UNL     1       1.988  13.204  20.560  0.00  0.00    +0.000 A 
ATOM      9  C   UNL     1       1.523  13.143  19.250  0.00  0.00    +0.000 A 
ATOM     10  C   UNL     1       2.152  13.942  18.283  0.00  0.00    +0.000 A 
ATOM     11  C   UNL     1       3.224  14.792  18.588  0.00  0.00    +0.000 A 
BRANCH   6  13
ATOM     12  C   UNL     1       6.080  14.842  19.877  0.00  0.00    +0.000 C 
ATOM     13  O   UNL     1       4.853  15.502  20.199  0.00  0.00    +0.000 OA
ENDBRANCH   6  13
BRANCH  11  14
ATOM     14  O   UNL     1       3.626  15.500  17.490  0.00  0.00    +0.000 OA
ATOM     15  C   UNL     1       2.994  16.730  17.177  0.00  0.00    +0.000 C 
ENDBRANCH  11  14
ENDBRANCH   1   9
BRANCH   3  16
ATOM     16  C   UNL     1      -3.039  11.749  18.398  0.00  0.00    +0.000 A 
ATOM     17  C   UNL     1      -3.817  12.213  19.466  0.00  0.00    +0.000 A 
ATOM     18  C   UNL     1      -5.209  12.300  19.345  0.00  0.00    +0.000 A 
ATOM     19  C   UNL     1      -5.830  11.916  18.150  0.00  0.00    +0.000 A 
ATOM     20  C   UNL     1      -5.065  11.454  17.085  0.00  0.00    +0.000 A 
ATOM     21  C   UNL     1      -3.677  11.369  17.206  0.00  0.00    +0.000 A 
ENDBRANCH   3  16
BRANCH   5  22
ATOM     22  C   UNL     1       1.578   9.994  18.671  0.00  0.00    +0.000 C 
ATOM     23  N   UNL     1       1.604   8.976  17.873  0.00  0.00    +0.000 NA
BRANCH  23  24
ATOM     24  N   UNL     1       2.682   8.174  18.044  0.00  0.00    +0.000 N 
ATOM     25  H   UNL     1       3.602   8.418  17.687  0.00  0.00    +0.000 HD
BRANCH  24  26
ATOM     26  C   UNL     1       2.540   6.916  18.636  0.00  0.00    +0.000 A 
ATOM     27  C   UNL     1       2.084   6.838  19.956  0.00  0.00    +0.000 A 
ATOM     28  C   UNL     1       1.932   5.605  20.591  0.00  0.00    +0.000 A 
ATOM     29  C   UNL     1       2.231   4.421  19.912  0.00  0.00    +0.000 A 
ATOM     30 CL   UNL     1       2.042   2.953  20.805  0.00  0.00    +0.000 Cl
ATOM     31  C   UNL     1       2.671   4.468  18.584  0.00  0.00    +0.000 A 
ATOM     32  C   UNL     1       2.816   5.720  17.957  0.00  0.00    +0.000 A 
BRANCH  31  33
ATOM     33  C   UNL     1       3.052   3.281  17.772  0.00  0.00    +0.000 C 
ATOM     34  O   UNL     1       2.223   2.596  17.195  0.00  0.00    +0.000 OA
BRANCH  33  35
ATOM     35  O   UNL     1       4.363   2.963  17.779  0.00  0.00    +0.000 OA
ATOM     36  H   UNL     1       4.726   2.672  16.920  0.00  0.00    +0.000 HD
ENDBRANCH  33  35
ENDBRANCH  31  33
ENDBRANCH  24  26
ENDBRANCH  23  24
ENDBRANCH   5  22
TORSDOF 9
ENDMDL
MODEL 6
REMARK VINA RESULT:      -7.6      6.292      9.770
REMARK  Name = 
REMARK  11 active torsions:
REMARK  status: ('A' for Active; 'I' for Inactive)
REMARK    1  A    between atoms: C_1  and  O_2
REMARK    2  A    between atoms: O_2  and  C_3
REMARK    3  A    between atoms: C_6  and  C_7
REMARK    4  A    between atoms: N_9  and  C_10
REMARK    5  A    between atoms: C_17  and  C_18
REMARK    6  A    between atoms: N_19  and  N_20
REMARK    7  A    between atoms: N_20  and  C_21
REMARK    8  A    between atoms: C_26  and  C_27
REMARK    9  A    between atoms: C_27  and  O_29
REMARK   10  A    between atoms: C_32  and  O_33
REMARK   11  A    between atoms: O_33  and  C_34
REMARK                            x       y       z     vdW  Elec       q    Type
REMARK                         _______ _______ _______ _____ _____    ______ ____
ROOT
ATOM      1  C   UNL     1       1.501   9.378  19.183  0.00  0.00    +0.000 A 
ATOM      2  N   UNL     1       2.100   8.614  18.254  0.00  0.00    +0.000 NA
ATOM      3  N   UNL     1       2.285   7.402  18.849  0.00  0.00    +0.000 N 
ATOM      4  C   UNL     1       1.872   7.422  20.156  0.00  0.00    +0.000 A 
ATOM      5  C   UNL     1       1.387   8.682  20.416  0.00  0.00    +0.000 A 
ENDROOT
BRANCH   1   9
ATOM      6  C   UNL     1       0.144  13.363  18.361  0.00  0.00    +0.000 A 
ATOM      7  C   UNL     1      -0.768  12.298  18.469  0.00  0.00    +0.000 A 
ATOM      8  C   UNL     1      -0.339  11.000  18.754  0.00  0.00    +0.000 A 
ATOM      9  C   UNL     1       1.021  10.731  18.881  0.00  0.00    +0.000 A 
ATOM     10  C   UNL     1       1.927  11.788  18.708  0.00  0.00    +0.000 A 
ATOM     11  C   UNL     1       1.515  13.094  18.414  0.00  0.00    +0.000 A 
BRANCH   6  13
ATOM     12  C   UNL     1      -0.597  15.325  19.434  0.00  0.00    +0.000 C 
ATOM     13  O   UNL     1      -0.300  14.649  18.208  0.00  0.00    +0.000 OA
ENDBRANCH   6  13
BRANCH  11  14
ATOM     14  O   UNL     1       2.584  13.928  18.242  0.00  0.00    +0.000 OA
ATOM     15  C   UNL     1       3.077  14.675  19.342  0.00  0.00    +0.000 C 
ENDBRANCH  11  14
ENDBRANCH   1   9
BRANCH   3  16
ATOM     16  C   UNL     1       2.843   6.301  18.148  0.00  0.00    +0.000 A 
ATOM     17  C   UNL     1       2.169   5.074  18.114  0.00  0.00    +0.000 A 
ATOM     18  C   UNL     1       2.719   3.980  17.436  0.00  0.00    +0.000 A 
ATOM     19  C   UNL     1       3.956   4.110  16.791  0.00  0.00    +0.000 A 
ATOM     20  C   UNL     1       4.632   5.324  16.821  0.00  0.00    +0.000 A 
ATOM     21  C   UNL     1       4.082   6.415  17.495  0.00  0.00    +0.000 A 
ENDBRANCH   3  16
BRANCH   5  22
ATOM     22  C   UNL     1       0.862   9.158  21.666  0.00  0.00    +0.000 C 
ATOM     23  N   UNL     1      -0.139   9.977  21.670  0.00  0.00    +0.000 NA
BRANCH  23  24
ATOM     24  N   UNL     1      -0.473  10.431  22.901  0.00  0.00    +0.000 N 
ATOM     25  H   UNL     1      -0.220   9.932  23.751  0.00  0.00    +0.000 HD
BRANCH  24  26
ATOM     26  C   UNL     1      -1.277  11.565  23.042  0.00  0.00    +0.000 A 
ATOM     27  C   UNL     1      -0.785  12.801  22.611  0.00  0.00    +0.000 A 
ATOM     28  C   UNL     1      -1.550  13.961  22.736  0.00  0.00    +0.000 A 
ATOM     29  C   UNL     1      -2.829  13.905  23.295  0.00  0.00    +0.000 A 
ATOM     30 CL   UNL     1      -3.674  15.406  23.436  0.00  0.00    +0.000 Cl
ATOM     31  C   UNL     1      -3.355  12.678  23.717  0.00  0.00    +0.000 A 
ATOM     32  C   UNL     1      -2.572  11.516  23.580  0.00  0.00    +0.000 A 
BRANCH  31  33
ATOM     33  C   UNL     1      -4.686  12.498  24.356  0.00  0.00    +0.000 C 
ATOM     34  O   UNL     1      -5.724  12.532  23.715  0.00  0.00    +0.000 OA
BRANCH  33  35
ATOM     35  O   UNL     1      -4.680  12.375  25.699  0.00  0.00    +0.000 OA
ATOM     36  H   UNL     1      -3.796  12.373  26.114  0.00  0.00    +0.000 HD
ENDBRANCH  33  35
ENDBRANCH  31  33
ENDBRANCH  24  26
ENDBRANCH  23  24
ENDBRANCH   5  22
TORSDOF 9
ENDMDL
MODEL 7
REMARK VINA RESULT:      -7.6      6.147     10.850
REMARK  Name = 
REMARK  11 active torsions:
REMARK  status: ('A' for Active; 'I' for Inactive)
REMARK    1  A    between atoms: C_1  and  O_2
REMARK    2  A    between atoms: O_2  and  C_3
REMARK    3  A    between atoms: C_6  and  C_7
REMARK    4  A    between atoms: N_9  and  C_10
REMARK    5  A    between atoms: C_17  and  C_18
REMARK    6  A    between atoms: N_19  and  N_20
REMARK    7  A    between atoms: N_20  and  C_21
REMARK    8  A    between atoms: C_26  and  C_27
REMARK    9  A    between atoms: C_27  and  O_29
REMARK   10  A    between atoms: C_32  and  O_33
REMARK   11  A    between atoms: O_33  and  C_34
REMARK                            x       y       z     vdW  Elec       q    Type
REMARK                         _______ _______ _______ _____ _____    ______ ____
ROOT
ATOM      1  C   UNL     1       0.237  12.190  19.017  0.00  0.00    +0.000 A 
ATOM      2  N   UNL     1      -0.976  12.687  18.723  0.00  0.00    +0.000 NA
ATOM      3  N   UNL     1      -1.827  11.625  18.788  0.00  0.00    +0.000 N 
ATOM      4  C   UNL     1      -1.150  10.462  19.051  0.00  0.00    +0.000 A 
ATOM      5  C   UNL     1       0.181  10.780  19.178  0.00  0.00    +0.000 A 
ENDROOT
BRANCH   1   9
ATOM      6  C   UNL     1       3.630  14.767  19.512  0.00  0.00    +0.000 A 
ATOM      7  C   UNL     1       3.275  14.278  18.242  0.00  0.00    +0.000 A 
ATOM      8  C   UNL     1       2.161  13.452  18.067  0.00  0.00    +0.000 A 
ATOM      9  C   UNL     1       1.413  13.054  19.171  0.00  0.00    +0.000 A 
ATOM     10  C   UNL     1       1.813  13.495  20.440  0.00  0.00    +0.000 A 
ATOM     11  C   UNL     1       2.931  14.317  20.636  0.00  0.00    +0.000 A 
BRANCH   6  13
ATOM     12  C   UNL     1       5.945  15.094  19.801  0.00  0.00    +0.000 C 
ATOM     13  O   UNL     1       4.645  15.675  19.650  0.00  0.00    +0.000 OA
ENDBRANCH   6  13
BRANCH  11  14
ATOM     14  O   UNL     1       3.142  14.564  21.963  0.00  0.00    +0.000 OA
ATOM     15  C   UNL     1       2.613  15.741  22.551  0.00  0.00    +0.000 C 
ENDBRANCH  11  14
ENDBRANCH   1   9
BRANCH   3  16
ATOM     16  C   UNL     1      -3.225  11.773  18.596  0.00  0.00    +0.000 A 
ATOM     17  C   UNL     1      -4.029  12.272  19.628  0.00  0.00    +0.000 A 
ATOM     18  C   UNL     1      -5.411  12.408  19.451  0.00  0.00    +0.000 A 
ATOM     19  C   UNL     1      -5.996  12.037  18.233  0.00  0.00    +0.000 A 
ATOM     20  C   UNL     1      -5.206  11.540  17.204  0.00  0.00    +0.000 A 
ATOM     21  C   UNL     1      -3.828  11.406  17.381  0.00  0.00    +0.000 A 
ENDBRANCH   3  16
BRANCH   5  22
ATOM     22  C   UNL     1       1.260   9.867  19.440  0.00  0.00    +0.000 C 
ATOM     23  N   UNL     1       1.002   8.688  19.905  0.00  0.00    +0.000 NA
BRANCH  23  24
ATOM     24  N   UNL     1       2.105   7.963  20.205  0.00  0.00    +0.000 N 
ATOM     25  H   UNL     1       2.915   8.371  20.665  0.00  0.00    +0.000 HD
BRANCH  24  26
ATOM     26  C   UNL     1       2.209   6.631  19.795  0.00  0.00    +0.000 A 
ATOM     27  C   UNL     1       2.559   6.357  18.468  0.00  0.00    +0.000 A 
ATOM     28  C   UNL     1       2.671   5.044  18.012  0.00  0.00    +0.000 A 
ATOM     29  C   UNL     1       2.437   3.974  18.879  0.00  0.00    +0.000 A 
ATOM     30 CL   UNL     1       2.567   2.390  18.200  0.00  0.00    +0.000 Cl
ATOM     31  C   UNL     1       2.104   4.218  20.217  0.00  0.00    +0.000 A 
ATOM     32  C   UNL     1       1.999   5.549  20.662  0.00  0.00    +0.000 A 
BRANCH  31  33
ATOM     33  C   UNL     1       1.799   3.165  21.223  0.00  0.00    +0.000 C 
ATOM     34  O   UNL     1       2.636   2.763  22.016  0.00  0.00    +0.000 OA
BRANCH  33  35
ATOM     35  O   UNL     1       0.566   2.626  21.152  0.00  0.00    +0.000 OA
ATOM     36  H   UNL     1       0.287   2.337  20.262  0.00  0.00    +0.000 HD
ENDBRANCH  33  35
ENDBRANCH  31  33
ENDBRANCH  24  26
ENDBRANCH  23  24
ENDBRANCH   5  22
TORSDOF 9
ENDMDL
MODEL 8
REMARK VINA RESULT:      -7.6      6.403     10.541
REMARK  Name = 
REMARK  11 active torsions:
REMARK  status: ('A' for Active; 'I' for Inactive)
REMARK    1  A    between atoms: C_1  and  O_2
REMARK    2  A    between atoms: O_2  and  C_3
REMARK    3  A    between atoms: C_6  and  C_7
REMARK    4  A    between atoms: N_9  and  C_10
REMARK    5  A    between atoms: C_17  and  C_18
REMARK    6  A    between atoms: N_19  and  N_20
REMARK    7  A    between atoms: N_20  and  C_21
REMARK    8  A    between atoms: C_26  and  C_27
REMARK    9  A    between atoms: C_27  and  O_29
REMARK   10  A    between atoms: C_32  and  O_33
REMARK   11  A    between atoms: O_33  and  C_34
REMARK                            x       y       z     vdW  Elec       q    Type
REMARK                         _______ _______ _______ _____ _____    ______ ____
ROOT
ATOM      1  C   UNL     1      -0.675  12.308  18.886  0.00  0.00    +0.000 A 
ATOM      2  N   UNL     1      -0.168  13.507  18.555  0.00  0.00    +0.000 NA
ATOM      3  N   UNL     1       1.167  13.418  18.814  0.00  0.00    +0.000 N 
ATOM      4  C   UNL     1       1.485  12.204  19.366  0.00  0.00    +0.000 A 
ATOM      5  C   UNL     1       0.324  11.473  19.453  0.00  0.00    +0.000 A 
ENDROOT
BRANCH   1   9
ATOM      6  C   UNL     1      -4.773  11.334  18.070  0.00  0.00    +0.000 A 
ATOM      7  C   UNL     1      -4.403  11.945  19.282  0.00  0.00    +0.000 A 
ATOM      8  C   UNL     1      -3.075  12.283  19.550  0.00  0.00    +0.000 A 
ATOM      9  C   UNL     1      -2.079  11.964  18.631  0.00  0.00    +0.000 A 
ATOM     10  C   UNL     1      -2.449  11.297  17.454  0.00  0.00    +0.000 A 
ATOM     11  C   UNL     1      -3.775  10.944  17.172  0.00  0.00    +0.000 A 
BRANCH   6  13
ATOM     12  C   UNL     1      -6.932  12.268  17.956  0.00  0.00    +0.000 C 
ATOM     13  O   UNL     1      -6.091  11.125  17.767  0.00  0.00    +0.000 OA
ENDBRANCH   6  13
BRANCH  11  14
ATOM     14  O   UNL     1      -3.868  10.259  15.993  0.00  0.00    +0.000 OA
ATOM     15  C   UNL     1      -2.854  10.406  15.012  0.00  0.00    +0.000 C 
ENDBRANCH  11  14
ENDBRANCH   1   9
BRANCH   3  16
ATOM     16  C   UNL     1       2.058  14.485  18.529  0.00  0.00    +0.000 A 
ATOM     17  C   UNL     1       1.621  15.811  18.622  0.00  0.00    +0.000 A 
ATOM     18  C   UNL     1       2.490  16.869  18.328  0.00  0.00    +0.000 A 
ATOM     19  C   UNL     1       3.807  16.599  17.934  0.00  0.00    +0.000 A 
ATOM     20  C   UNL     1       4.249  15.285  17.839  0.00  0.00    +0.000 A 
ATOM     21  C   UNL     1       3.382  14.231  18.133  0.00  0.00    +0.000 A 
ENDBRANCH   3  16
BRANCH   5  22
ATOM     22  C   UNL     1       0.183  10.145  19.985  0.00  0.00    +0.000 C 
ATOM     23  N   UNL     1       1.223   9.527  20.444  0.00  0.00    +0.000 NA
BRANCH  23  24
ATOM     24  N   UNL     1       0.979   8.250  20.821  0.00  0.00    +0.000 N 
ATOM     25  H   UNL     1       0.370   8.020  21.603  0.00  0.00    +0.000 HD
BRANCH  24  26
ATOM     26  C   UNL     1       1.647   7.190  20.201  0.00  0.00    +0.000 A 
ATOM     27  C   UNL     1       2.394   7.444  19.046  0.00  0.00    +0.000 A 
ATOM     28  C   UNL     1       3.074   6.418  18.391  0.00  0.00    +0.000 A 
ATOM     29  C   UNL     1       3.023   5.112  18.883  0.00  0.00    +0.000 A 
ATOM     30 CL   UNL     1       3.871   3.912  17.973  0.00  0.00    +0.000 Cl
ATOM     31  C   UNL     1       2.299   4.831  20.049  0.00  0.00    +0.000 A 
ATOM     32  C   UNL     1       1.622   5.879  20.700  0.00  0.00    +0.000 A 
BRANCH  31  33
ATOM     33  C   UNL     1       2.144   3.479  20.648  0.00  0.00    +0.000 C 
ATOM     34  O   UNL     1       1.056   3.040  20.987  0.00  0.00    +0.000 OA
BRANCH  33  35
ATOM     35  O   UNL     1       3.287   2.799  20.865  0.00  0.00    +0.000 OA
ATOM     36  H   UNL     1       3.542   2.173  20.160  0.00  0.00    +0.000 HD
ENDBRANCH  33  35
ENDBRANCH  31  33
ENDBRANCH  24  26
ENDBRANCH  23  24
ENDBRANCH   5  22
TORSDOF 9
ENDMDL
MODEL 9
REMARK VINA RESULT:      -7.6      6.126     10.520
REMARK  Name = 
REMARK  11 active torsions:
REMARK  status: ('A' for Active; 'I' for Inactive)
REMARK    1  A    between atoms: C_1  and  O_2
REMARK    2  A    between atoms: O_2  and  C_3
REMARK    3  A    between atoms: C_6  and  C_7
REMARK    4  A    between atoms: N_9  and  C_10
REMARK    5  A    between atoms: C_17  and  C_18
REMARK    6  A    between atoms: N_19  and  N_20
REMARK    7  A    between atoms: N_20  and  C_21
REMARK    8  A    between atoms: C_26  and  C_27
REMARK    9  A    between atoms: C_27  and  O_29
REMARK   10  A    between atoms: C_32  and  O_33
REMARK   11  A    between atoms: O_33  and  C_34
REMARK                            x       y       z     vdW  Elec       q    Type
REMARK                         _______ _______ _______ _____ _____    ______ ____
ROOT
ATOM      1  C   UNL     1       0.272  11.904  19.216  0.00  0.00    +0.000 A 
ATOM      2  N   UNL     1      -0.843  12.390  18.646  0.00  0.00    +0.000 NA
ATOM      3  N   UNL     1      -1.777  11.407  18.784  0.00  0.00    +0.000 N 
ATOM      4  C   UNL     1      -1.239  10.291  19.370  0.00  0.00    +0.000 A 
ATOM      5  C   UNL     1       0.082  10.561  19.638  0.00  0.00    +0.000 A 
ENDROOT
BRANCH   1   9
ATOM      6  C   UNL     1       3.755  14.354  19.732  0.00  0.00    +0.000 A 
ATOM      7  C   UNL     1       3.474  13.750  18.494  0.00  0.00    +0.000 A 
ATOM      8  C   UNL     1       2.334  12.965  18.309  0.00  0.00    +0.000 A 
ATOM      9  C   UNL     1       1.478  12.723  19.381  0.00  0.00    +0.000 A 
ATOM     10  C   UNL     1       1.801  13.277  20.628  0.00  0.00    +0.000 A 
ATOM     11  C   UNL     1       2.945  14.060  20.833  0.00  0.00    +0.000 A 
BRANCH   6  13
ATOM     12  C   UNL     1       4.661  16.443  19.131  0.00  0.00    +0.000 C 
ATOM     13  O   UNL     1       4.806  15.222  19.863  0.00  0.00    +0.000 OA
ENDBRANCH   6  13
BRANCH  11  14
ATOM     14  O   UNL     1       3.064  14.437  22.141  0.00  0.00    +0.000 OA
ATOM     15  C   UNL     1       2.692  15.749  22.531  0.00  0.00    +0.000 C 
ENDBRANCH  11  14
ENDBRANCH   1   9
BRANCH   3  16
ATOM     16  C   UNL     1      -3.117  11.581  18.350  0.00  0.00    +0.000 A 
ATOM     17  C   UNL     1      -3.480  11.254  17.038  0.00  0.00    +0.000 A 
ATOM     18  C   UNL     1      -4.797  11.435  16.599  0.00  0.00    +0.000 A 
ATOM     19  C   UNL     1      -5.759  11.953  17.477  0.00  0.00    +0.000 A 
ATOM     20  C   UNL     1      -5.406  12.281  18.780  0.00  0.00    +0.000 A 
ATOM     21  C   UNL     1      -4.094  12.098  19.218  0.00  0.00    +0.000 A 
ENDBRANCH   3  16
BRANCH   5  22
ATOM     22  C   UNL     1       1.036   9.669  20.238  0.00  0.00    +0.000 C 
ATOM     23  N   UNL     1       1.407   8.607  19.600  0.00  0.00    +0.000 NA
BRANCH  23  24
ATOM     24  N   UNL     1       2.228   7.799  20.311  0.00  0.00    +0.000 N 
ATOM     25  H   UNL     1       2.869   8.158  21.014  0.00  0.00    +0.000 HD
BRANCH  24  26
ATOM     26  C   UNL     1       2.295   6.432  20.026  0.00  0.00    +0.000 A 
ATOM     27  C   UNL     1       1.326   5.580  20.566  0.00  0.00    +0.000 A 
ATOM     28  C   UNL     1       1.355   4.209  20.313  0.00  0.00    +0.000 A 
ATOM     29  C   UNL     1       2.357   3.661  19.508  0.00  0.00    +0.000 A 
ATOM     30 CL   UNL     1       2.320   1.947  19.291  0.00  0.00    +0.000 Cl
ATOM     31  C   UNL     1       3.330   4.493  18.939  0.00  0.00    +0.000 A 
ATOM     32  C   UNL     1       3.283   5.875  19.201  0.00  0.00    +0.000 A 
BRANCH  31  33
ATOM     33  C   UNL     1       4.462   4.024  18.097  0.00  0.00    +0.000 C 
ATOM     34  O   UNL     1       4.390   3.977  16.879  0.00  0.00    +0.000 OA
BRANCH  33  35
ATOM     35  O   UNL     1       5.545   3.579  18.766  0.00  0.00    +0.000 OA
ATOM     36  H   UNL     1       5.554   2.621  18.956  0.00  0.00    +0.000 HD
ENDBRANCH  33  35
ENDBRANCH  31  33
ENDBRANCH  24  26
ENDBRANCH  23  24
ENDBRANCH   5  22
TORSDOF 9
ENDMDL
