MODEL 1
REMARK VINA RESULT:      -7.9      0.000      0.000
REMARK  Name = 
REMARK  10 active torsions:
REMARK  status: ('A' for Active; 'I' for Inactive)
REMARK    1  A    between atoms: C_1  and  C_2
REMARK    2  A    between atoms: C_2  and  C_3
REMARK    3  A    between atoms: C_2  and  N_19
REMARK    4  A    between atoms: C_3  and  O_4
REMARK    5  A    between atoms: O_4  and  C_5
REMARK    6  A    between atoms: C_8  and  C_9
REMARK    7  A    between atoms: C_10  and  C_11
REMARK    8  A    between atoms: N_19  and  C_20
REMARK    9  A    between atoms: N_19  and  C_21
REMARK   10  A    between atoms: N_19  and  C_22
REMARK                            x       y       z     vdW  Elec       q    Type
REMARK                         _______ _______ _______ _____ _____    ______ ____
ROOT
ATOM      1  C   UNL     1       6.357   5.193  18.459  0.00  0.00    +0.000 A 
ATOM      2  C   UNL     1       7.549   5.562  19.108  0.00  0.00    +0.000 A 
ATOM      3  C   UNL     1       8.163   6.776  18.835  0.00  0.00    +0.000 A 
ATOM      4  C   UNL     1       7.607   7.669  17.896  0.00  0.00    +0.000 A 
ATOM      5  C   UNL     1       6.417   7.301  17.244  0.00  0.00    +0.000 A 
ATOM      6  C   UNL     1       5.798   6.074  17.524  0.00  0.00    +0.000 A 
ENDROOT
BRANCH   4   7
ATOM      7  C   UNL     1       8.230   8.987  17.576  0.00  0.00    +0.000 C 
ATOM      8  C   UNL     1       8.825   9.780  18.492  0.00  0.00    +0.000 C 
BRANCH   8   9
ATOM      9  C   UNL     1       9.451  11.099  18.204  0.00  0.00    +0.000 A 
ATOM     10  C   UNL     1       8.711  12.247  17.852  0.00  0.00    +0.000 A 
ATOM     11  C   UNL     1       9.367  13.454  17.594  0.00  0.00    +0.000 A 
ATOM     12  C   UNL     1      10.757  13.535  17.684  0.00  0.00    +0.000 A 
ATOM     13  C   UNL     1      11.500  12.406  18.031  0.00  0.00    +0.000 A 
ATOM     14  C   UNL     1      10.851  11.199  18.292  0.00  0.00    +0.000 A 
ENDBRANCH   8   9
ENDBRANCH   4   7
BRANCH   1  15
ATOM     15  O   UNL     1       5.714   4.022  18.730  0.00  0.00    +0.000 OA
BRANCH  15  16
ATOM     16  C   UNL     1       4.510   3.616  18.172  0.00  0.00    +0.000 C 
BRANCH  16  18
ATOM     17  C   UNL     1       3.365   1.438  18.626  0.00  0.00    +0.000 C 
ATOM     18  C   UNL     1       3.625   2.855  19.209  0.00  0.00    +0.000 C 
BRANCH  18  19
ATOM     19  N   UNL     1       2.360   3.596  19.601  0.00  0.00    +0.000 N 
ATOM     20  C   UNL     1       2.633   4.857  20.335  0.00  0.00    +0.000 C 
ATOM     21  C   UNL     1       1.553   3.923  18.394  0.00  0.00    +0.000 C 
ATOM     22  C   UNL     1       1.499   2.732  20.456  0.00  0.00    +0.000 C 
ENDBRANCH  18  19
ENDBRANCH  16  18
ENDBRANCH  15  16
ENDBRANCH   1  15
TORSDOF 6
ENDMDL
MODEL 2
REMARK VINA RESULT:      -7.9      1.209      2.060
REMARK  Name = 
REMARK  10 active torsions:
REMARK  status: ('A' for Active; 'I' for Inactive)
REMARK    1  A    between atoms: C_1  and  C_2
REMARK    2  A    between atoms: C_2  and  C_3
REMARK    3  A    between atoms: C_2  and  N_19
REMARK    4  A    between atoms: C_3  and  O_4
REMARK    5  A    between atoms: O_4  and  C_5
REMARK    6  A    between atoms: C_8  and  C_9
REMARK    7  A    between atoms: C_10  and  C_11
REMARK    8  A    between atoms: N_19  and  C_20
REMARK    9  A    between atoms: N_19  and  C_21
REMARK   10  A    between atoms: N_19  and  C_22
REMARK                            x       y       z     vdW  Elec       q    Type
REMARK                         _______ _______ _______ _____ _____    ______ ____
ROOT
ATOM      1  C   UNL     1       5.652   4.936  16.880  0.00  0.00    +0.000 A 
ATOM      2  C   UNL     1       5.364   6.303  16.723  0.00  0.00    +0.000 A 
ATOM      3  C   UNL     1       6.224   7.275  17.216  0.00  0.00    +0.000 A 
ATOM      4  C   UNL     1       7.407   6.912  17.891  0.00  0.00    +0.000 A 
ATOM      5  C   UNL     1       7.696   5.546  18.052  0.00  0.00    +0.000 A 
ATOM      6  C   UNL     1       6.826   4.567  17.551  0.00  0.00    +0.000 A 
ENDROOT
BRANCH   4   7
ATOM      7  C   UNL     1       8.364   7.922  18.432  0.00  0.00    +0.000 C 
ATOM      8  C   UNL     1       8.339   9.233  18.106  0.00  0.00    +0.000 C 
BRANCH   8   9
ATOM      9  C   UNL     1       9.278  10.262  18.627  0.00  0.00    +0.000 A 
ATOM     10  C   UNL     1      10.154  10.999  17.801  0.00  0.00    +0.000 A 
ATOM     11  C   UNL     1      11.011  11.951  18.360  0.00  0.00    +0.000 A 
ATOM     12  C   UNL     1      11.009  12.182  19.735  0.00  0.00    +0.000 A 
ATOM     13  C   UNL     1      10.148  11.459  20.562  0.00  0.00    +0.000 A 
ATOM     14  C   UNL     1       9.288  10.509  20.011  0.00  0.00    +0.000 A 
ENDBRANCH   8   9
ENDBRANCH   4   7
BRANCH   1  15
ATOM     15  O   UNL     1       4.843   3.960  16.379  0.00  0.00    +0.000 OA
BRANCH  15  16
ATOM     16  C   UNL     1       3.594   3.616  16.878  0.00  0.00    +0.000 C 
BRANCH  16  18
ATOM     17  C   UNL     1       3.581   1.578  18.330  0.00  0.00    +0.000 C 
ATOM     18  C   UNL     1       3.685   3.128  18.359  0.00  0.00    +0.000 C 
BRANCH  18  19
ATOM     19  N   UNL     1       2.683   3.791  19.288  0.00  0.00    +0.000 N 
ATOM     20  C   UNL     1       1.415   4.151  18.607  0.00  0.00    +0.000 C 
ATOM     21  C   UNL     1       2.362   2.895  20.431  0.00  0.00    +0.000 C 
ATOM     22  C   UNL     1       3.267   5.027  19.878  0.00  0.00    +0.000 C 
ENDBRANCH  18  19
ENDBRANCH  16  18
ENDBRANCH  15  16
ENDBRANCH   1  15
TORSDOF 6
ENDMDL
MODEL 3
REMARK VINA RESULT:      -7.9      0.613      1.432
REMARK  Name = 
REMARK  10 active torsions:
REMARK  status: ('A' for Active; 'I' for Inactive)
REMARK    1  A    between atoms: C_1  and  C_2
REMARK    2  A    between atoms: C_2  and  C_3
REMARK    3  A    between atoms: C_2  and  N_19
REMARK    4  A    between atoms: C_3  and  O_4
REMARK    5  A    between atoms: O_4  and  C_5
REMARK    6  A    between atoms: C_8  and  C_9
REMARK    7  A    between atoms: C_10  and  C_11
REMARK    8  A    between atoms: N_19  and  C_20
REMARK    9  A    between atoms: N_19  and  C_21
REMARK   10  A    between atoms: N_19  and  C_22
REMARK                            x       y       z     vdW  Elec       q    Type
REMARK                         _______ _______ _______ _____ _____    ______ ____
ROOT
ATOM      1  C   UNL     1       5.953   5.106  18.070  0.00  0.00    +0.000 A 
ATOM      2  C   UNL     1       7.174   5.307  18.740  0.00  0.00    +0.000 A 
ATOM      3  C   UNL     1       7.876   6.497  18.602  0.00  0.00    +0.000 A 
ATOM      4  C   UNL     1       7.382   7.533  17.783  0.00  0.00    +0.000 A 
ATOM      5  C   UNL     1       6.163   7.333  17.110  0.00  0.00    +0.000 A 
ATOM      6  C   UNL     1       5.456   6.130  17.253  0.00  0.00    +0.000 A 
ENDROOT
BRANCH   4   7
ATOM      7  C   UNL     1       8.099   8.830  17.610  0.00  0.00    +0.000 C 
ATOM      8  C   UNL     1       8.682   9.508  18.622  0.00  0.00    +0.000 C 
BRANCH   8   9
ATOM      9  C   UNL     1       9.401  10.803  18.482  0.00  0.00    +0.000 A 
ATOM     10  C   UNL     1      10.719  11.010  18.943  0.00  0.00    +0.000 A 
ATOM     11  C   UNL     1      11.333  12.255  18.778  0.00  0.00    +0.000 A 
ATOM     12  C   UNL     1      10.651  13.301  18.157  0.00  0.00    +0.000 A 
ATOM     13  C   UNL     1       9.348  13.108  17.697  0.00  0.00    +0.000 A 
ATOM     14  C   UNL     1       8.730  11.868  17.856  0.00  0.00    +0.000 A 
ENDBRANCH   8   9
ENDBRANCH   4   7
BRANCH   1  15
ATOM     15  O   UNL     1       5.227   3.961  18.212  0.00  0.00    +0.000 OA
BRANCH  15  16
ATOM     16  C   UNL     1       4.710   3.480  19.407  0.00  0.00    +0.000 C 
BRANCH  16  18
ATOM     17  C   UNL     1       3.282   2.111  17.873  0.00  0.00    +0.000 C 
ATOM     18  C   UNL     1       3.274   2.896  19.214  0.00  0.00    +0.000 C 
BRANCH  18  19
ATOM     19  N   UNL     1       2.170   3.933  19.309  0.00  0.00    +0.000 N 
ATOM     20  C   UNL     1       1.798   4.503  17.990  0.00  0.00    +0.000 C 
ATOM     21  C   UNL     1       0.951   3.341  19.924  0.00  0.00    +0.000 C 
ATOM     22  C   UNL     1       2.586   5.049  20.203  0.00  0.00    +0.000 C 
ENDBRANCH  18  19
ENDBRANCH  16  18
ENDBRANCH  15  16
ENDBRANCH   1  15
TORSDOF 6
ENDMDL
MODEL 4
REMARK VINA RESULT:      -7.9      0.423      1.113
REMARK  Name = 
REMARK  10 active torsions:
REMARK  status: ('A' for Active; 'I' for Inactive)
REMARK    1  A    between atoms: C_1  and  C_2
REMARK    2  A    between atoms: C_2  and  C_3
REMARK    3  A    between atoms: C_2  and  N_19
REMARK    4  A    between atoms: C_3  and  O_4
REMARK    5  A    between atoms: O_4  and  C_5
REMARK    6  A    between atoms: C_8  and  C_9
REMARK    7  A    between atoms: C_10  and  C_11
REMARK    8  A    between atoms: N_19  and  C_20
REMARK    9  A    between atoms: N_19  and  C_21
REMARK   10  A    between atoms: N_19  and  C_22
REMARK                            x       y       z     vdW  Elec       q    Type
REMARK                         _______ _______ _______ _____ _____    ______ ____
ROOT
ATOM      1  C   UNL     1       6.308   5.174  18.542  0.00  0.00    +0.000 A 
ATOM      2  C   UNL     1       7.531   5.503  19.155  0.00  0.00    +0.000 A 
ATOM      3  C   UNL     1       8.183   6.691  18.855  0.00  0.00    +0.000 A 
ATOM      4  C   UNL     1       7.635   7.596  17.922  0.00  0.00    +0.000 A 
ATOM      5  C   UNL     1       6.415   7.268  17.305  0.00  0.00    +0.000 A 
ATOM      6  C   UNL     1       5.758   6.068  17.614  0.00  0.00    +0.000 A 
ENDROOT
BRANCH   4   7
ATOM      7  C   UNL     1       8.298   8.887  17.573  0.00  0.00    +0.000 C 
ATOM      8  C   UNL     1       8.805   9.743  18.486  0.00  0.00    +0.000 C 
BRANCH   8   9
ATOM      9  C   UNL     1       9.469  11.037  18.169  0.00  0.00    +0.000 A 
ATOM     10  C   UNL     1      10.871  11.201  18.141  0.00  0.00    +0.000 A 
ATOM     11  C   UNL     1      11.425  12.447  17.836  0.00  0.00    +0.000 A 
ATOM     12  C   UNL     1      10.601  13.537  17.557  0.00  0.00    +0.000 A 
ATOM     13  C   UNL     1       9.214  13.387  17.582  0.00  0.00    +0.000 A 
ATOM     14  C   UNL     1       8.654  12.146  17.884  0.00  0.00    +0.000 A 
ENDBRANCH   8   9
ENDBRANCH   4   7
BRANCH   1  15
ATOM     15  O   UNL     1       5.630   4.030  18.841  0.00  0.00    +0.000 OA
BRANCH  15  16
ATOM     16  C   UNL     1       4.321   3.752  18.474  0.00  0.00    +0.000 C 
BRANCH  16  18
ATOM     17  C   UNL     1       3.530   1.389  18.705  0.00  0.00    +0.000 C 
ATOM     18  C   UNL     1       3.652   2.742  19.460  0.00  0.00    +0.000 C 
BRANCH  18  19
ATOM     19  N   UNL     1       2.342   3.233  20.050  0.00  0.00    +0.000 N 
ATOM     20  C   UNL     1       2.321   4.702  20.265  0.00  0.00    +0.000 C 
ATOM     21  C   UNL     1       1.204   2.873  19.163  0.00  0.00    +0.000 C 
ATOM     22  C   UNL     1       2.081   2.564  21.355  0.00  0.00    +0.000 C 
ENDBRANCH  18  19
ENDBRANCH  16  18
ENDBRANCH  15  16
ENDBRANCH   1  15
TORSDOF 6
ENDMDL
MODEL 5
REMARK VINA RESULT:      -7.8      1.221      1.935
REMARK  Name = 
REMARK  10 active torsions:
REMARK  status: ('A' for Active; 'I' for Inactive)
REMARK    1  A    between atoms: C_1  and  C_2
REMARK    2  A    between atoms: C_2  and  C_3
REMARK    3  A    between atoms: C_2  and  N_19
REMARK    4  A    between atoms: C_3  and  O_4
REMARK    5  A    between atoms: O_4  and  C_5
REMARK    6  A    between atoms: C_8  and  C_9
REMARK    7  A    between atoms: C_10  and  C_11
REMARK    8  A    between atoms: N_19  and  C_20
REMARK    9  A    between atoms: N_19  and  C_21
REMARK   10  A    between atoms: N_19  and  C_22
REMARK                            x       y       z     vdW  Elec       q    Type
REMARK                         _______ _______ _______ _____ _____    ______ ____
ROOT
ATOM      1  C   UNL     1       6.241   5.035  17.149  0.00  0.00    +0.000 A 
ATOM      2  C   UNL     1       6.094   6.336  16.634  0.00  0.00    +0.000 A 
ATOM      3  C   UNL     1       6.847   7.390  17.132  0.00  0.00    +0.000 A 
ATOM      4  C   UNL     1       7.776   7.182  18.172  0.00  0.00    +0.000 A 
ATOM      5  C   UNL     1       7.923   5.883  18.691  0.00  0.00    +0.000 A 
ATOM      6  C   UNL     1       7.162   4.821  18.184  0.00  0.00    +0.000 A 
ENDROOT
BRANCH   4   7
ATOM      7  C   UNL     1       8.611   8.284  18.734  0.00  0.00    +0.000 C 
ATOM      8  C   UNL     1       8.572   9.559  18.290  0.00  0.00    +0.000 C 
BRANCH   8   9
ATOM      9  C   UNL     1       9.393  10.678  18.828  0.00  0.00    +0.000 A 
ATOM     10  C   UNL     1       9.656  10.853  20.203  0.00  0.00    +0.000 A 
ATOM     11  C   UNL     1      10.436  11.929  20.638  0.00  0.00    +0.000 A 
ATOM     12  C   UNL     1      10.960  12.837  19.718  0.00  0.00    +0.000 A 
ATOM     13  C   UNL     1      10.706  12.674  18.356  0.00  0.00    +0.000 A 
ATOM     14  C   UNL     1       9.931  11.602  17.915  0.00  0.00    +0.000 A 
ENDBRANCH   8   9
ENDBRANCH   4   7
BRANCH   1  15
ATOM     15  O   UNL     1       5.539   3.976  16.658  0.00  0.00    +0.000 OA
BRANCH  15  16
ATOM     16  C   UNL     1       4.176   3.770  16.820  0.00  0.00    +0.000 C 
BRANCH  16  18
ATOM     17  C   UNL     1       3.483   1.722  18.081  0.00  0.00    +0.000 C 
ATOM     18  C   UNL     1       3.845   3.224  18.246  0.00  0.00    +0.000 C 
BRANCH  18  19
ATOM     19  N   UNL     1       2.790   4.029  18.983  0.00  0.00    +0.000 N 
ATOM     20  C   UNL     1       2.246   3.321  20.168  0.00  0.00    +0.000 C 
ATOM     21  C   UNL     1       3.349   5.332  19.433  0.00  0.00    +0.000 C 
ATOM     22  C   UNL     1       1.658   4.355  18.071  0.00  0.00    +0.000 C 
ENDBRANCH  18  19
ENDBRANCH  16  18
ENDBRANCH  15  16
ENDBRANCH   1  15
TORSDOF 6
ENDMDL
MODEL 6
REMARK VINA RESULT:      -7.8      1.030      1.486
REMARK  Name = 
REMARK  10 active torsions:
REMARK  status: ('A' for Active; 'I' for Inactive)
REMARK    1  A    between atoms: C_1  and  C_2
REMARK    2  A    between atoms: C_2  and  C_3
REMARK    3  A    between atoms: C_2  and  N_19
REMARK    4  A    between atoms: C_3  and  O_4
REMARK    5  A    between atoms: O_4  and  C_5
REMARK    6  A    between atoms: C_8  and  C_9
REMARK    7  A    between atoms: C_10  and  C_11
REMARK    8  A    between atoms: N_19  and  C_20
REMARK    9  A    between atoms: N_19  and  C_21
REMARK   10  A    between atoms: N_19  and  C_22
REMARK                            x       y       z     vdW  Elec       q    Type
REMARK                         _______ _______ _______ _____ _____    ______ ____
ROOT
ATOM      1  C   UNL     1       5.882   5.147  17.820  0.00  0.00    +0.000 A 
ATOM      2  C   UNL     1       7.024   5.213  18.638  0.00  0.00    +0.000 A 
ATOM      3  C   UNL     1       7.813   6.355  18.671  0.00  0.00    +0.000 A 
ATOM      4  C   UNL     1       7.489   7.476  17.880  0.00  0.00    +0.000 A 
ATOM      5  C   UNL     1       6.349   7.411  17.058  0.00  0.00    +0.000 A 
ATOM      6  C   UNL     1       5.554   6.256  17.029  0.00  0.00    +0.000 A 
ENDROOT
BRANCH   4   7
ATOM      7  C   UNL     1       8.304   8.726  17.888  0.00  0.00    +0.000 C 
ATOM      8  C   UNL     1       8.752   9.325  19.012  0.00  0.00    +0.000 C 
BRANCH   8   9
ATOM      9  C   UNL     1       9.564  10.571  19.053  0.00  0.00    +0.000 A 
ATOM     10  C   UNL     1      10.030  11.153  20.251  0.00  0.00    +0.000 A 
ATOM     11  C   UNL     1      10.788  12.327  20.213  0.00  0.00    +0.000 A 
ATOM     12  C   UNL     1      11.091  12.932  18.994  0.00  0.00    +0.000 A 
ATOM     13  C   UNL     1      10.635  12.366  17.802  0.00  0.00    +0.000 A 
ATOM     14  C   UNL     1       9.880  11.194  17.832  0.00  0.00    +0.000 A 
ENDBRANCH   8   9
ENDBRANCH   4   7
BRANCH   1  15
ATOM     15  O   UNL     1       5.071   4.051  17.791  0.00  0.00    +0.000 OA
BRANCH  15  16
ATOM     16  C   UNL     1       4.635   3.344  18.903  0.00  0.00    +0.000 C 
BRANCH  16  18
ATOM     17  C   UNL     1       2.601   3.615  17.471  0.00  0.00    +0.000 C 
ATOM     18  C   UNL     1       3.110   3.020  18.814  0.00  0.00    +0.000 C 
BRANCH  18  19
ATOM     19  N   UNL     1       2.312   3.472  20.024  0.00  0.00    +0.000 N 
ATOM     20  C   UNL     1       2.607   2.674  21.240  0.00  0.00    +0.000 C 
ATOM     21  C   UNL     1       2.589   4.903  20.325  0.00  0.00    +0.000 C 
ATOM     22  C   UNL     1       0.853   3.380  19.743  0.00  0.00    +0.000 C 
ENDBRANCH  18  19
ENDBRANCH  16  18
ENDBRANCH  15  16
ENDBRANCH   1  15
TORSDOF 6
ENDMDL
MODEL 7
REMARK VINA RESULT:      -7.8      1.099      1.518
REMARK  Name = 
REMARK  10 active torsions:
REMARK  status: ('A' for Active; 'I' for Inactive)
REMARK    1  A    between atoms: C_1  and  C_2
REMARK    2  A    between atoms: C_2  and  C_3
REMARK    3  A    between atoms: C_2  and  N_19
REMARK    4  A    between atoms: C_3  and  O_4
REMARK    5  A    between atoms: O_4  and  C_5
REMARK    6  A    between atoms: C_8  and  C_9
REMARK    7  A    between atoms: C_10  and  C_11
REMARK    8  A    between atoms: N_19  and  C_20
REMARK    9  A    between atoms: N_19  and  C_21
REMARK   10  A    between atoms: N_19  and  C_22
REMARK                            x       y       z     vdW  Elec       q    Type
REMARK                         _______ _______ _______ _____ _____    ______ ____
ROOT
ATOM      1  C   UNL     1       6.206   5.275  18.045  0.00  0.00    +0.000 A 
ATOM      2  C   UNL     1       7.329   5.445  18.875  0.00  0.00    +0.000 A 
ATOM      3  C   UNL     1       8.058   6.626  18.856  0.00  0.00    +0.000 A 
ATOM      4  C   UNL     1       7.691   7.684  17.999  0.00  0.00    +0.000 A 
ATOM      5  C   UNL     1       6.571   7.515  17.166  0.00  0.00    +0.000 A 
ATOM      6  C   UNL     1       5.835   6.322  17.190  0.00  0.00    +0.000 A 
ENDROOT
BRANCH   4   7
ATOM      7  C   UNL     1       8.442   8.973  17.949  0.00  0.00    +0.000 C 
ATOM      8  C   UNL     1       9.015   9.551  19.026  0.00  0.00    +0.000 C 
BRANCH   8   9
ATOM      9  C   UNL     1       9.768  10.835  19.009  0.00  0.00    +0.000 A 
ATOM     10  C   UNL     1      10.041  11.556  17.827  0.00  0.00    +0.000 A 
ATOM     11  C   UNL     1      10.755  12.757  17.886  0.00  0.00    +0.000 A 
ATOM     12  C   UNL     1      11.201  13.252  19.111  0.00  0.00    +0.000 A 
ATOM     13  C   UNL     1      10.937  12.548  20.286  0.00  0.00    +0.000 A 
ATOM     14  C   UNL     1      10.224  11.351  20.235  0.00  0.00    +0.000 A 
ENDBRANCH   8   9
ENDBRANCH   4   7
BRANCH   1  15
ATOM     15  O   UNL     1       5.452   4.140  18.066  0.00  0.00    +0.000 OA
BRANCH  15  16
ATOM     16  C   UNL     1       4.744   3.664  19.161  0.00  0.00    +0.000 C 
BRANCH  16  18
ATOM     17  C   UNL     1       3.285   5.616  19.730  0.00  0.00    +0.000 C 
ATOM     18  C   UNL     1       3.268   4.173  19.154  0.00  0.00    +0.000 C 
BRANCH  18  19
ATOM     19  N   UNL     1       2.293   3.246  19.857  0.00  0.00    +0.000 N 
ATOM     20  C   UNL     1       1.031   3.922  20.247  0.00  0.00    +0.000 C 
ATOM     21  C   UNL     1       1.954   2.089  18.985  0.00  0.00    +0.000 C 
ATOM     22  C   UNL     1       2.917   2.675  21.082  0.00  0.00    +0.000 C 
ENDBRANCH  18  19
ENDBRANCH  16  18
ENDBRANCH  15  16
ENDBRANCH   1  15
TORSDOF 6
ENDMDL
MODEL 8
REMARK VINA RESULT:      -7.8      1.043      1.775
REMARK  Name = 
REMARK  10 active torsions:
REMARK  status: ('A' for Active; 'I' for Inactive)
REMARK    1  A    between atoms: C_1  and  C_2
REMARK    2  A    between atoms: C_2  and  C_3
REMARK    3  A    between atoms: C_2  and  N_19
REMARK    4  A    between atoms: C_3  and  O_4
REMARK    5  A    between atoms: O_4  and  C_5
REMARK    6  A    between atoms: C_8  and  C_9
REMARK    7  A    between atoms: C_10  and  C_11
REMARK    8  A    between atoms: N_19  and  C_20
REMARK    9  A    between atoms: N_19  and  C_21
REMARK   10  A    between atoms: N_19  and  C_22
REMARK                            x       y       z     vdW  Elec       q    Type
REMARK                         _______ _______ _______ _____ _____    ______ ____
ROOT
ATOM      1  C   UNL     1       6.334   5.247  17.797  0.00  0.00    +0.000 A 
ATOM      2  C   UNL     1       5.883   6.305  16.987  0.00  0.00    +0.000 A 
ATOM      3  C   UNL     1       6.514   7.541  17.012  0.00  0.00    +0.000 A 
ATOM      4  C   UNL     1       7.621   7.767  17.855  0.00  0.00    +0.000 A 
ATOM      5  C   UNL     1       8.072   6.711  18.668  0.00  0.00    +0.000 A 
ATOM      6  C   UNL     1       7.434   5.463  18.638  0.00  0.00    +0.000 A 
ENDROOT
BRANCH   4   7
ATOM      7  C   UNL     1       8.333   9.077  17.910  0.00  0.00    +0.000 C 
ATOM      8  C   UNL     1       8.969   9.542  19.007  0.00  0.00    +0.000 C 
BRANCH   8   9
ATOM      9  C   UNL     1       9.685  10.844  19.094  0.00  0.00    +0.000 A 
ATOM     10  C   UNL     1      10.037  11.611  17.963  0.00  0.00    +0.000 A 
ATOM     11  C   UNL     1      10.710  12.825  18.120  0.00  0.00    +0.000 A 
ATOM     12  C   UNL     1      11.039  13.290  19.393  0.00  0.00    +0.000 A 
ATOM     13  C   UNL     1      10.697  12.541  20.519  0.00  0.00    +0.000 A 
ATOM     14  C   UNL     1      10.023  11.329  20.370  0.00  0.00    +0.000 A 
ENDBRANCH   8   9
ENDBRANCH   4   7
BRANCH   1  15
ATOM     15  O   UNL     1       5.755   4.013  17.769  0.00  0.00    +0.000 OA
BRANCH  15  16
ATOM     16  C   UNL     1       4.439   3.750  17.416  0.00  0.00    +0.000 C 
BRANCH  16  18
ATOM     17  C   UNL     1       3.278   1.754  18.380  0.00  0.00    +0.000 C 
ATOM     18  C   UNL     1       3.607   3.250  18.640  0.00  0.00    +0.000 C 
BRANCH  18  19
ATOM     19  N   UNL     1       2.386   4.100  18.944  0.00  0.00    +0.000 N 
ATOM     20  C   UNL     1       1.503   4.284  17.765  0.00  0.00    +0.000 C 
ATOM     21  C   UNL     1       1.586   3.490  20.038  0.00  0.00    +0.000 C 
ATOM     22  C   UNL     1       2.803   5.444  19.432  0.00  0.00    +0.000 C 
ENDBRANCH  18  19
ENDBRANCH  16  18
ENDBRANCH  15  16
ENDBRANCH   1  15
TORSDOF 6
ENDMDL
MODEL 9
REMARK VINA RESULT:      -7.7      1.168      1.408
REMARK  Name = 
REMARK  10 active torsions:
REMARK  status: ('A' for Active; 'I' for Inactive)
REMARK    1  A    between atoms: C_1  and  C_2
REMARK    2  A    between atoms: C_2  and  C_3
REMARK    3  A    between atoms: C_2  and  N_19
REMARK    4  A    between atoms: C_3  and  O_4
REMARK    5  A    between atoms: O_4  and  C_5
REMARK    6  A    between atoms: C_8  and  C_9
REMARK    7  A    between atoms: C_10  and  C_11
REMARK    8  A    between atoms: N_19  and  C_20
REMARK    9  A    between atoms: N_19  and  C_21
REMARK   10  A    between atoms: N_19  and  C_22
REMARK                            x       y       z     vdW  Elec       q    Type
REMARK                         _______ _______ _______ _____ _____    ______ ____
ROOT
ATOM      1  C   UNL     1       6.037   4.998  17.364  0.00  0.00    +0.000 A 
ATOM      2  C   UNL     1       7.192   5.114  18.158  0.00  0.00    +0.000 A 
ATOM      3  C   UNL     1       7.825   6.338  18.323  0.00  0.00    +0.000 A 
ATOM      4  C   UNL     1       7.324   7.497  17.694  0.00  0.00    +0.000 A 
ATOM      5  C   UNL     1       6.171   7.383  16.897  0.00  0.00    +0.000 A 
ATOM      6  C   UNL     1       5.534   6.144  16.734  0.00  0.00    +0.000 A 
ENDROOT
BRANCH   4   7
ATOM      7  C   UNL     1       7.967   8.835  17.848  0.00  0.00    +0.000 C 
ATOM      8  C   UNL     1       8.825   9.147  18.844  0.00  0.00    +0.000 C 
BRANCH   8   9
ATOM      9  C   UNL     1       9.480  10.470  19.025  0.00  0.00    +0.000 A 
ATOM     10  C   UNL     1      10.041  11.209  17.961  0.00  0.00    +0.000 A 
ATOM     11  C   UNL     1      10.642  12.447  18.206  0.00  0.00    +0.000 A 
ATOM     12  C   UNL     1      10.691  12.963  19.500  0.00  0.00    +0.000 A 
ATOM     13  C   UNL     1      10.140  12.243  20.560  0.00  0.00    +0.000 A 
ATOM     14  C   UNL     1       9.537  11.008  20.323  0.00  0.00    +0.000 A 
ENDBRANCH   8   9
ENDBRANCH   4   7
BRANCH   1  15
ATOM     15  O   UNL     1       5.377   3.815  17.210  0.00  0.00    +0.000 OA
BRANCH  15  16
ATOM     16  C   UNL     1       4.078   3.559  17.624  0.00  0.00    +0.000 C 
BRANCH  16  18
ATOM     17  C   UNL     1       4.080   2.420  19.853  0.00  0.00    +0.000 C 
ATOM     18  C   UNL     1       3.908   3.800  19.158  0.00  0.00    +0.000 C 
BRANCH  18  19
ATOM     19  N   UNL     1       2.623   4.516  19.531  0.00  0.00    +0.000 N 
ATOM     20  C   UNL     1       2.668   5.971  19.241  0.00  0.00    +0.000 C 
ATOM     21  C   UNL     1       1.468   3.929  18.799  0.00  0.00    +0.000 C 
ATOM     22  C   UNL     1       2.333   4.335  20.980  0.00  0.00    +0.000 C 
ENDBRANCH  18  19
ENDBRANCH  16  18
ENDBRANCH  15  16
ENDBRANCH   1  15
TORSDOF 6
ENDMDL
