MODEL 1
REMARK VINA RESULT:      -8.4      0.000      0.000
REMARK  Name = 
REMARK  7 active torsions:
REMARK  status: ('A' for Active; 'I' for Inactive)
REMARK    1  A    between atoms: C_1  and  C_2
REMARK    2  A    between atoms: C_2  and  C_3
REMARK    3  A    between atoms: C_2  and  C_4
REMARK    4  A    between atoms: C_7  and  C_8
REMARK    5  A    between atoms: C_8  and  C_10
REMARK    6  A    between atoms: C_11  and  C_12
REMARK    7  A    between atoms: N_14  and  C_15
REMARK                            x       y       z     vdW  Elec       q    Type
REMARK                         _______ _______ _______ _____ _____    ______ ____
ROOT
ATOM      1  C   UNL     1       7.202   6.800  17.387  0.00  0.00    +0.000 C 
ATOM      2  C   UNL     1       8.064   7.276  18.301  0.00  0.00    +0.000 C 
ENDROOT
BRANCH   2   3
ATOM      3  C   UNL     1       8.260   8.747  18.314  0.00  0.00    +0.000 C 
ATOM      4  O   UNL     1       7.622   9.445  17.531  0.00  0.00    +0.000 OA
ATOM      5  N   UNL     1       9.207   9.193  19.216  0.00  0.00    +0.000 N 
ATOM      6  H   UNL     1       9.771   8.509  19.693  0.00  0.00    +0.000 HD
BRANCH   5   7
ATOM      7  C   UNL     1       9.532  10.556  19.429  0.00  0.00    +0.000 A 
ATOM      8  C   UNL     1       9.306  11.210  20.645  0.00  0.00    +0.000 A 
ATOM      9  C   UNL     1       9.605  12.563  20.803  0.00  0.00    +0.000 A 
ATOM     10  C   UNL     1      10.146  13.284  19.746  0.00  0.00    +0.000 A 
ATOM     11  C   UNL     1      10.403  12.642  18.535  0.00  0.00    +0.000 A 
ATOM     12  C   UNL     1      10.109  11.280  18.381  0.00  0.00    +0.000 A 
ENDBRANCH   5   7
ENDBRANCH   2   3
BRANCH   1  13
ATOM     13  C   UNL     1       6.877   5.359  17.277  0.00  0.00    +0.000 C 
ATOM     14  O   UNL     1       7.719   4.541  16.917  0.00  0.00    +0.000 OA
BRANCH  13  18
ATOM     15  C   UNL     1       2.893   4.230  18.527  0.00  0.00    +0.000 A 
ATOM     16  C   UNL     1       3.740   4.986  19.353  0.00  0.00    +0.000 A 
ATOM     17  C   UNL     1       5.035   5.325  18.943  0.00  0.00    +0.000 A 
ATOM     18  C   UNL     1       5.508   4.923  17.689  0.00  0.00    +0.000 A 
ATOM     19  C   UNL     1       4.681   4.145  16.870  0.00  0.00    +0.000 A 
ATOM     20  C   UNL     1       3.384   3.810  17.283  0.00  0.00    +0.000 A 
BRANCH  15  22
ATOM     21  C   UNL     1       1.093   2.502  18.666  0.00  0.00    +0.000 C 
ATOM     22  C   UNL     1       1.466   3.955  18.977  0.00  0.00    +0.000 C 
ATOM     23  C   UNL     1       1.193   4.261  20.453  0.00  0.00    +0.000 C 
ENDBRANCH  15  22
ENDBRANCH  13  18
ENDBRANCH   1  13
TORSDOF 5
ENDMDL
MODEL 2
REMARK VINA RESULT:      -8.3      1.092      1.498
REMARK  Name = 
REMARK  7 active torsions:
REMARK  status: ('A' for Active; 'I' for Inactive)
REMARK    1  A    between atoms: C_1  and  C_2
REMARK    2  A    between atoms: C_2  and  C_3
REMARK    3  A    between atoms: C_2  and  C_4
REMARK    4  A    between atoms: C_7  and  C_8
REMARK    5  A    between atoms: C_8  and  C_10
REMARK    6  A    between atoms: C_11  and  C_12
REMARK    7  A    between atoms: N_14  and  C_15
REMARK                            x       y       z     vdW  Elec       q    Type
REMARK                         _______ _______ _______ _____ _____    ______ ____
ROOT
ATOM      1  C   UNL     1       7.100   6.566  17.396  0.00  0.00    +0.000 C 
ATOM      2  C   UNL     1       7.215   7.902  17.300  0.00  0.00    +0.000 C 
ENDROOT
BRANCH   2   3
ATOM      3  C   UNL     1       8.238   8.535  18.168  0.00  0.00    +0.000 C 
ATOM      4  O   UNL     1       8.789   7.864  19.036  0.00  0.00    +0.000 OA
ATOM      5  N   UNL     1       8.446   9.880  17.925  0.00  0.00    +0.000 N 
ATOM      6  H   UNL     1       7.823  10.351  17.289  0.00  0.00    +0.000 HD
BRANCH   5   7
ATOM      7  C   UNL     1       9.400  10.679  18.603  0.00  0.00    +0.000 A 
ATOM      8  C   UNL     1      10.465  11.308  17.949  0.00  0.00    +0.000 A 
ATOM      9  C   UNL     1      11.405  12.056  18.658  0.00  0.00    +0.000 A 
ATOM     10  C   UNL     1      11.288  12.196  20.036  0.00  0.00    +0.000 A 
ATOM     11  C   UNL     1      10.217  11.598  20.699  0.00  0.00    +0.000 A 
ATOM     12  C   UNL     1       9.269  10.853  19.984  0.00  0.00    +0.000 A 
ENDBRANCH   5   7
ENDBRANCH   2   3
BRANCH   1  13
ATOM     13  C   UNL     1       6.147   5.790  16.567  0.00  0.00    +0.000 C 
ATOM     14  O   UNL     1       6.369   5.568  15.381  0.00  0.00    +0.000 OA
BRANCH  13  18
ATOM     15  C   UNL     1       2.615   4.291  18.563  0.00  0.00    +0.000 A 
ATOM     16  C   UNL     1       3.395   5.319  19.115  0.00  0.00    +0.000 A 
ATOM     17  C   UNL     1       4.547   5.780  18.468  0.00  0.00    +0.000 A 
ATOM     18  C   UNL     1       4.941   5.226  17.244  0.00  0.00    +0.000 A 
ATOM     19  C   UNL     1       4.185   4.180  16.700  0.00  0.00    +0.000 A 
ATOM     20  C   UNL     1       3.029   3.725  17.350  0.00  0.00    +0.000 A 
BRANCH  15  22
ATOM     21  C   UNL     1       0.857   2.523  18.724  0.00  0.00    +0.000 C 
ATOM     22  C   UNL     1       1.325   3.879  19.259  0.00  0.00    +0.000 C 
ATOM     23  C   UNL     1       1.411   3.839  20.788  0.00  0.00    +0.000 C 
ENDBRANCH  15  22
ENDBRANCH  13  18
ENDBRANCH   1  13
TORSDOF 5
ENDMDL
MODEL 3
REMARK VINA RESULT:      -8.1      1.328      1.881
REMARK  Name = 
REMARK  7 active torsions:
REMARK  status: ('A' for Active; 'I' for Inactive)
REMARK    1  A    between atoms: C_1  and  C_2
REMARK    2  A    between atoms: C_2  and  C_3
REMARK    3  A    between atoms: C_2  and  C_4
REMARK    4  A    between atoms: C_7  and  C_8
REMARK    5  A    between atoms: C_8  and  C_10
REMARK    6  A    between atoms: C_11  and  C_12
REMARK    7  A    between atoms: N_14  and  C_15
REMARK                            x       y       z     vdW  Elec       q    Type
REMARK                         _______ _______ _______ _____ _____    ______ ____
ROOT
ATOM      1  C   UNL     1       7.035   6.731  17.359  0.00  0.00    +0.000 C 
ATOM      2  C   UNL     1       7.066   8.071  17.461  0.00  0.00    +0.000 C 
ENDROOT
BRANCH   2   3
ATOM      3  C   UNL     1       8.223   8.645  18.192  0.00  0.00    +0.000 C 
ATOM      4  O   UNL     1       8.892   7.920  18.923  0.00  0.00    +0.000 OA
ATOM      5  N   UNL     1       8.412  10.000  17.996  0.00  0.00    +0.000 N 
ATOM      6  H   UNL     1       7.704  10.513  17.495  0.00  0.00    +0.000 HD
BRANCH   5   7
ATOM      7  C   UNL     1       9.473  10.752  18.560  0.00  0.00    +0.000 A 
ATOM      8  C   UNL     1      10.543  11.240  17.803  0.00  0.00    +0.000 A 
ATOM      9  C   UNL     1      11.587  11.944  18.402  0.00  0.00    +0.000 A 
ATOM     10  C   UNL     1      11.573  12.180  19.771  0.00  0.00    +0.000 A 
ATOM     11  C   UNL     1      10.501  11.723  20.536  0.00  0.00    +0.000 A 
ATOM     12  C   UNL     1       9.448  11.022  19.931  0.00  0.00    +0.000 A 
ENDBRANCH   5   7
ENDBRANCH   2   3
BRANCH   1  13
ATOM     13  C   UNL     1       5.962   6.016  16.628  0.00  0.00    +0.000 C 
ATOM     14  O   UNL     1       5.938   5.984  15.402  0.00  0.00    +0.000 OA
BRANCH  13  18
ATOM     15  C   UNL     1       2.932   3.895  18.870  0.00  0.00    +0.000 A 
ATOM     16  C   UNL     1       2.663   5.122  18.242  0.00  0.00    +0.000 A 
ATOM     17  C   UNL     1       3.660   5.807  17.538  0.00  0.00    +0.000 A 
ATOM     18  C   UNL     1       4.949   5.273  17.438  0.00  0.00    +0.000 A 
ATOM     19  C   UNL     1       5.234   4.064  18.085  0.00  0.00    +0.000 A 
ATOM     20  C   UNL     1       4.232   3.379  18.786  0.00  0.00    +0.000 A 
BRANCH  15  22
ATOM     21  C   UNL     1       0.982   4.111  20.418  0.00  0.00    +0.000 C 
ATOM     22  C   UNL     1       1.798   3.145  19.554  0.00  0.00    +0.000 C 
ATOM     23  C   UNL     1       0.870   2.384  18.600  0.00  0.00    +0.000 C 
ENDBRANCH  15  22
ENDBRANCH  13  18
ENDBRANCH   1  13
TORSDOF 5
ENDMDL
MODEL 4
REMARK VINA RESULT:      -8.1      0.846      1.473
REMARK  Name = 
REMARK  7 active torsions:
REMARK  status: ('A' for Active; 'I' for Inactive)
REMARK    1  A    between atoms: C_1  and  C_2
REMARK    2  A    between atoms: C_2  and  C_3
REMARK    3  A    between atoms: C_2  and  C_4
REMARK    4  A    between atoms: C_7  and  C_8
REMARK    5  A    between atoms: C_8  and  C_10
REMARK    6  A    between atoms: C_11  and  C_12
REMARK    7  A    between atoms: N_14  and  C_15
REMARK                            x       y       z     vdW  Elec       q    Type
REMARK                         _______ _______ _______ _____ _____    ______ ____
ROOT
ATOM      1  C   UNL     1       7.238   7.394  17.368  0.00  0.00    +0.000 C 
ATOM      2  C   UNL     1       8.149   7.719  18.301  0.00  0.00    +0.000 C 
ENDROOT
BRANCH   2   3
ATOM      3  C   UNL     1       8.471   9.163  18.427  0.00  0.00    +0.000 C 
ATOM      4  O   UNL     1       7.993   9.957  17.622  0.00  0.00    +0.000 OA
ATOM      5  N   UNL     1       9.342   9.470  19.455  0.00  0.00    +0.000 N 
ATOM      6  H   UNL     1       9.783   8.711  19.949  0.00  0.00    +0.000 HD
BRANCH   5   7
ATOM      7  C   UNL     1       9.758  10.783  19.787  0.00  0.00    +0.000 A 
ATOM      8  C   UNL     1      10.658  11.515  19.006  0.00  0.00    +0.000 A 
ATOM      9  C   UNL     1      11.073  12.791  19.387  0.00  0.00    +0.000 A 
ATOM     10  C   UNL     1      10.583  13.361  20.556  0.00  0.00    +0.000 A 
ATOM     11  C   UNL     1       9.664  12.656  21.333  0.00  0.00    +0.000 A 
ATOM     12  C   UNL     1       9.244  11.377  20.944  0.00  0.00    +0.000 A 
ENDBRANCH   5   7
ENDBRANCH   2   3
BRANCH   1  13
ATOM     13  C   UNL     1       6.790   5.998  17.150  0.00  0.00    +0.000 C 
ATOM     14  O   UNL     1       7.479   5.197  16.527  0.00  0.00    +0.000 OA
BRANCH  13  18
ATOM     15  C   UNL     1       3.001   4.767  18.835  0.00  0.00    +0.000 A 
ATOM     16  C   UNL     1       3.072   5.632  17.730  0.00  0.00    +0.000 A 
ATOM     17  C   UNL     1       4.307   6.038  17.210  0.00  0.00    +0.000 A 
ATOM     18  C   UNL     1       5.500   5.579  17.778  0.00  0.00    +0.000 A 
ATOM     19  C   UNL     1       5.439   4.739  18.897  0.00  0.00    +0.000 A 
ATOM     20  C   UNL     1       4.201   4.331  19.413  0.00  0.00    +0.000 A 
BRANCH  15  22
ATOM     21  C   UNL     1       1.239   3.017  18.556  0.00  0.00    +0.000 C 
ATOM     22  C   UNL     1       1.640   4.285  19.316  0.00  0.00    +0.000 C 
ATOM     23  C   UNL     1       1.546   4.043  20.826  0.00  0.00    +0.000 C 
ENDBRANCH  15  22
ENDBRANCH  13  18
ENDBRANCH   1  13
TORSDOF 5
ENDMDL
MODEL 5
REMARK VINA RESULT:      -8.1      0.379      1.324
REMARK  Name = 
REMARK  7 active torsions:
REMARK  status: ('A' for Active; 'I' for Inactive)
REMARK    1  A    between atoms: C_1  and  C_2
REMARK    2  A    between atoms: C_2  and  C_3
REMARK    3  A    between atoms: C_2  and  C_4
REMARK    4  A    between atoms: C_7  and  C_8
REMARK    5  A    between atoms: C_8  and  C_10
REMARK    6  A    between atoms: C_11  and  C_12
REMARK    7  A    between atoms: N_14  and  C_15
REMARK                            x       y       z     vdW  Elec       q    Type
REMARK                         _______ _______ _______ _____ _____    ______ ____
ROOT
ATOM      1  C   UNL     1       7.357   6.790  17.358  0.00  0.00    +0.000 C 
ATOM      2  C   UNL     1       8.072   7.320  18.365  0.00  0.00    +0.000 C 
ENDROOT
BRANCH   2   3
ATOM      3  C   UNL     1       8.283   8.788  18.317  0.00  0.00    +0.000 C 
ATOM      4  O   UNL     1       7.642   9.461  17.515  0.00  0.00    +0.000 OA
ATOM      5  N   UNL     1       9.246   9.259  19.190  0.00  0.00    +0.000 N 
ATOM      6  H   UNL     1       9.808   8.588  19.687  0.00  0.00    +0.000 HD
BRANCH   5   7
ATOM      7  C   UNL     1       9.587  10.626  19.345  0.00  0.00    +0.000 A 
ATOM      8  C   UNL     1       9.456  11.307  20.560  0.00  0.00    +0.000 A 
ATOM      9  C   UNL     1       9.768  12.663  20.663  0.00  0.00    +0.000 A 
ATOM     10  C   UNL     1      10.225  13.359  19.551  0.00  0.00    +0.000 A 
ATOM     11  C   UNL     1      10.386  12.688  18.339  0.00  0.00    +0.000 A 
ATOM     12  C   UNL     1      10.080  11.324  18.239  0.00  0.00    +0.000 A 
ENDBRANCH   5   7
ENDBRANCH   2   3
BRANCH   1  13
ATOM     13  C   UNL     1       7.035   5.346  17.288  0.00  0.00    +0.000 C 
ATOM     14  O   UNL     1       7.828   4.538  16.814  0.00  0.00    +0.000 OA
BRANCH  13  18
ATOM     15  C   UNL     1       3.314   3.906  18.958  0.00  0.00    +0.000 A 
ATOM     16  C   UNL     1       3.792   3.452  17.719  0.00  0.00    +0.000 A 
ATOM     17  C   UNL     1       4.987   3.943  17.182  0.00  0.00    +0.000 A 
ATOM     18  C   UNL     1       5.738   4.895  17.879  0.00  0.00    +0.000 A 
ATOM     19  C   UNL     1       5.255   5.375  19.103  0.00  0.00    +0.000 A 
ATOM     20  C   UNL     1       4.059   4.878  19.640  0.00  0.00    +0.000 A 
BRANCH  15  22
ATOM     21  C   UNL     1       1.401   4.261  20.527  0.00  0.00    +0.000 C 
ATOM     22  C   UNL     1       2.054   3.285  19.544  0.00  0.00    +0.000 C 
ATOM     23  C   UNL     1       1.027   2.825  18.503  0.00  0.00    +0.000 C 
ENDBRANCH  15  22
ENDBRANCH  13  18
ENDBRANCH   1  13
TORSDOF 5
ENDMDL
MODEL 6
REMARK VINA RESULT:      -8.0      0.922      1.017
REMARK  Name = 
REMARK  7 active torsions:
REMARK  status: ('A' for Active; 'I' for Inactive)
REMARK    1  A    between atoms: C_1  and  C_2
REMARK    2  A    between atoms: C_2  and  C_3
REMARK    3  A    between atoms: C_2  and  C_4
REMARK    4  A    between atoms: C_7  and  C_8
REMARK    5  A    between atoms: C_8  and  C_10
REMARK    6  A    between atoms: C_11  and  C_12
REMARK    7  A    between atoms: N_14  and  C_15
REMARK                            x       y       z     vdW  Elec       q    Type
REMARK                         _______ _______ _______ _____ _____    ______ ____
ROOT
ATOM      1  C   UNL     1       7.066   7.587  17.450  0.00  0.00    +0.000 C 
ATOM      2  C   UNL     1       8.198   7.876  18.114  0.00  0.00    +0.000 C 
ENDROOT
BRANCH   2   3
ATOM      3  C   UNL     1       8.449   9.313  18.386  0.00  0.00    +0.000 C 
ATOM      4  O   UNL     1       7.899  10.161  17.690  0.00  0.00    +0.000 OA
ATOM      5  N   UNL     1       9.343   9.557  19.411  0.00  0.00    +0.000 N 
ATOM      6  H   UNL     1       9.843   8.775  19.804  0.00  0.00    +0.000 HD
BRANCH   5   7
ATOM      7  C   UNL     1       9.704  10.848  19.871  0.00  0.00    +0.000 A 
ATOM      8  C   UNL     1       9.141  11.432  21.011  0.00  0.00    +0.000 A 
ATOM      9  C   UNL     1       9.495  12.721  21.409  0.00  0.00    +0.000 A 
ATOM     10  C   UNL     1      10.428  13.445  20.677  0.00  0.00    +0.000 A 
ATOM     11  C   UNL     1      11.019  12.866  19.554  0.00  0.00    +0.000 A 
ATOM     12  C   UNL     1      10.667  11.568  19.159  0.00  0.00    +0.000 A 
ENDBRANCH   5   7
ENDBRANCH   2   3
BRANCH   1  13
ATOM     13  C   UNL     1       6.663   6.196  17.137  0.00  0.00    +0.000 C 
ATOM     14  O   UNL     1       7.387   5.455  16.480  0.00  0.00    +0.000 OA
BRANCH  13  18
ATOM     15  C   UNL     1       2.865   4.817  18.681  0.00  0.00    +0.000 A 
ATOM     16  C   UNL     1       2.998   6.065  18.053  0.00  0.00    +0.000 A 
ATOM     17  C   UNL     1       4.238   6.507  17.577  0.00  0.00    +0.000 A 
ATOM     18  C   UNL     1       5.374   5.702  17.711  0.00  0.00    +0.000 A 
ATOM     19  C   UNL     1       5.257   4.467  18.361  0.00  0.00    +0.000 A 
ATOM     20  C   UNL     1       4.012   4.027  18.833  0.00  0.00    +0.000 A 
BRANCH  15  22
ATOM     21  C   UNL     1       1.181   2.982  18.469  0.00  0.00    +0.000 C 
ATOM     22  C   UNL     1       1.483   4.341  19.107  0.00  0.00    +0.000 C 
ATOM     23  C   UNL     1       1.275   4.266  20.623  0.00  0.00    +0.000 C 
ENDBRANCH  15  22
ENDBRANCH  13  18
ENDBRANCH   1  13
TORSDOF 5
ENDMDL
MODEL 7
REMARK VINA RESULT:      -8.0      0.727      1.252
REMARK  Name = 
REMARK  7 active torsions:
REMARK  status: ('A' for Active; 'I' for Inactive)
REMARK    1  A    between atoms: C_1  and  C_2
REMARK    2  A    between atoms: C_2  and  C_3
REMARK    3  A    between atoms: C_2  and  C_4
REMARK    4  A    between atoms: C_7  and  C_8
REMARK    5  A    between atoms: C_8  and  C_10
REMARK    6  A    between atoms: C_11  and  C_12
REMARK    7  A    between atoms: N_14  and  C_15
REMARK                            x       y       z     vdW  Elec       q    Type
REMARK                         _______ _______ _______ _____ _____    ______ ____
ROOT
ATOM      1  C   UNL     1       7.804   6.697  18.268  0.00  0.00    +0.000 C 
ATOM      2  C   UNL     1       7.457   7.726  17.477  0.00  0.00    +0.000 C 
ENDROOT
BRANCH   2   3
ATOM      3  C   UNL     1       7.966   9.062  17.879  0.00  0.00    +0.000 C 
ATOM      4  O   UNL     1       7.560  10.060  17.293  0.00  0.00    +0.000 OA
ATOM      5  N   UNL     1       8.913   9.037  18.886  0.00  0.00    +0.000 N 
ATOM      6  H   UNL     1       9.275   8.144  19.178  0.00  0.00    +0.000 HD
BRANCH   5   7
ATOM      7  C   UNL     1       9.508  10.190  19.455  0.00  0.00    +0.000 A 
ATOM      8  C   UNL     1      10.540  10.899  18.830  0.00  0.00    +0.000 A 
ATOM      9  C   UNL     1      11.125  12.008  19.441  0.00  0.00    +0.000 A 
ATOM     10  C   UNL     1      10.679  12.433  20.686  0.00  0.00    +0.000 A 
ATOM     11  C   UNL     1       9.634  11.754  21.311  0.00  0.00    +0.000 A 
ATOM     12  C   UNL     1       9.042  10.644  20.692  0.00  0.00    +0.000 A 
ENDBRANCH   5   7
ENDBRANCH   2   3
BRANCH   1  13
ATOM     13  C   UNL     1       7.401   5.301  17.976  0.00  0.00    +0.000 C 
ATOM     14  O   UNL     1       8.226   4.454  17.650  0.00  0.00    +0.000 OA
BRANCH  13  18
ATOM     15  C   UNL     1       3.217   4.388  18.584  0.00  0.00    +0.000 A 
ATOM     16  C   UNL     1       3.997   4.981  19.589  0.00  0.00    +0.000 A 
ATOM     17  C   UNL     1       5.355   5.251  19.385  0.00  0.00    +0.000 A 
ATOM     18  C   UNL     1       5.962   4.942  18.163  0.00  0.00    +0.000 A 
ATOM     19  C   UNL     1       5.199   4.325  17.164  0.00  0.00    +0.000 A 
ATOM     20  C   UNL     1       3.838   4.059  17.371  0.00  0.00    +0.000 A 
BRANCH  15  22
ATOM     21  C   UNL     1       1.328   2.758  18.446  0.00  0.00    +0.000 C 
ATOM     22  C   UNL     1       1.726   4.189  18.819  0.00  0.00    +0.000 C 
ATOM     23  C   UNL     1       1.257   4.510  20.241  0.00  0.00    +0.000 C 
ENDBRANCH  15  22
ENDBRANCH  13  18
ENDBRANCH   1  13
TORSDOF 5
ENDMDL
MODEL 8
REMARK VINA RESULT:      -8.0      0.595      1.562
REMARK  Name = 
REMARK  7 active torsions:
REMARK  status: ('A' for Active; 'I' for Inactive)
REMARK    1  A    between atoms: C_1  and  C_2
REMARK    2  A    between atoms: C_2  and  C_3
REMARK    3  A    between atoms: C_2  and  C_4
REMARK    4  A    between atoms: C_7  and  C_8
REMARK    5  A    between atoms: C_8  and  C_10
REMARK    6  A    between atoms: C_11  and  C_12
REMARK    7  A    between atoms: N_14  and  C_15
REMARK                            x       y       z     vdW  Elec       q    Type
REMARK                         _______ _______ _______ _____ _____    ______ ____
ROOT
ATOM      1  C   UNL     1       6.748   6.767  17.712  0.00  0.00    +0.000 C 
ATOM      2  C   UNL     1       7.979   7.172  18.065  0.00  0.00    +0.000 C 
ENDROOT
BRANCH   2   3
ATOM      3  C   UNL     1       8.191   8.640  18.134  0.00  0.00    +0.000 C 
ATOM      4  O   UNL     1       7.565   9.373  17.375  0.00  0.00    +0.000 OA
ATOM      5  N   UNL     1       9.138   9.041  19.058  0.00  0.00    +0.000 N 
ATOM      6  H   UNL     1       9.692   8.332  19.511  0.00  0.00    +0.000 HD
BRANCH   5   7
ATOM      7  C   UNL     1       9.477  10.391  19.324  0.00  0.00    +0.000 A 
ATOM      8  C   UNL     1       9.952  11.263  18.339  0.00  0.00    +0.000 A 
ATOM      9  C   UNL     1      10.310  12.575  18.650  0.00  0.00    +0.000 A 
ATOM     10  C   UNL     1      10.189  13.039  19.954  0.00  0.00    +0.000 A 
ATOM     11  C   UNL     1       9.692  12.191  20.943  0.00  0.00    +0.000 A 
ATOM     12  C   UNL     1       9.326  10.875  20.627  0.00  0.00    +0.000 A 
ENDBRANCH   5   7
ENDBRANCH   2   3
BRANCH   1  13
ATOM     13  C   UNL     1       6.376   5.335  17.634  0.00  0.00    +0.000 C 
ATOM     14  O   UNL     1       7.160   4.495  17.203  0.00  0.00    +0.000 OA
BRANCH  13  18
ATOM     15  C   UNL     1       2.530   4.044  19.134  0.00  0.00    +0.000 A 
ATOM     16  C   UNL     1       3.053   3.556  17.926  0.00  0.00    +0.000 A 
ATOM     17  C   UNL     1       4.290   3.999  17.443  0.00  0.00    +0.000 A 
ATOM     18  C   UNL     1       5.037   4.936  18.165  0.00  0.00    +0.000 A 
ATOM     19  C   UNL     1       4.511   5.449  19.357  0.00  0.00    +0.000 A 
ATOM     20  C   UNL     1       3.274   5.000  19.840  0.00  0.00    +0.000 A 
BRANCH  15  22
ATOM     21  C   UNL     1       0.733   2.353  18.741  0.00  0.00    +0.000 C 
ATOM     22  C   UNL     1       1.223   3.473  19.664  0.00  0.00    +0.000 C 
ATOM     23  C   UNL     1       1.285   2.971  21.110  0.00  0.00    +0.000 C 
ENDBRANCH  15  22
ENDBRANCH  13  18
ENDBRANCH   1  13
TORSDOF 5
ENDMDL
MODEL 9
REMARK VINA RESULT:      -7.9      1.166      1.717
REMARK  Name = 
REMARK  7 active torsions:
REMARK  status: ('A' for Active; 'I' for Inactive)
REMARK    1  A    between atoms: C_1  and  C_2
REMARK    2  A    between atoms: C_2  and  C_3
REMARK    3  A    between atoms: C_2  and  C_4
REMARK    4  A    between atoms: C_7  and  C_8
REMARK    5  A    between atoms: C_8  and  C_10
REMARK    6  A    between atoms: C_11  and  C_12
REMARK    7  A    between atoms: N_14  and  C_15
REMARK                            x       y       z     vdW  Elec       q    Type
REMARK                         _______ _______ _______ _____ _____    ______ ____
ROOT
ATOM      1  C   UNL     1       6.973   6.724  17.534  0.00  0.00    +0.000 C 
ATOM      2  C   UNL     1       7.174   8.045  17.390  0.00  0.00    +0.000 C 
ENDROOT
BRANCH   2   3
ATOM      3  C   UNL     1       8.273   8.632  18.197  0.00  0.00    +0.000 C 
ATOM      4  O   UNL     1       8.901   7.913  18.969  0.00  0.00    +0.000 OA
ATOM      5  N   UNL     1       8.458   9.989  18.015  0.00  0.00    +0.000 N 
ATOM      6  H   UNL     1       7.778  10.494  17.469  0.00  0.00    +0.000 HD
BRANCH   5   7
ATOM      7  C   UNL     1       9.470  10.752  18.649  0.00  0.00    +0.000 A 
ATOM      8  C   UNL     1       9.477  11.013  20.023  0.00  0.00    +0.000 A 
ATOM      9  C   UNL     1      10.471  11.800  20.603  0.00  0.00    +0.000 A 
ATOM     10  C   UNL     1      11.484  12.334  19.815  0.00  0.00    +0.000 A 
ATOM     11  C   UNL     1      11.507  12.062  18.447  0.00  0.00    +0.000 A 
ATOM     12  C   UNL     1      10.511  11.265  17.868  0.00  0.00    +0.000 A 
ENDBRANCH   5   7
ENDBRANCH   2   3
BRANCH   1  13
ATOM     13  C   UNL     1       5.936   5.991  16.770  0.00  0.00    +0.000 C 
ATOM     14  O   UNL     1       6.005   5.877  15.550  0.00  0.00    +0.000 OA
BRANCH  13  18
ATOM     15  C   UNL     1       2.787   3.964  18.934  0.00  0.00    +0.000 A 
ATOM     16  C   UNL     1       2.948   3.811  17.547  0.00  0.00    +0.000 A 
ATOM     17  C   UNL     1       3.959   4.490  16.858  0.00  0.00    +0.000 A 
ATOM     18  C   UNL     1       4.840   5.333  17.544  0.00  0.00    +0.000 A 
ATOM     19  C   UNL     1       4.670   5.514  18.922  0.00  0.00    +0.000 A 
ATOM     20  C   UNL     1       3.658   4.829  19.610  0.00  0.00    +0.000 A 
BRANCH  15  22
ATOM     21  C   UNL     1       1.273   3.878  20.920  0.00  0.00    +0.000 C 
ATOM     22  C   UNL     1       1.728   3.143  19.656  0.00  0.00    +0.000 C 
ATOM     23  C   UNL     1       0.513   2.774  18.798  0.00  0.00    +0.000 C 
ENDBRANCH  15  22
ENDBRANCH  13  18
ENDBRANCH   1  13
TORSDOF 5
ENDMDL
