MODEL 1
REMARK VINA RESULT:      -8.1      0.000      0.000
REMARK  Name = 
REMARK  8 active torsions:
REMARK  status: ('A' for Active; 'I' for Inactive)
REMARK    1  A    between atoms: C_2  and  C_3
REMARK    2  A    between atoms: C_3  and  C_19
REMARK    3  A    between atoms: C_4  and  C_5
REMARK    4  A    between atoms: C_8  and  C_9
REMARK    5  A    between atoms: C_12  and  C_13
REMARK    6  A    between atoms: C_13  and  O_15
REMARK    7  A    between atoms: N_21  and  C_22
REMARK    8  A    between atoms: C_25  and  C_26
REMARK                            x       y       z     vdW  Elec       q    Type
REMARK                         _______ _______ _______ _____ _____    ______ ____
ROOT
ATOM      1  C   UNL     1       1.375   8.583  20.697  0.00  0.00    +0.000 C 
ATOM      2  C   UNL     1       1.503   7.311  21.134  0.00  0.00    +0.000 C 
ENDROOT
BRANCH   2   3
ATOM      3  C   UNL     1       1.872   6.228  20.268  0.00  0.00    +0.000 A 
ATOM      4  C   UNL     1       1.327   4.954  20.167  0.00  0.00    +0.000 A 
ATOM      5  C   UNL     1       2.024   4.253  19.147  0.00  0.00    +0.000 A 
ATOM      6  C   UNL     1       2.970   5.120  18.647  0.00  0.00    +0.000 A 
ATOM      7  O   UNL     1       2.896   6.293  19.342  0.00  0.00    +0.000 OA
BRANCH   6   8
ATOM      8  C   UNL     1       3.964   5.053  17.570  0.00  0.00    +0.000 A 
ATOM      9  C   UNL     1       4.368   3.818  17.040  0.00  0.00    +0.000 A 
ATOM     10  C   UNL     1       5.281   3.748  15.977  0.00  0.00    +0.000 A 
ATOM     11  C   UNL     1       5.819   4.915  15.424  0.00  0.00    +0.000 A 
ATOM     12  C   UNL     1       5.428   6.155  15.940  0.00  0.00    +0.000 A 
ATOM     13  C   UNL     1       4.514   6.216  17.005  0.00  0.00    +0.000 A 
BRANCH  11  14
ATOM     14  C   UNL     1       6.739   4.772  14.261  0.00  0.00    +0.000 C 
ATOM     15  O   UNL     1       6.561   3.941  13.386  0.00  0.00    +0.000 OA
BRANCH  14  16
ATOM     16  O   UNL     1       7.803   5.600  14.274  0.00  0.00    +0.000 OA
ATOM     17  H   UNL     1       7.795   6.295  14.956  0.00  0.00    +0.000 HD
ENDBRANCH  14  16
ENDBRANCH  11  14
ENDBRANCH   6   8
ENDBRANCH   2   3
BRANCH   1  18
ATOM     18  C   UNL     1       0.945   9.677  21.620  0.00  0.00    +0.000 C 
ATOM     19  O   UNL     1       1.488   9.767  22.714  0.00  0.00    +0.000 OA
ATOM     20  N   UNL     1      -0.093  10.497  21.168  0.00  0.00    +0.000 N 
ATOM     21  H   UNL     1      -0.574  10.271  20.302  0.00  0.00    +0.000 HD
BRANCH  20  22
ATOM     22  C   UNL     1      -0.630  11.605  21.878  0.00  0.00    +0.000 A 
ATOM     23  C   UNL     1      -0.078  12.889  21.789  0.00  0.00    +0.000 A 
ATOM     24  C   UNL     1      -0.607  13.961  22.515  0.00  0.00    +0.000 A 
ATOM     25  C   UNL     1      -1.709  13.765  23.346  0.00  0.00    +0.000 A 
ATOM     26  C   UNL     1      -2.274  12.498  23.428  0.00  0.00    +0.000 A 
ATOM     27  F   UNL     1      -3.323  12.278  24.233  0.00  0.00    +0.000 F 
ATOM     28  C   UNL     1      -1.754  11.421  22.692  0.00  0.00    +0.000 A 
BRANCH  25  29
ATOM     29  C   UNL     1      -2.243  14.864  24.090  0.00  0.00    +0.000 C 
ATOM     30  N   UNL     1      -2.658  15.742  24.731  0.00  0.00    +0.000 NA
ENDBRANCH  25  29
ENDBRANCH  20  22
ENDBRANCH   1  18
BRANCH   1  32
ATOM     31  N   UNL     1       1.644   9.104  17.979  0.00  0.00    +0.000 NA
ATOM     32  C   UNL     1       1.522   8.868  19.211  0.00  0.00    +0.000 C 
ENDBRANCH   1  32
TORSDOF 8
ENDMDL
MODEL 2
REMARK VINA RESULT:      -8.0      0.186      1.068
REMARK  Name = 
REMARK  8 active torsions:
REMARK  status: ('A' for Active; 'I' for Inactive)
REMARK    1  A    between atoms: C_2  and  C_3
REMARK    2  A    between atoms: C_3  and  C_19
REMARK    3  A    between atoms: C_4  and  C_5
REMARK    4  A    between atoms: C_8  and  C_9
REMARK    5  A    between atoms: C_12  and  C_13
REMARK    6  A    between atoms: C_13  and  O_15
REMARK    7  A    between atoms: N_21  and  C_22
REMARK    8  A    between atoms: C_25  and  C_26
REMARK                            x       y       z     vdW  Elec       q    Type
REMARK                         _______ _______ _______ _____ _____    ______ ____
ROOT
ATOM      1  C   UNL     1       1.367   8.512  20.687  0.00  0.00    +0.000 C 
ATOM      2  C   UNL     1       1.547   7.252  21.140  0.00  0.00    +0.000 C 
ENDROOT
BRANCH   2   3
ATOM      3  C   UNL     1       1.909   6.163  20.278  0.00  0.00    +0.000 A 
ATOM      4  C   UNL     1       1.387   4.876  20.217  0.00  0.00    +0.000 A 
ATOM      5  C   UNL     1       2.063   4.173  19.184  0.00  0.00    +0.000 A 
ATOM      6  C   UNL     1       2.972   5.051  18.637  0.00  0.00    +0.000 A 
ATOM      7  O   UNL     1       2.897   6.234  19.317  0.00  0.00    +0.000 OA
BRANCH   6   8
ATOM      8  C   UNL     1       3.929   4.988  17.527  0.00  0.00    +0.000 A 
ATOM      9  C   UNL     1       4.451   6.162  16.961  0.00  0.00    +0.000 A 
ATOM     10  C   UNL     1       5.403   6.109  15.932  0.00  0.00    +0.000 A 
ATOM     11  C   UNL     1       5.848   4.878  15.437  0.00  0.00    +0.000 A 
ATOM     12  C   UNL     1       5.338   3.699  15.989  0.00  0.00    +0.000 A 
ATOM     13  C   UNL     1       4.385   3.760  17.019  0.00  0.00    +0.000 A 
BRANCH  11  14
ATOM     14  C   UNL     1       6.901   4.894  14.383  0.00  0.00    +0.000 C 
ATOM     15  O   UNL     1       7.911   5.571  14.479  0.00  0.00    +0.000 OA
BRANCH  14  16
ATOM     16  O   UNL     1       6.631   4.136  13.301  0.00  0.00    +0.000 OA
ATOM     17  H   UNL     1       5.738   3.751  13.261  0.00  0.00    +0.000 HD
ENDBRANCH  14  16
ENDBRANCH  11  14
ENDBRANCH   6   8
ENDBRANCH   2   3
BRANCH   1  18
ATOM     18  C   UNL     1       0.947   9.611  21.607  0.00  0.00    +0.000 C 
ATOM     19  O   UNL     1       1.378   9.612  22.753  0.00  0.00    +0.000 OA
ATOM     20  N   UNL     1       0.042  10.543  21.088  0.00  0.00    +0.000 N 
ATOM     21  H   UNL     1      -0.364  10.393  20.169  0.00  0.00    +0.000 HD
BRANCH  20  22
ATOM     22  C   UNL     1      -0.461  11.673  21.787  0.00  0.00    +0.000 A 
ATOM     23  C   UNL     1       0.130  12.939  21.684  0.00  0.00    +0.000 A 
ATOM     24  C   UNL     1      -0.366  14.034  22.399  0.00  0.00    +0.000 A 
ATOM     25  C   UNL     1      -1.472  13.881  23.233  0.00  0.00    +0.000 A 
ATOM     26  C   UNL     1      -2.076  12.632  23.328  0.00  0.00    +0.000 A 
ATOM     27  F   UNL     1      -3.130  12.452  24.135  0.00  0.00    +0.000 F 
ATOM     28  C   UNL     1      -1.589  11.532  22.604  0.00  0.00    +0.000 A 
BRANCH  25  29
ATOM     29  C   UNL     1      -1.973  15.003  23.966  0.00  0.00    +0.000 C 
ATOM     30  N   UNL     1      -2.365  15.896  24.599  0.00  0.00    +0.000 NA
ENDBRANCH  25  29
ENDBRANCH  20  22
ENDBRANCH   1  18
BRANCH   1  32
ATOM     31  N   UNL     1       1.508   8.988  17.950  0.00  0.00    +0.000 NA
ATOM     32  C   UNL     1       1.444   8.772  19.191  0.00  0.00    +0.000 C 
ENDBRANCH   1  32
TORSDOF 8
ENDMDL
MODEL 3
REMARK VINA RESULT:      -7.8      4.350     11.621
REMARK  Name = 
REMARK  8 active torsions:
REMARK  status: ('A' for Active; 'I' for Inactive)
REMARK    1  A    between atoms: C_2  and  C_3
REMARK    2  A    between atoms: C_3  and  C_19
REMARK    3  A    between atoms: C_4  and  C_5
REMARK    4  A    between atoms: C_8  and  C_9
REMARK    5  A    between atoms: C_12  and  C_13
REMARK    6  A    between atoms: C_13  and  O_15
REMARK    7  A    between atoms: N_21  and  C_22
REMARK    8  A    between atoms: C_25  and  C_26
REMARK                            x       y       z     vdW  Elec       q    Type
REMARK                         _______ _______ _______ _____ _____    ______ ____
ROOT
ATOM      1  C   UNL     1       1.042   9.229  20.843  0.00  0.00    +0.000 C 
ATOM      2  C   UNL     1       0.367  10.187  20.170  0.00  0.00    +0.000 C 
ENDROOT
BRANCH   2   3
ATOM      3  C   UNL     1      -0.228  11.318  20.823  0.00  0.00    +0.000 A 
ATOM      4  C   UNL     1       0.284  12.596  21.015  0.00  0.00    +0.000 A 
ATOM      5  C   UNL     1      -0.693  13.367  21.700  0.00  0.00    +0.000 A 
ATOM      6  C   UNL     1      -1.778  12.543  21.899  0.00  0.00    +0.000 A 
ATOM      7  O   UNL     1      -1.484  11.307  21.399  0.00  0.00    +0.000 OA
BRANCH   6   8
ATOM      8  C   UNL     1      -3.114  12.717  22.482  0.00  0.00    +0.000 A 
ATOM      9  C   UNL     1      -4.207  13.075  21.677  0.00  0.00    +0.000 A 
ATOM     10  C   UNL     1      -5.496  13.196  22.218  0.00  0.00    +0.000 A 
ATOM     11  C   UNL     1      -5.720  12.971  23.580  0.00  0.00    +0.000 A 
ATOM     12  C   UNL     1      -4.641  12.614  24.397  0.00  0.00    +0.000 A 
ATOM     13  C   UNL     1      -3.354  12.496  23.847  0.00  0.00    +0.000 A 
BRANCH  11  14
ATOM     14  C   UNL     1      -7.121  13.061  24.078  0.00  0.00    +0.000 C 
ATOM     15  O   UNL     1      -7.916  12.143  23.961  0.00  0.00    +0.000 OA
BRANCH  14  16
ATOM     16  O   UNL     1      -7.453  14.247  24.626  0.00  0.00    +0.000 OA
ATOM     17  H   UNL     1      -8.334  14.296  25.038  0.00  0.00    +0.000 HD
ENDBRANCH  14  16
ENDBRANCH  11  14
ENDBRANCH   6   8
ENDBRANCH   2   3
BRANCH   1  18
ATOM     18  C   UNL     1       1.610   8.043  20.134  0.00  0.00    +0.000 C 
ATOM     19  O   UNL     1       2.064   8.196  19.008  0.00  0.00    +0.000 OA
ATOM     20  N   UNL     1       1.534   6.822  20.812  0.00  0.00    +0.000 N 
ATOM     21  H   UNL     1       1.024   6.762  21.688  0.00  0.00    +0.000 HD
BRANCH  20  22
ATOM     22  C   UNL     1       2.036   5.584  20.327  0.00  0.00    +0.000 A 
ATOM     23  C   UNL     1       1.245   4.430  20.264  0.00  0.00    +0.000 A 
ATOM     24  C   UNL     1       1.765   3.215  19.805  0.00  0.00    +0.000 A 
ATOM     25  C   UNL     1       3.095   3.134  19.396  0.00  0.00    +0.000 A 
ATOM     26  C   UNL     1       3.883   4.279  19.438  0.00  0.00    +0.000 A 
ATOM     27  F   UNL     1       5.170   4.226  19.066  0.00  0.00    +0.000 F 
ATOM     28  C   UNL     1       3.363   5.504  19.887  0.00  0.00    +0.000 A 
BRANCH  25  29
ATOM     29  C   UNL     1       3.623   1.889  18.931  0.00  0.00    +0.000 C 
ATOM     30  N   UNL     1       4.070   0.869  18.595  0.00  0.00    +0.000 NA
ENDBRANCH  25  29
ENDBRANCH  20  22
ENDBRANCH   1  18
BRANCH   1  32
ATOM     31  N   UNL     1       1.120   9.340  23.621  0.00  0.00    +0.000 NA
ATOM     32  C   UNL     1       1.085   9.290  22.361  0.00  0.00    +0.000 C 
ENDBRANCH   1  32
TORSDOF 8
ENDMDL
MODEL 4
REMARK VINA RESULT:      -7.8      1.098      1.247
REMARK  Name = 
REMARK  8 active torsions:
REMARK  status: ('A' for Active; 'I' for Inactive)
REMARK    1  A    between atoms: C_2  and  C_3
REMARK    2  A    between atoms: C_3  and  C_19
REMARK    3  A    between atoms: C_4  and  C_5
REMARK    4  A    between atoms: C_8  and  C_9
REMARK    5  A    between atoms: C_12  and  C_13
REMARK    6  A    between atoms: C_13  and  O_15
REMARK    7  A    between atoms: N_21  and  C_22
REMARK    8  A    between atoms: C_25  and  C_26
REMARK                            x       y       z     vdW  Elec       q    Type
REMARK                         _______ _______ _______ _____ _____    ______ ____
ROOT
ATOM      1  C   UNL     1       1.190   9.312  20.248  0.00  0.00    +0.000 C 
ATOM      2  C   UNL     1       1.349   8.180  20.967  0.00  0.00    +0.000 C 
ENDROOT
BRANCH   2   3
ATOM      3  C   UNL     1       1.842   6.960  20.394  0.00  0.00    +0.000 A 
ATOM      4  C   UNL     1       1.472   5.647  20.660  0.00  0.00    +0.000 A 
ATOM      5  C   UNL     1       2.235   4.793  19.820  0.00  0.00    +0.000 A 
ATOM      6  C   UNL     1       3.043   5.607  19.058  0.00  0.00    +0.000 A 
ATOM      7  O   UNL     1       2.827   6.904  19.426  0.00  0.00    +0.000 OA
BRANCH   6   8
ATOM      8  C   UNL     1       4.013   5.381  17.979  0.00  0.00    +0.000 A 
ATOM      9  C   UNL     1       4.130   4.121  17.371  0.00  0.00    +0.000 A 
ATOM     10  C   UNL     1       5.019   3.909  16.307  0.00  0.00    +0.000 A 
ATOM     11  C   UNL     1       5.821   4.953  15.832  0.00  0.00    +0.000 A 
ATOM     12  C   UNL     1       5.717   6.215  16.426  0.00  0.00    +0.000 A 
ATOM     13  C   UNL     1       4.824   6.418  17.492  0.00  0.00    +0.000 A 
BRANCH  11  14
ATOM     14  C   UNL     1       6.702   4.675  14.663  0.00  0.00    +0.000 C 
ATOM     15  O   UNL     1       7.601   5.428  14.329  0.00  0.00    +0.000 OA
BRANCH  14  16
ATOM     16  O   UNL     1       6.401   3.550  13.982  0.00  0.00    +0.000 OA
ATOM     17  H   UNL     1       5.534   3.152  14.176  0.00  0.00    +0.000 HD
ENDBRANCH  14  16
ENDBRANCH  11  14
ENDBRANCH   6   8
ENDBRANCH   2   3
BRANCH   1  18
ATOM     18  C   UNL     1       0.632  10.551  20.870  0.00  0.00    +0.000 C 
ATOM     19  O   UNL     1       1.388  11.285  21.493  0.00  0.00    +0.000 OA
ATOM     20  N   UNL     1      -0.745  10.750  20.725  0.00  0.00    +0.000 N 
ATOM     21  H   UNL     1      -1.318  10.025  20.305  0.00  0.00    +0.000 HD
BRANCH  20  22
ATOM     22  C   UNL     1      -1.466  11.872  21.217  0.00  0.00    +0.000 A 
ATOM     23  C   UNL     1      -1.676  13.023  20.446  0.00  0.00    +0.000 A 
ATOM     24  C   UNL     1      -2.368  14.125  20.958  0.00  0.00    +0.000 A 
ATOM     25  C   UNL     1      -2.868  14.094  22.258  0.00  0.00    +0.000 A 
ATOM     26  C   UNL     1      -2.679  12.950  23.025  0.00  0.00    +0.000 A 
ATOM     27  F   UNL     1      -3.135  12.899  24.285  0.00  0.00    +0.000 F 
ATOM     28  C   UNL     1      -1.996  11.836  22.512  0.00  0.00    +0.000 A 
BRANCH  25  29
ATOM     29  C   UNL     1      -3.571  15.226  22.778  0.00  0.00    +0.000 C 
ATOM     30  N   UNL     1      -4.153  16.159  23.158  0.00  0.00    +0.000 NA
ENDBRANCH  25  29
ENDBRANCH  20  22
ENDBRANCH   1  18
BRANCH   1  32
ATOM     31  N   UNL     1       1.646   9.237  17.505  0.00  0.00    +0.000 NA
ATOM     32  C   UNL     1       1.439   9.271  18.749  0.00  0.00    +0.000 C 
ENDBRANCH   1  32
TORSDOF 8
ENDMDL
MODEL 5
REMARK VINA RESULT:      -7.7      1.214      1.643
REMARK  Name = 
REMARK  8 active torsions:
REMARK  status: ('A' for Active; 'I' for Inactive)
REMARK    1  A    between atoms: C_2  and  C_3
REMARK    2  A    between atoms: C_3  and  C_19
REMARK    3  A    between atoms: C_4  and  C_5
REMARK    4  A    between atoms: C_8  and  C_9
REMARK    5  A    between atoms: C_12  and  C_13
REMARK    6  A    between atoms: C_13  and  O_15
REMARK    7  A    between atoms: N_21  and  C_22
REMARK    8  A    between atoms: C_25  and  C_26
REMARK                            x       y       z     vdW  Elec       q    Type
REMARK                         _______ _______ _______ _____ _____    ______ ____
ROOT
ATOM      1  C   UNL     1       1.260   9.099  20.319  0.00  0.00    +0.000 C 
ATOM      2  C   UNL     1       1.416   7.928  20.975  0.00  0.00    +0.000 C 
ENDROOT
BRANCH   2   3
ATOM      3  C   UNL     1       1.876   6.733  20.327  0.00  0.00    +0.000 A 
ATOM      4  C   UNL     1       1.538   5.408  20.577  0.00  0.00    +0.000 A 
ATOM      5  C   UNL     1       2.244   4.589  19.656  0.00  0.00    +0.000 A 
ATOM      6  C   UNL     1       2.987   5.436  18.864  0.00  0.00    +0.000 A 
ATOM      7  O   UNL     1       2.787   6.718  19.289  0.00  0.00    +0.000 OA
BRANCH   6   8
ATOM      8  C   UNL     1       3.877   5.254  17.711  0.00  0.00    +0.000 A 
ATOM      9  C   UNL     1       4.474   6.360  17.084  0.00  0.00    +0.000 A 
ATOM     10  C   UNL     1       5.364   6.191  16.013  0.00  0.00    +0.000 A 
ATOM     11  C   UNL     1       5.670   4.912  15.537  0.00  0.00    +0.000 A 
ATOM     12  C   UNL     1       5.084   3.800  16.149  0.00  0.00    +0.000 A 
ATOM     13  C   UNL     1       4.193   3.977  17.221  0.00  0.00    +0.000 A 
BRANCH  11  14
ATOM     14  C   UNL     1       6.666   4.802  14.433  0.00  0.00    +0.000 C 
ATOM     15  O   UNL     1       6.516   4.042  13.492  0.00  0.00    +0.000 OA
BRANCH  14  16
ATOM     16  O   UNL     1       7.761   5.576  14.579  0.00  0.00    +0.000 OA
ATOM     17  H   UNL     1       8.398   5.291  15.258  0.00  0.00    +0.000 HD
ENDBRANCH  14  16
ENDBRANCH  11  14
ENDBRANCH   6   8
ENDBRANCH   2   3
BRANCH   1  18
ATOM     18  C   UNL     1       0.736  10.312  21.017  0.00  0.00    +0.000 C 
ATOM     19  O   UNL     1       1.527  11.030  21.616  0.00  0.00    +0.000 OA
ATOM     20  N   UNL     1      -0.648  10.507  20.966  0.00  0.00    +0.000 N 
ATOM     21  H   UNL     1      -1.243   9.792  20.559  0.00  0.00    +0.000 HD
BRANCH  20  22
ATOM     22  C   UNL     1      -1.342  11.605  21.541  0.00  0.00    +0.000 A 
ATOM     23  C   UNL     1      -1.656  11.660  22.905  0.00  0.00    +0.000 A 
ATOM     24  C   UNL     1      -2.360  12.740  23.448  0.00  0.00    +0.000 A 
ATOM     25  C   UNL     1      -2.763  13.793  22.628  0.00  0.00    +0.000 A 
ATOM     26  C   UNL     1      -2.441  13.756  21.276  0.00  0.00    +0.000 A 
ATOM     27  F   UNL     1      -2.831  14.747  20.462  0.00  0.00    +0.000 F 
ATOM     28  C   UNL     1      -1.724  12.680  20.729  0.00  0.00    +0.000 A 
BRANCH  25  29
ATOM     29  C   UNL     1      -3.487  14.893  23.187  0.00  0.00    +0.000 C 
ATOM     30  N   UNL     1      -4.106  15.758  23.658  0.00  0.00    +0.000 NA
ENDBRANCH  25  29
ENDBRANCH  20  22
ENDBRANCH   1  18
BRANCH   1  32
ATOM     31  N   UNL     1       1.657   9.161  17.567  0.00  0.00    +0.000 NA
ATOM     32  C   UNL     1       1.477   9.133  18.815  0.00  0.00    +0.000 C 
ENDBRANCH   1  32
TORSDOF 8
ENDMDL
MODEL 6
REMARK VINA RESULT:      -7.7      1.036      1.398
REMARK  Name = 
REMARK  8 active torsions:
REMARK  status: ('A' for Active; 'I' for Inactive)
REMARK    1  A    between atoms: C_2  and  C_3
REMARK    2  A    between atoms: C_3  and  C_19
REMARK    3  A    between atoms: C_4  and  C_5
REMARK    4  A    between atoms: C_8  and  C_9
REMARK    5  A    between atoms: C_12  and  C_13
REMARK    6  A    between atoms: C_13  and  O_15
REMARK    7  A    between atoms: N_21  and  C_22
REMARK    8  A    between atoms: C_25  and  C_26
REMARK                            x       y       z     vdW  Elec       q    Type
REMARK                         _______ _______ _______ _____ _____    ______ ____
ROOT
ATOM      1  C   UNL     1       0.950   9.495  19.996  0.00  0.00    +0.000 C 
ATOM      2  C   UNL     1       1.053   8.409  20.793  0.00  0.00    +0.000 C 
ENDROOT
BRANCH   2   3
ATOM      3  C   UNL     1       1.706   7.201  20.376  0.00  0.00    +0.000 A 
ATOM      4  C   UNL     1       1.643   5.927  20.931  0.00  0.00    +0.000 A 
ATOM      5  C   UNL     1       2.452   5.062  20.146  0.00  0.00    +0.000 A 
ATOM      6  C   UNL     1       2.979   5.828  19.130  0.00  0.00    +0.000 A 
ATOM      7  O   UNL     1       2.554   7.116  19.289  0.00  0.00    +0.000 OA
BRANCH   6   8
ATOM      8  C   UNL     1       3.833   5.554  17.968  0.00  0.00    +0.000 A 
ATOM      9  C   UNL     1       4.516   6.594  17.318  0.00  0.00    +0.000 A 
ATOM     10  C   UNL     1       5.372   6.335  16.237  0.00  0.00    +0.000 A 
ATOM     11  C   UNL     1       5.559   5.027  15.775  0.00  0.00    +0.000 A 
ATOM     12  C   UNL     1       4.886   3.979  16.412  0.00  0.00    +0.000 A 
ATOM     13  C   UNL     1       4.030   4.248  17.493  0.00  0.00    +0.000 A 
BRANCH  11  14
ATOM     14  C   UNL     1       6.525   4.816  14.661  0.00  0.00    +0.000 C 
ATOM     15  O   UNL     1       6.321   4.017  13.762  0.00  0.00    +0.000 OA
BRANCH  14  16
ATOM     16  O   UNL     1       7.656   5.545  14.746  0.00  0.00    +0.000 OA
ATOM     17  H   UNL     1       8.207   5.387  15.533  0.00  0.00    +0.000 HD
ENDBRANCH  14  16
ENDBRANCH  11  14
ENDBRANCH   6   8
ENDBRANCH   2   3
BRANCH   1  18
ATOM     18  C   UNL     1       0.224  10.719  20.449  0.00  0.00    +0.000 C 
ATOM     19  O   UNL     1       0.028  11.616  19.639  0.00  0.00    +0.000 OA
ATOM     20  N   UNL     1      -0.142  10.759  21.798  0.00  0.00    +0.000 N 
ATOM     21  H   UNL     1       0.175  10.029  22.428  0.00  0.00    +0.000 HD
BRANCH  20  22
ATOM     22  C   UNL     1      -0.858  11.817  22.421  0.00  0.00    +0.000 A 
ATOM     23  C   UNL     1      -0.406  13.142  22.397  0.00  0.00    +0.000 A 
ATOM     24  C   UNL     1      -1.114  14.165  23.036  0.00  0.00    +0.000 A 
ATOM     25  C   UNL     1      -2.297  13.877  23.714  0.00  0.00    +0.000 A 
ATOM     26  C   UNL     1      -2.763  12.567  23.730  0.00  0.00    +0.000 A 
ATOM     27  F   UNL     1      -3.889  12.259  24.388  0.00  0.00    +0.000 F 
ATOM     28  C   UNL     1      -2.062  11.539  23.079  0.00  0.00    +0.000 A 
BRANCH  25  29
ATOM     29  C   UNL     1      -3.015  14.926  24.371  0.00  0.00    +0.000 C 
ATOM     30  N   UNL     1      -3.585  15.762  24.944  0.00  0.00    +0.000 NA
ENDBRANCH  25  29
ENDBRANCH  20  22
ENDBRANCH   1  18
BRANCH   1  32
ATOM     31  N   UNL     1       1.864   9.328  17.375  0.00  0.00    +0.000 NA
ATOM     32  C   UNL     1       1.450   9.404  18.563  0.00  0.00    +0.000 C 
ENDBRANCH   1  32
TORSDOF 8
ENDMDL
MODEL 7
REMARK VINA RESULT:      -7.7      1.240      1.686
REMARK  Name = 
REMARK  8 active torsions:
REMARK  status: ('A' for Active; 'I' for Inactive)
REMARK    1  A    between atoms: C_2  and  C_3
REMARK    2  A    between atoms: C_3  and  C_19
REMARK    3  A    between atoms: C_4  and  C_5
REMARK    4  A    between atoms: C_8  and  C_9
REMARK    5  A    between atoms: C_12  and  C_13
REMARK    6  A    between atoms: C_13  and  O_15
REMARK    7  A    between atoms: N_21  and  C_22
REMARK    8  A    between atoms: C_25  and  C_26
REMARK                            x       y       z     vdW  Elec       q    Type
REMARK                         _______ _______ _______ _____ _____    ______ ____
ROOT
ATOM      1  C   UNL     1       1.181   9.475  20.200  0.00  0.00    +0.000 C 
ATOM      2  C   UNL     1       1.354   8.373  20.961  0.00  0.00    +0.000 C 
ENDROOT
BRANCH   2   3
ATOM      3  C   UNL     1       1.805   7.121  20.421  0.00  0.00    +0.000 A 
ATOM      4  C   UNL     1       1.444   5.827  20.776  0.00  0.00    +0.000 A 
ATOM      5  C   UNL     1       2.149   4.925  19.935  0.00  0.00    +0.000 A 
ATOM      6  C   UNL     1       2.914   5.692  19.085  0.00  0.00    +0.000 A 
ATOM      7  O   UNL     1       2.727   7.008  19.400  0.00  0.00    +0.000 OA
BRANCH   6   8
ATOM      8  C   UNL     1       3.814   5.403  17.963  0.00  0.00    +0.000 A 
ATOM      9  C   UNL     1       4.656   6.399  17.443  0.00  0.00    +0.000 A 
ATOM     10  C   UNL     1       5.554   6.119  16.403  0.00  0.00    +0.000 A 
ATOM     11  C   UNL     1       5.625   4.835  15.851  0.00  0.00    +0.000 A 
ATOM     12  C   UNL     1       4.794   3.831  16.357  0.00  0.00    +0.000 A 
ATOM     13  C   UNL     1       3.896   4.120  17.398  0.00  0.00    +0.000 A 
BRANCH  11  14
ATOM     14  C   UNL     1       6.640   4.592  14.788  0.00  0.00    +0.000 C 
ATOM     15  O   UNL     1       7.581   5.345  14.598  0.00  0.00    +0.000 OA
BRANCH  14  16
ATOM     16  O   UNL     1       6.416   3.500  14.029  0.00  0.00    +0.000 OA
ATOM     17  H   UNL     1       6.337   2.656  14.507  0.00  0.00    +0.000 HD
ENDBRANCH  14  16
ENDBRANCH  11  14
ENDBRANCH   6   8
ENDBRANCH   2   3
BRANCH   1  18
ATOM     18  C   UNL     1       0.668  10.748  20.791  0.00  0.00    +0.000 C 
ATOM     19  O   UNL     1       1.474  11.613  21.108  0.00  0.00    +0.000 OA
ATOM     20  N   UNL     1      -0.716  10.832  20.977  0.00  0.00    +0.000 N 
ATOM     21  H   UNL     1      -1.297  10.017  20.806  0.00  0.00    +0.000 HD
BRANCH  20  22
ATOM     22  C   UNL     1      -1.405  11.960  21.497  0.00  0.00    +0.000 A 
ATOM     23  C   UNL     1      -2.457  12.577  20.808  0.00  0.00    +0.000 A 
ATOM     24  C   UNL     1      -3.107  13.701  21.327  0.00  0.00    +0.000 A 
ATOM     25  C   UNL     1      -2.715  14.229  22.556  0.00  0.00    +0.000 A 
ATOM     26  C   UNL     1      -1.684  13.614  23.255  0.00  0.00    +0.000 A 
ATOM     27  F   UNL     1      -1.275  14.111  24.431  0.00  0.00    +0.000 F 
ATOM     28  C   UNL     1      -1.035  12.478  22.744  0.00  0.00    +0.000 A 
BRANCH  25  29
ATOM     29  C   UNL     1      -3.381  15.382  23.080  0.00  0.00    +0.000 C 
ATOM     30  N   UNL     1      -3.955  16.313  23.476  0.00  0.00    +0.000 NA
ENDBRANCH  25  29
ENDBRANCH  20  22
ENDBRANCH   1  18
BRANCH   1  32
ATOM     31  N   UNL     1       1.518   9.274  17.447  0.00  0.00    +0.000 NA
ATOM     32  C   UNL     1       1.365   9.365  18.695  0.00  0.00    +0.000 C 
ENDBRANCH   1  32
TORSDOF 8
ENDMDL
MODEL 8
REMARK VINA RESULT:      -7.7      0.987      1.145
REMARK  Name = 
REMARK  8 active torsions:
REMARK  status: ('A' for Active; 'I' for Inactive)
REMARK    1  A    between atoms: C_2  and  C_3
REMARK    2  A    between atoms: C_3  and  C_19
REMARK    3  A    between atoms: C_4  and  C_5
REMARK    4  A    between atoms: C_8  and  C_9
REMARK    5  A    between atoms: C_12  and  C_13
REMARK    6  A    between atoms: C_13  and  O_15
REMARK    7  A    between atoms: N_21  and  C_22
REMARK    8  A    between atoms: C_25  and  C_26
REMARK                            x       y       z     vdW  Elec       q    Type
REMARK                         _______ _______ _______ _____ _____    ______ ____
ROOT
ATOM      1  C   UNL     1       0.944   8.998  19.940  0.00  0.00    +0.000 C 
ATOM      2  C   UNL     1       1.066   7.899  20.717  0.00  0.00    +0.000 C 
ENDROOT
BRANCH   2   3
ATOM      3  C   UNL     1       1.874   6.773  20.345  0.00  0.00    +0.000 A 
ATOM      4  C   UNL     1       1.960   5.516  20.932  0.00  0.00    +0.000 A 
ATOM      5  C   UNL     1       2.886   4.740  20.186  0.00  0.00    +0.000 A 
ATOM      6  C   UNL     1       3.334   5.540  19.158  0.00  0.00    +0.000 A 
ATOM      7  O   UNL     1       2.747   6.768  19.275  0.00  0.00    +0.000 OA
BRANCH   6   8
ATOM      8  C   UNL     1       4.239   5.347  18.019  0.00  0.00    +0.000 A 
ATOM      9  C   UNL     1       4.494   4.063  17.514  0.00  0.00    +0.000 A 
ATOM     10  C   UNL     1       5.319   3.874  16.395  0.00  0.00    +0.000 A 
ATOM     11  C   UNL     1       5.917   4.968  15.760  0.00  0.00    +0.000 A 
ATOM     12  C   UNL     1       5.674   6.255  16.251  0.00  0.00    +0.000 A 
ATOM     13  C   UNL     1       4.847   6.435  17.372  0.00  0.00    +0.000 A 
BRANCH  11  14
ATOM     14  C   UNL     1       6.735   4.702  14.544  0.00  0.00    +0.000 C 
ATOM     15  O   UNL     1       7.617   5.458  14.172  0.00  0.00    +0.000 OA
BRANCH  14  16
ATOM     16  O   UNL     1       6.398   3.586  13.867  0.00  0.00    +0.000 OA
ATOM     17  H   UNL     1       6.529   2.745  14.339  0.00  0.00    +0.000 HD
ENDBRANCH  14  16
ENDBRANCH  11  14
ENDBRANCH   6   8
ENDBRANCH   2   3
BRANCH   1  18
ATOM     18  C   UNL     1       0.058  10.132  20.341  0.00  0.00    +0.000 C 
ATOM     19  O   UNL     1      -0.725  10.583  19.515  0.00  0.00    +0.000 OA
ATOM     20  N   UNL     1       0.230  10.624  21.639  0.00  0.00    +0.000 N 
ATOM     21  H   UNL     1       0.992  10.277  22.213  0.00  0.00    +0.000 HD
BRANCH  20  22
ATOM     22  C   UNL     1      -0.526  11.677  22.222  0.00  0.00    +0.000 A 
ATOM     23  C   UNL     1      -0.129  13.018  22.136  0.00  0.00    +0.000 A 
ATOM     24  C   UNL     1      -0.875  14.037  22.738  0.00  0.00    +0.000 A 
ATOM     25  C   UNL     1      -2.041  13.730  23.437  0.00  0.00    +0.000 A 
ATOM     26  C   UNL     1      -2.451  12.404  23.513  0.00  0.00    +0.000 A 
ATOM     27  F   UNL     1      -3.559  12.079  24.194  0.00  0.00    +0.000 F 
ATOM     28  C   UNL     1      -1.713  11.379  22.901  0.00  0.00    +0.000 A 
BRANCH  25  29
ATOM     29  C   UNL     1      -2.797  14.776  24.054  0.00  0.00    +0.000 C 
ATOM     30  N   UNL     1      -3.446  15.617  24.527  0.00  0.00    +0.000 NA
ENDBRANCH  25  29
ENDBRANCH  20  22
ENDBRANCH   1  18
BRANCH   1  32
ATOM     31  N   UNL     1       2.142   9.008  17.430  0.00  0.00    +0.000 NA
ATOM     32  C   UNL     1       1.599   9.003  18.568  0.00  0.00    +0.000 C 
ENDBRANCH   1  32
TORSDOF 8
ENDMDL
MODEL 9
REMARK VINA RESULT:      -7.6      1.255      1.786
REMARK  Name = 
REMARK  8 active torsions:
REMARK  status: ('A' for Active; 'I' for Inactive)
REMARK    1  A    between atoms: C_2  and  C_3
REMARK    2  A    between atoms: C_3  and  C_19
REMARK    3  A    between atoms: C_4  and  C_5
REMARK    4  A    between atoms: C_8  and  C_9
REMARK    5  A    between atoms: C_12  and  C_13
REMARK    6  A    between atoms: C_13  and  O_15
REMARK    7  A    between atoms: N_21  and  C_22
REMARK    8  A    between atoms: C_25  and  C_26
REMARK                            x       y       z     vdW  Elec       q    Type
REMARK                         _______ _______ _______ _____ _____    ______ ____
ROOT
ATOM      1  C   UNL     1       1.299   8.804  20.680  0.00  0.00    +0.000 C 
ATOM      2  C   UNL     1       1.537   7.566  21.167  0.00  0.00    +0.000 C 
ENDROOT
BRANCH   2   3
ATOM      3  C   UNL     1       1.845   6.448  20.322  0.00  0.00    +0.000 A 
ATOM      4  C   UNL     1       1.265   5.185  20.284  0.00  0.00    +0.000 A 
ATOM      5  C   UNL     1       1.904   4.435  19.260  0.00  0.00    +0.000 A 
ATOM      6  C   UNL     1       2.850   5.262  18.696  0.00  0.00    +0.000 A 
ATOM      7  O   UNL     1       2.832   6.458  19.356  0.00  0.00    +0.000 OA
BRANCH   6   8
ATOM      8  C   UNL     1       3.798   5.137  17.583  0.00  0.00    +0.000 A 
ATOM      9  C   UNL     1       4.408   6.273  17.028  0.00  0.00    +0.000 A 
ATOM     10  C   UNL     1       5.352   6.157  15.997  0.00  0.00    +0.000 A 
ATOM     11  C   UNL     1       5.702   4.901  15.490  0.00  0.00    +0.000 A 
ATOM     12  C   UNL     1       5.104   3.759  16.032  0.00  0.00    +0.000 A 
ATOM     13  C   UNL     1       4.159   3.883  17.064  0.00  0.00    +0.000 A 
BRANCH  11  14
ATOM     14  C   UNL     1       6.753   4.847  14.435  0.00  0.00    +0.000 C 
ATOM     15  O   UNL     1       6.632   4.170  13.428  0.00  0.00    +0.000 OA
BRANCH  14  16
ATOM     16  O   UNL     1       7.860   5.569  14.700  0.00  0.00    +0.000 OA
ATOM     17  H   UNL     1       7.819   6.514  14.468  0.00  0.00    +0.000 HD
ENDBRANCH  14  16
ENDBRANCH  11  14
ENDBRANCH   6   8
ENDBRANCH   2   3
BRANCH   1  18
ATOM     18  C   UNL     1       0.937   9.935  21.587  0.00  0.00    +0.000 C 
ATOM     19  O   UNL     1       1.140   9.808  22.788  0.00  0.00    +0.000 OA
ATOM     20  N   UNL     1       0.344  11.048  20.984  0.00  0.00    +0.000 N 
ATOM     21  H   UNL     1       0.094  11.016  20.001  0.00  0.00    +0.000 HD
BRANCH  20  22
ATOM     22  C   UNL     1      -0.050  12.234  21.662  0.00  0.00    +0.000 A 
ATOM     23  C   UNL     1      -1.060  12.239  22.633  0.00  0.00    +0.000 A 
ATOM     24  C   UNL     1      -1.450  13.421  23.272  0.00  0.00    +0.000 A 
ATOM     25  C   UNL     1      -0.829  14.626  22.950  0.00  0.00    +0.000 A 
ATOM     26  C   UNL     1       0.186  14.628  22.000  0.00  0.00    +0.000 A 
ATOM     27  F   UNL     1       0.789  15.776  21.659  0.00  0.00    +0.000 F 
ATOM     28  C   UNL     1       0.590  13.443  21.364  0.00  0.00    +0.000 A 
BRANCH  25  29
ATOM     29  C   UNL     1      -1.234  15.832  23.603  0.00  0.00    +0.000 C 
ATOM     30  N   UNL     1      -1.596  16.818  24.103  0.00  0.00    +0.000 NA
ENDBRANCH  25  29
ENDBRANCH  20  22
ENDBRANCH   1  18
BRANCH   1  32
ATOM     31  N   UNL     1       1.206   9.169  17.924  0.00  0.00    +0.000 NA
ATOM     32  C   UNL     1       1.248   9.004  19.174  0.00  0.00    +0.000 C 
ENDBRANCH   1  32
TORSDOF 8
ENDMDL
