MODEL 1
REMARK VINA RESULT:      -8.4      0.000      0.000
REMARK  Name = 
REMARK  8 active torsions:
REMARK  status: ('A' for Active; 'I' for Inactive)
REMARK    1  A    between atoms: C_1  and  C_2
REMARK    2  A    between atoms: C_2  and  C_4
REMARK    3  A    between atoms: C_7  and  N_8
REMARK    4  A    between atoms: C_9  and  C_11
REMARK    5  A    between atoms: C_14  and  C_15
REMARK    6  A    between atoms: C_15  and  O_16
REMARK    7  A    between atoms: O_16  and  C_17
REMARK    8  A    between atoms: C_22  and  N_23
REMARK                            x       y       z     vdW  Elec       q    Type
REMARK                         _______ _______ _______ _____ _____    ______ ____
ROOT
ATOM      1  C   UNL     1       3.088   6.880  17.960  0.00  0.00    +0.000 A 
ATOM      2  C   UNL     1       4.389   6.731  17.523  0.00  0.00    +0.000 A 
ATOM      3  C   UNL     1       4.520   5.397  17.082  0.00  0.00    +0.000 A 
ATOM      4  C   UNL     1       3.288   4.807  17.272  0.00  0.00    +0.000 A 
ATOM      5  O   UNL     1       2.408   5.702  17.804  0.00  0.00    +0.000 OA
ENDROOT
BRANCH   1   7
ATOM      6  N   UNL     1       1.900   7.839  19.776  0.00  0.00    +0.000 N 
ATOM      7  C   UNL     1       2.416   8.037  18.502  0.00  0.00    +0.000 C 
ATOM      8  O   UNL     1       2.351   9.087  17.869  0.00  0.00    +0.000 OA
ATOM      9  H   UNL     1       2.154   6.962  20.218  0.00  0.00    +0.000 HD
BRANCH   6  13
ATOM     10  C   UNL     1      -0.344  10.646  21.995  0.00  0.00    +0.000 A 
ATOM     11  C   UNL     1       0.393   9.665  22.658  0.00  0.00    +0.000 A 
ATOM     12  C   UNL     1       1.153   8.746  21.934  0.00  0.00    +0.000 A 
ATOM     13  C   UNL     1       1.191   8.786  20.540  0.00  0.00    +0.000 A 
ATOM     14  C   UNL     1       0.494   9.798  19.874  0.00  0.00    +0.000 A 
ATOM     15  C   UNL     1      -0.280  10.718  20.596  0.00  0.00    +0.000 A 
BRANCH  10  17
ATOM     16  C   UNL     1      -0.882  13.078  22.663  0.00  0.00    +0.000 C 
ATOM     17  C   UNL     1      -1.202  11.606  22.746  0.00  0.00    +0.000 C 
ATOM     18  O   UNL     1      -2.149  11.193  23.412  0.00  0.00    +0.000 OA
ENDBRANCH  10  17
ENDBRANCH   6  13
ENDBRANCH   1   7
BRANCH   4  19
ATOM     19  C   UNL     1       2.766   3.459  16.960  0.00  0.00    +0.000 C 
BRANCH  19  20
ATOM     20  O   UNL     1       3.257   2.564  17.964  0.00  0.00    +0.000 OA
BRANCH  20  21
ATOM     21  C   UNL     1       2.605   2.662  19.164  0.00  0.00    +0.000 A 
ATOM     22  C   UNL     1       1.211   2.780  19.253  0.00  0.00    +0.000 A 
ATOM     23  C   UNL     1       0.578   2.866  20.493  0.00  0.00    +0.000 A 
ATOM     24  C   UNL     1       1.318   2.803  21.671  0.00  0.00    +0.000 A 
ATOM     25  C   UNL     1       2.702   2.643  21.611  0.00  0.00    +0.000 A 
ATOM     26  C   UNL     1       3.329   2.573  20.359  0.00  0.00    +0.000 A 
BRANCH  26  27
ATOM     27  N   UNL     1       4.774   2.441  20.338  0.00  0.00    +0.000 N 
ATOM     28  O   UNL     1       5.412   3.276  19.683  0.00  0.00    +0.000 OA
ATOM     29  O   UNL     1       5.264   1.548  21.045  0.00  0.00    +0.000 OA
ENDBRANCH  26  27
ENDBRANCH  20  21
ENDBRANCH  19  20
ENDBRANCH   4  19
TORSDOF 7
ENDMDL
MODEL 2
REMARK VINA RESULT:      -8.4      1.330      2.289
REMARK  Name = 
REMARK  8 active torsions:
REMARK  status: ('A' for Active; 'I' for Inactive)
REMARK    1  A    between atoms: C_1  and  C_2
REMARK    2  A    between atoms: C_2  and  C_4
REMARK    3  A    between atoms: C_7  and  N_8
REMARK    4  A    between atoms: C_9  and  C_11
REMARK    5  A    between atoms: C_14  and  C_15
REMARK    6  A    between atoms: C_15  and  O_16
REMARK    7  A    between atoms: O_16  and  C_17
REMARK    8  A    between atoms: C_22  and  N_23
REMARK                            x       y       z     vdW  Elec       q    Type
REMARK                         _______ _______ _______ _____ _____    ______ ____
ROOT
ATOM      1  C   UNL     1       3.537   7.053  17.878  0.00  0.00    +0.000 A 
ATOM      2  C   UNL     1       4.213   6.842  16.692  0.00  0.00    +0.000 A 
ATOM      3  C   UNL     1       5.026   5.706  16.884  0.00  0.00    +0.000 A 
ATOM      4  C   UNL     1       4.798   5.284  18.177  0.00  0.00    +0.000 A 
ATOM      5  O   UNL     1       3.891   6.096  18.790  0.00  0.00    +0.000 OA
ENDROOT
BRANCH   1   7
ATOM      6  N   UNL     1       2.148   8.002  19.551  0.00  0.00    +0.000 N 
ATOM      7  C   UNL     1       2.574   8.069  18.232  0.00  0.00    +0.000 C 
ATOM      8  O   UNL     1       2.212   8.911  17.414  0.00  0.00    +0.000 OA
ATOM      9  H   UNL     1       2.641   7.336  20.136  0.00  0.00    +0.000 HD
BRANCH   6  13
ATOM     10  C   UNL     1      -0.563  10.599  21.487  0.00  0.00    +0.000 A 
ATOM     11  C   UNL     1      -0.338  10.724  20.116  0.00  0.00    +0.000 A 
ATOM     12  C   UNL     1       0.540   9.858  19.465  0.00  0.00    +0.000 A 
ATOM     13  C   UNL     1       1.211   8.855  20.165  0.00  0.00    +0.000 A 
ATOM     14  C   UNL     1       0.951   8.694  21.529  0.00  0.00    +0.000 A 
ATOM     15  C   UNL     1       0.076   9.568  22.191  0.00  0.00    +0.000 A 
BRANCH  10  17
ATOM     16  C   UNL     1      -1.882  12.814  21.518  0.00  0.00    +0.000 C 
ATOM     17  C   UNL     1      -1.459  11.544  22.212  0.00  0.00    +0.000 C 
ATOM     18  O   UNL     1      -1.841  11.278  23.350  0.00  0.00    +0.000 OA
ENDBRANCH  10  17
ENDBRANCH   6  13
ENDBRANCH   1   7
BRANCH   4  19
ATOM     19  C   UNL     1       5.296   4.129  18.955  0.00  0.00    +0.000 C 
BRANCH  19  20
ATOM     20  O   UNL     1       4.425   3.024  18.690  0.00  0.00    +0.000 OA
BRANCH  20  21
ATOM     21  C   UNL     1       3.352   2.946  19.537  0.00  0.00    +0.000 A 
ATOM     22  C   UNL     1       3.495   2.701  20.910  0.00  0.00    +0.000 A 
ATOM     23  C   UNL     1       2.380   2.639  21.746  0.00  0.00    +0.000 A 
ATOM     24  C   UNL     1       1.101   2.854  21.237  0.00  0.00    +0.000 A 
ATOM     25  C   UNL     1       0.935   3.142  19.883  0.00  0.00    +0.000 A 
ATOM     26  C   UNL     1       2.061   3.186  19.049  0.00  0.00    +0.000 A 
BRANCH  26  27
ATOM     27  N   UNL     1       1.844   3.455  17.640  0.00  0.00    +0.000 N 
ATOM     28  O   UNL     1       2.279   2.627  16.829  0.00  0.00    +0.000 OA
ATOM     29  O   UNL     1       1.166   4.455  17.360  0.00  0.00    +0.000 OA
ENDBRANCH  26  27
ENDBRANCH  20  21
ENDBRANCH  19  20
ENDBRANCH   4  19
TORSDOF 7
ENDMDL
MODEL 3
REMARK VINA RESULT:      -8.2      2.067      2.157
REMARK  Name = 
REMARK  8 active torsions:
REMARK  status: ('A' for Active; 'I' for Inactive)
REMARK    1  A    between atoms: C_1  and  C_2
REMARK    2  A    between atoms: C_2  and  C_4
REMARK    3  A    between atoms: C_7  and  N_8
REMARK    4  A    between atoms: C_9  and  C_11
REMARK    5  A    between atoms: C_14  and  C_15
REMARK    6  A    between atoms: C_15  and  O_16
REMARK    7  A    between atoms: O_16  and  C_17
REMARK    8  A    between atoms: C_22  and  N_23
REMARK                            x       y       z     vdW  Elec       q    Type
REMARK                         _______ _______ _______ _____ _____    ______ ____
ROOT
ATOM      1  C   UNL     1       3.063   6.572  18.057  0.00  0.00    +0.000 A 
ATOM      2  C   UNL     1       4.356   6.473  17.583  0.00  0.00    +0.000 A 
ATOM      3  C   UNL     1       4.494   5.176  17.046  0.00  0.00    +0.000 A 
ATOM      4  C   UNL     1       3.274   4.556  17.220  0.00  0.00    +0.000 A 
ATOM      5  O   UNL     1       2.395   5.399  17.833  0.00  0.00    +0.000 OA
ENDROOT
BRANCH   1   7
ATOM      6  N   UNL     1       1.897   8.623  17.805  0.00  0.00    +0.000 N 
ATOM      7  C   UNL     1       2.389   7.678  18.695  0.00  0.00    +0.000 C 
ATOM      8  O   UNL     1       2.265   7.726  19.916  0.00  0.00    +0.000 OA
ATOM      9  H   UNL     1       1.961   8.373  16.824  0.00  0.00    +0.000 HD
BRANCH   6  13
ATOM     10  C   UNL     1      -0.233  12.093  18.928  0.00  0.00    +0.000 A 
ATOM     11  C   UNL     1       1.158  12.131  18.833  0.00  0.00    +0.000 A 
ATOM     12  C   UNL     1       1.868  10.996  18.443  0.00  0.00    +0.000 A 
ATOM     13  C   UNL     1       1.208   9.803  18.144  0.00  0.00    +0.000 A 
ATOM     14  C   UNL     1      -0.189   9.775  18.190  0.00  0.00    +0.000 A 
ATOM     15  C   UNL     1      -0.907  10.911  18.591  0.00  0.00    +0.000 A 
BRANCH  10  17
ATOM     16  C   UNL     1      -2.318  13.054  20.102  0.00  0.00    +0.000 C 
ATOM     17  C   UNL     1      -1.008  13.280  19.390  0.00  0.00    +0.000 C 
ATOM     18  O   UNL     1      -0.574  14.413  19.190  0.00  0.00    +0.000 OA
ENDBRANCH  10  17
ENDBRANCH   6  13
ENDBRANCH   1   7
BRANCH   4  19
ATOM     19  C   UNL     1       2.762   3.226  16.825  0.00  0.00    +0.000 C 
BRANCH  19  20
ATOM     20  O   UNL     1       3.158   2.294  17.837  0.00  0.00    +0.000 OA
BRANCH  20  21
ATOM     21  C   UNL     1       2.552   2.497  19.048  0.00  0.00    +0.000 A 
ATOM     22  C   UNL     1       1.162   2.611  19.182  0.00  0.00    +0.000 A 
ATOM     23  C   UNL     1       0.577   2.806  20.433  0.00  0.00    +0.000 A 
ATOM     24  C   UNL     1       1.364   2.857  21.582  0.00  0.00    +0.000 A 
ATOM     25  C   UNL     1       2.746   2.703  21.481  0.00  0.00    +0.000 A 
ATOM     26  C   UNL     1       3.324   2.524  20.216  0.00  0.00    +0.000 A 
BRANCH  26  27
ATOM     27  N   UNL     1       4.768   2.402  20.149  0.00  0.00    +0.000 N 
ATOM     28  O   UNL     1       5.405   3.389  19.755  0.00  0.00    +0.000 OA
ATOM     29  O   UNL     1       5.260   1.344  20.569  0.00  0.00    +0.000 OA
ENDBRANCH  26  27
ENDBRANCH  20  21
ENDBRANCH  19  20
ENDBRANCH   4  19
TORSDOF 7
ENDMDL
MODEL 4
REMARK VINA RESULT:      -8.2      0.671      1.252
REMARK  Name = 
REMARK  8 active torsions:
REMARK  status: ('A' for Active; 'I' for Inactive)
REMARK    1  A    between atoms: C_1  and  C_2
REMARK    2  A    between atoms: C_2  and  C_4
REMARK    3  A    between atoms: C_7  and  N_8
REMARK    4  A    between atoms: C_9  and  C_11
REMARK    5  A    between atoms: C_14  and  C_15
REMARK    6  A    between atoms: C_15  and  O_16
REMARK    7  A    between atoms: O_16  and  C_17
REMARK    8  A    between atoms: C_22  and  N_23
REMARK                            x       y       z     vdW  Elec       q    Type
REMARK                         _______ _______ _______ _____ _____    ______ ____
ROOT
ATOM      1  C   UNL     1       3.118   6.859  17.851  0.00  0.00    +0.000 A 
ATOM      2  C   UNL     1       4.464   6.693  17.591  0.00  0.00    +0.000 A 
ATOM      3  C   UNL     1       4.642   5.345  17.216  0.00  0.00    +0.000 A 
ATOM      4  C   UNL     1       3.392   4.764  17.264  0.00  0.00    +0.000 A 
ATOM      5  O   UNL     1       2.457   5.678  17.648  0.00  0.00    +0.000 OA
ENDROOT
BRANCH   1   7
ATOM      6  N   UNL     1       1.944   7.986  19.578  0.00  0.00    +0.000 N 
ATOM      7  C   UNL     1       2.388   8.034  18.264  0.00  0.00    +0.000 C 
ATOM      8  O   UNL     1       2.220   8.978  17.495  0.00  0.00    +0.000 OA
ATOM      9  H   UNL     1       2.278   7.199  20.123  0.00  0.00    +0.000 HD
BRANCH   6  13
ATOM     10  C   UNL     1      -0.209  10.947  21.685  0.00  0.00    +0.000 A 
ATOM     11  C   UNL     1       0.456  11.278  20.504  0.00  0.00    +0.000 A 
ATOM     12  C   UNL     1       1.152  10.303  19.791  0.00  0.00    +0.000 A 
ATOM     13  C   UNL     1       1.202   8.983  20.240  0.00  0.00    +0.000 A 
ATOM     14  C   UNL     1       0.496   8.636  21.396  0.00  0.00    +0.000 A 
ATOM     15  C   UNL     1      -0.198   9.615  22.122  0.00  0.00    +0.000 A 
BRANCH  10  17
ATOM     16  C   UNL     1      -2.124  11.572  23.294  0.00  0.00    +0.000 C 
ATOM     17  C   UNL     1      -0.918  11.983  22.488  0.00  0.00    +0.000 C 
ATOM     18  O   UNL     1      -0.514  13.144  22.487  0.00  0.00    +0.000 OA
ENDBRANCH  10  17
ENDBRANCH   6  13
ENDBRANCH   1   7
BRANCH   4  19
ATOM     19  C   UNL     1       2.907   3.407  16.933  0.00  0.00    +0.000 C 
BRANCH  19  20
ATOM     20  O   UNL     1       3.341   2.527  17.976  0.00  0.00    +0.000 OA
BRANCH  20  21
ATOM     21  C   UNL     1       2.637   2.658  19.143  0.00  0.00    +0.000 A 
ATOM     22  C   UNL     1       1.240   2.767  19.169  0.00  0.00    +0.000 A 
ATOM     23  C   UNL     1       0.553   2.888  20.377  0.00  0.00    +0.000 A 
ATOM     24  C   UNL     1       1.243   2.870  21.587  0.00  0.00    +0.000 A 
ATOM     25  C   UNL     1       2.629   2.720  21.591  0.00  0.00    +0.000 A 
ATOM     26  C   UNL     1       3.310   2.615  20.370  0.00  0.00    +0.000 A 
BRANCH  26  27
ATOM     27  N   UNL     1       4.755   2.495  20.415  0.00  0.00    +0.000 N 
ATOM     28  O   UNL     1       5.228   1.547  21.057  0.00  0.00    +0.000 OA
ATOM     29  O   UNL     1       5.405   3.305  19.737  0.00  0.00    +0.000 OA
ENDBRANCH  26  27
ENDBRANCH  20  21
ENDBRANCH  19  20
ENDBRANCH   4  19
TORSDOF 7
ENDMDL
MODEL 5
REMARK VINA RESULT:      -8.2      5.574      7.040
REMARK  Name = 
REMARK  8 active torsions:
REMARK  status: ('A' for Active; 'I' for Inactive)
REMARK    1  A    between atoms: C_1  and  C_2
REMARK    2  A    between atoms: C_2  and  C_4
REMARK    3  A    between atoms: C_7  and  N_8
REMARK    4  A    between atoms: C_9  and  C_11
REMARK    5  A    between atoms: C_14  and  C_15
REMARK    6  A    between atoms: C_15  and  O_16
REMARK    7  A    between atoms: O_16  and  C_17
REMARK    8  A    between atoms: C_22  and  N_23
REMARK                            x       y       z     vdW  Elec       q    Type
REMARK                         _______ _______ _______ _____ _____    ______ ____
ROOT
ATOM      1  C   UNL     1       7.676   7.223  18.009  0.00  0.00    +0.000 A 
ATOM      2  C   UNL     1       8.082   6.233  18.881  0.00  0.00    +0.000 A 
ATOM      3  C   UNL     1       7.524   5.025  18.413  0.00  0.00    +0.000 A 
ATOM      4  C   UNL     1       6.810   5.346  17.277  0.00  0.00    +0.000 A 
ATOM      5  O   UNL     1       6.898   6.682  17.022  0.00  0.00    +0.000 OA
ENDROOT
BRANCH   1   7
ATOM      6  N   UNL     1       8.950   9.009  18.913  0.00  0.00    +0.000 N 
ATOM      7  C   UNL     1       7.962   8.639  18.011  0.00  0.00    +0.000 C 
ATOM      8  O   UNL     1       7.378   9.404  17.249  0.00  0.00    +0.000 OA
ATOM      9  H   UNL     1       9.431   8.244  19.372  0.00  0.00    +0.000 HD
BRANCH   6  13
ATOM     10  C   UNL     1      10.271  12.980  19.486  0.00  0.00    +0.000 A 
ATOM     11  C   UNL     1       9.926  12.196  20.587  0.00  0.00    +0.000 A 
ATOM     12  C   UNL     1       9.508  10.878  20.409  0.00  0.00    +0.000 A 
ATOM     13  C   UNL     1       9.423  10.317  19.134  0.00  0.00    +0.000 A 
ATOM     14  C   UNL     1       9.816  11.083  18.032  0.00  0.00    +0.000 A 
ATOM     15  C   UNL     1      10.228  12.412  18.205  0.00  0.00    +0.000 A 
BRANCH  10  17
ATOM     16  C   UNL     1      12.142  14.736  19.740  0.00  0.00    +0.000 C 
ATOM     17  C   UNL     1      10.673  14.406  19.650  0.00  0.00    +0.000 C 
ATOM     18  O   UNL     1       9.814  15.284  19.705  0.00  0.00    +0.000 OA
ENDBRANCH  10  17
ENDBRANCH   6  13
ENDBRANCH   1   7
BRANCH   4  19
ATOM     19  C   UNL     1       6.053   4.527  16.306  0.00  0.00    +0.000 C 
BRANCH  19  20
ATOM     20  O   UNL     1       5.227   3.627  17.053  0.00  0.00    +0.000 OA
BRANCH  20  21
ATOM     21  C   UNL     1       4.239   4.245  17.772  0.00  0.00    +0.000 A 
ATOM     22  C   UNL     1       3.760   5.521  17.446  0.00  0.00    +0.000 A 
ATOM     23  C   UNL     1       2.745   6.117  18.194  0.00  0.00    +0.000 A 
ATOM     24  C   UNL     1       2.162   5.439  19.262  0.00  0.00    +0.000 A 
ATOM     25  C   UNL     1       2.590   4.151  19.580  0.00  0.00    +0.000 A 
ATOM     26  C   UNL     1       3.623   3.569  18.832  0.00  0.00    +0.000 A 
BRANCH  26  27
ATOM     27  N   UNL     1       4.064   2.241  19.215  0.00  0.00    +0.000 N 
ATOM     28  O   UNL     1       3.637   1.286  18.552  0.00  0.00    +0.000 OA
ATOM     29  O   UNL     1       4.900   2.171  20.128  0.00  0.00    +0.000 OA
ENDBRANCH  26  27
ENDBRANCH  20  21
ENDBRANCH  19  20
ENDBRANCH   4  19
TORSDOF 7
ENDMDL
MODEL 6
REMARK VINA RESULT:      -8.0      2.751      4.088
REMARK  Name = 
REMARK  8 active torsions:
REMARK  status: ('A' for Active; 'I' for Inactive)
REMARK    1  A    between atoms: C_1  and  C_2
REMARK    2  A    between atoms: C_2  and  C_4
REMARK    3  A    between atoms: C_7  and  N_8
REMARK    4  A    between atoms: C_9  and  C_11
REMARK    5  A    between atoms: C_14  and  C_15
REMARK    6  A    between atoms: C_15  and  O_16
REMARK    7  A    between atoms: O_16  and  C_17
REMARK    8  A    between atoms: C_22  and  N_23
REMARK                            x       y       z     vdW  Elec       q    Type
REMARK                         _______ _______ _______ _____ _____    ______ ____
ROOT
ATOM      1  C   UNL     1       1.473   9.057  18.919  0.00  0.00    +0.000 A 
ATOM      2  C   UNL     1       2.179   9.110  17.734  0.00  0.00    +0.000 A 
ATOM      3  C   UNL     1       2.980   7.951  17.685  0.00  0.00    +0.000 A 
ATOM      4  C   UNL     1       2.714   7.251  18.844  0.00  0.00    +0.000 A 
ATOM      5  O   UNL     1       1.797   7.915  19.601  0.00  0.00    +0.000 OA
ENDROOT
BRANCH   1   7
ATOM      6  N   UNL     1       0.884  10.524  20.688  0.00  0.00    +0.000 N 
ATOM      7  C   UNL     1       0.507   9.979  19.469  0.00  0.00    +0.000 C 
ATOM      8  O   UNL     1      -0.529  10.245  18.866  0.00  0.00    +0.000 OA
ATOM      9  H   UNL     1       1.829  10.309  20.989  0.00  0.00    +0.000 HD
BRANCH   6  13
ATOM     10  C   UNL     1      -1.310  13.205  23.104  0.00  0.00    +0.000 A 
ATOM     11  C   UNL     1      -0.416  13.698  22.154  0.00  0.00    +0.000 A 
ATOM     12  C   UNL     1       0.298  12.821  21.338  0.00  0.00    +0.000 A 
ATOM     13  C   UNL     1       0.137  11.440  21.454  0.00  0.00    +0.000 A 
ATOM     14  C   UNL     1      -0.795  10.943  22.370  0.00  0.00    +0.000 A 
ATOM     15  C   UNL     1      -1.508  11.821  23.200  0.00  0.00    +0.000 A 
BRANCH  10  17
ATOM     16  C   UNL     1      -1.279  15.219  24.715  0.00  0.00    +0.000 C 
ATOM     17  C   UNL     1      -2.047  14.122  24.020  0.00  0.00    +0.000 C 
ATOM     18  O   UNL     1      -3.256  13.978  24.192  0.00  0.00    +0.000 OA
ENDBRANCH  10  17
ENDBRANCH   6  13
ENDBRANCH   1   7
BRANCH   4  19
ATOM     19  C   UNL     1       3.185   5.945  19.353  0.00  0.00    +0.000 C 
BRANCH  19  20
ATOM     20  O   UNL     1       4.616   5.961  19.324  0.00  0.00    +0.000 OA
BRANCH  20  21
ATOM     21  C   UNL     1       5.158   5.303  18.253  0.00  0.00    +0.000 A 
ATOM     22  C   UNL     1       4.369   4.704  17.261  0.00  0.00    +0.000 A 
ATOM     23  C   UNL     1       4.955   4.051  16.177  0.00  0.00    +0.000 A 
ATOM     24  C   UNL     1       6.341   4.011  16.041  0.00  0.00    +0.000 A 
ATOM     25  C   UNL     1       7.148   4.636  16.990  0.00  0.00    +0.000 A 
ATOM     26  C   UNL     1       6.548   5.275  18.084  0.00  0.00    +0.000 A 
BRANCH  26  27
ATOM     27  N   UNL     1       7.423   5.884  19.069  0.00  0.00    +0.000 N 
ATOM     28  O   UNL     1       7.517   5.325  20.170  0.00  0.00    +0.000 OA
ATOM     29  O   UNL     1       8.073   6.875  18.703  0.00  0.00    +0.000 OA
ENDBRANCH  26  27
ENDBRANCH  20  21
ENDBRANCH  19  20
ENDBRANCH   4  19
TORSDOF 7
ENDMDL
MODEL 7
REMARK VINA RESULT:      -7.9      5.520      7.116
REMARK  Name = 
REMARK  8 active torsions:
REMARK  status: ('A' for Active; 'I' for Inactive)
REMARK    1  A    between atoms: C_1  and  C_2
REMARK    2  A    between atoms: C_2  and  C_4
REMARK    3  A    between atoms: C_7  and  N_8
REMARK    4  A    between atoms: C_9  and  C_11
REMARK    5  A    between atoms: C_14  and  C_15
REMARK    6  A    between atoms: C_15  and  O_16
REMARK    7  A    between atoms: O_16  and  C_17
REMARK    8  A    between atoms: C_22  and  N_23
REMARK                            x       y       z     vdW  Elec       q    Type
REMARK                         _______ _______ _______ _____ _____    ______ ____
ROOT
ATOM      1  C   UNL     1       7.618   7.034  18.039  0.00  0.00    +0.000 A 
ATOM      2  C   UNL     1       7.972   6.048  18.938  0.00  0.00    +0.000 A 
ATOM      3  C   UNL     1       7.374   4.853  18.487  0.00  0.00    +0.000 A 
ATOM      4  C   UNL     1       6.691   5.176  17.333  0.00  0.00    +0.000 A 
ATOM      5  O   UNL     1       6.834   6.502  17.051  0.00  0.00    +0.000 OA
ENDROOT
BRANCH   1   7
ATOM      6  N   UNL     1       8.875   8.807  18.991  0.00  0.00    +0.000 N 
ATOM      7  C   UNL     1       7.959   8.437  18.015  0.00  0.00    +0.000 C 
ATOM      8  O   UNL     1       7.477   9.192  17.176  0.00  0.00    +0.000 OA
ATOM      9  H   UNL     1       9.281   8.044  19.520  0.00  0.00    +0.000 HD
BRANCH   6  13
ATOM     10  C   UNL     1      10.296  12.747  19.537  0.00  0.00    +0.000 A 
ATOM     11  C   UNL     1       9.809  12.026  20.627  0.00  0.00    +0.000 A 
ATOM     12  C   UNL     1       9.356  10.718  20.460  0.00  0.00    +0.000 A 
ATOM     13  C   UNL     1       9.378  10.105  19.207  0.00  0.00    +0.000 A 
ATOM     14  C   UNL     1       9.912  10.806  18.121  0.00  0.00    +0.000 A 
ATOM     15  C   UNL     1      10.359  12.125  18.282  0.00  0.00    +0.000 A 
BRANCH  10  17
ATOM     16  C   UNL     1      11.310  14.869  18.479  0.00  0.00    +0.000 C 
ATOM     17  C   UNL     1      10.739  14.163  19.684  0.00  0.00    +0.000 C 
ATOM     18  O   UNL     1      10.632  14.731  20.769  0.00  0.00    +0.000 OA
ENDBRANCH  10  17
ENDBRANCH   6  13
ENDBRANCH   1   7
BRANCH   4  19
ATOM     19  C   UNL     1       5.918   4.366  16.368  0.00  0.00    +0.000 C 
BRANCH  19  20
ATOM     20  O   UNL     1       4.535   4.691  16.541  0.00  0.00    +0.000 OA
BRANCH  20  21
ATOM     21  C   UNL     1       3.883   3.890  17.439  0.00  0.00    +0.000 A 
ATOM     22  C   UNL     1       3.910   2.491  17.355  0.00  0.00    +0.000 A 
ATOM     23  C   UNL     1       3.243   1.704  18.294  0.00  0.00    +0.000 A 
ATOM     24  C   UNL     1       2.562   2.295  19.356  0.00  0.00    +0.000 A 
ATOM     25  C   UNL     1       2.556   3.683  19.487  0.00  0.00    +0.000 A 
ATOM     26  C   UNL     1       3.216   4.464  18.528  0.00  0.00    +0.000 A 
BRANCH  26  27
ATOM     27  N   UNL     1       3.157   5.906  18.680  0.00  0.00    +0.000 N 
ATOM     28  O   UNL     1       4.052   6.445  19.344  0.00  0.00    +0.000 OA
ATOM     29  O   UNL     1       2.258   6.497  18.063  0.00  0.00    +0.000 OA
ENDBRANCH  26  27
ENDBRANCH  20  21
ENDBRANCH  19  20
ENDBRANCH   4  19
TORSDOF 7
ENDMDL
MODEL 8
REMARK VINA RESULT:      -7.9      2.171      3.620
REMARK  Name = 
REMARK  8 active torsions:
REMARK  status: ('A' for Active; 'I' for Inactive)
REMARK    1  A    between atoms: C_1  and  C_2
REMARK    2  A    between atoms: C_2  and  C_4
REMARK    3  A    between atoms: C_7  and  N_8
REMARK    4  A    between atoms: C_9  and  C_11
REMARK    5  A    between atoms: C_14  and  C_15
REMARK    6  A    between atoms: C_15  and  O_16
REMARK    7  A    between atoms: O_16  and  C_17
REMARK    8  A    between atoms: C_22  and  N_23
REMARK                            x       y       z     vdW  Elec       q    Type
REMARK                         _______ _______ _______ _____ _____    ______ ____
ROOT
ATOM      1  C   UNL     1       1.188   9.692  19.751  0.00  0.00    +0.000 A 
ATOM      2  C   UNL     1       1.062  10.094  18.436  0.00  0.00    +0.000 A 
ATOM      3  C   UNL     1       1.637   9.079  17.643  0.00  0.00    +0.000 A 
ATOM      4  C   UNL     1       2.079   8.111  18.521  0.00  0.00    +0.000 A 
ATOM      5  O   UNL     1       1.809   8.474  19.806  0.00  0.00    +0.000 OA
ENDROOT
BRANCH   1   7
ATOM      6  N   UNL     1      -0.112  11.400  20.762  0.00  0.00    +0.000 N 
ATOM      7  C   UNL     1       0.766  10.345  20.968  0.00  0.00    +0.000 C 
ATOM      8  O   UNL     1       1.156   9.954  22.065  0.00  0.00    +0.000 OA
ATOM      9  H   UNL     1      -0.444  11.513  19.810  0.00  0.00    +0.000 HD
BRANCH   6  13
ATOM     10  C   UNL     1      -1.822  13.954  23.660  0.00  0.00    +0.000 A 
ATOM     11  C   UNL     1      -2.335  12.670  23.475  0.00  0.00    +0.000 A 
ATOM     12  C   UNL     1      -1.764  11.812  22.535  0.00  0.00    +0.000 A 
ATOM     13  C   UNL     1      -0.676  12.217  21.760  0.00  0.00    +0.000 A 
ATOM     14  C   UNL     1      -0.128  13.485  21.978  0.00  0.00    +0.000 A 
ATOM     15  C   UNL     1      -0.704  14.354  22.915  0.00  0.00    +0.000 A 
BRANCH  10  17
ATOM     16  C   UNL     1      -1.664  15.311  25.846  0.00  0.00    +0.000 C 
ATOM     17  C   UNL     1      -2.447  14.903  24.623  0.00  0.00    +0.000 C 
ATOM     18  O   UNL     1      -3.577  15.339  24.412  0.00  0.00    +0.000 OA
ENDBRANCH  10  17
ENDBRANCH   6  13
ENDBRANCH   1   7
BRANCH   4  19
ATOM     19  C   UNL     1       2.710   6.789  18.316  0.00  0.00    +0.000 C 
BRANCH  19  20
ATOM     20  O   UNL     1       3.157   6.322  19.593  0.00  0.00    +0.000 OA
BRANCH  20  21
ATOM     21  C   UNL     1       2.741   5.054  19.898  0.00  0.00    +0.000 A 
ATOM     22  C   UNL     1       1.514   4.796  20.526  0.00  0.00    +0.000 A 
ATOM     23  C   UNL     1       1.117   3.490  20.813  0.00  0.00    +0.000 A 
ATOM     24  C   UNL     1       1.919   2.411  20.449  0.00  0.00    +0.000 A 
ATOM     25  C   UNL     1       3.124   2.637  19.785  0.00  0.00    +0.000 A 
ATOM     26  C   UNL     1       3.521   3.955  19.517  0.00  0.00    +0.000 A 
BRANCH  26  27
ATOM     27  N   UNL     1       4.797   4.151  18.855  0.00  0.00    +0.000 N 
ATOM     28  O   UNL     1       4.817   4.058  17.620  0.00  0.00    +0.000 OA
ATOM     29  O   UNL     1       5.755   4.477  19.572  0.00  0.00    +0.000 OA
ENDBRANCH  26  27
ENDBRANCH  20  21
ENDBRANCH  19  20
ENDBRANCH   4  19
TORSDOF 7
ENDMDL
MODEL 9
REMARK VINA RESULT:      -7.9      4.777      6.737
REMARK  Name = 
REMARK  8 active torsions:
REMARK  status: ('A' for Active; 'I' for Inactive)
REMARK    1  A    between atoms: C_1  and  C_2
REMARK    2  A    between atoms: C_2  and  C_4
REMARK    3  A    between atoms: C_7  and  N_8
REMARK    4  A    between atoms: C_9  and  C_11
REMARK    5  A    between atoms: C_14  and  C_15
REMARK    6  A    between atoms: C_15  and  O_16
REMARK    7  A    between atoms: O_16  and  C_17
REMARK    8  A    between atoms: C_22  and  N_23
REMARK                            x       y       z     vdW  Elec       q    Type
REMARK                         _______ _______ _______ _____ _____    ______ ____
ROOT
ATOM      1  C   UNL     1       6.793   6.114  17.176  0.00  0.00    +0.000 A 
ATOM      2  C   UNL     1       6.705   5.901  15.814  0.00  0.00    +0.000 A 
ATOM      3  C   UNL     1       5.758   4.874  15.623  0.00  0.00    +0.000 A 
ATOM      4  C   UNL     1       5.318   4.518  16.881  0.00  0.00    +0.000 A 
ATOM      5  O   UNL     1       5.940   5.269  17.833  0.00  0.00    +0.000 OA
ENDROOT
BRANCH   1   7
ATOM      6  N   UNL     1       7.515   8.356  17.457  0.00  0.00    +0.000 N 
ATOM      7  C   UNL     1       7.600   7.051  17.921  0.00  0.00    +0.000 C 
ATOM      8  O   UNL     1       8.267   6.686  18.886  0.00  0.00    +0.000 OA
ATOM      9  H   UNL     1       6.819   8.520  16.738  0.00  0.00    +0.000 HD
BRANCH   6  13
ATOM     10  C   UNL     1       9.684  11.624  19.023  0.00  0.00    +0.000 A 
ATOM     11  C   UNL     1       8.850  11.808  17.921  0.00  0.00    +0.000 A 
ATOM     12  C   UNL     1       8.114  10.739  17.409  0.00  0.00    +0.000 A 
ATOM     13  C   UNL     1       8.198   9.470  17.983  0.00  0.00    +0.000 A 
ATOM     14  C   UNL     1       8.994   9.293  19.118  0.00  0.00    +0.000 A 
ATOM     15  C   UNL     1       9.743  10.362  19.631  0.00  0.00    +0.000 A 
BRANCH  10  17
ATOM     16  C   UNL     1      10.098  13.401  20.846  0.00  0.00    +0.000 C 
ATOM     17  C   UNL     1      10.516  12.741  19.556  0.00  0.00    +0.000 C 
ATOM     18  O   UNL     1      11.521  13.102  18.947  0.00  0.00    +0.000 OA
ENDBRANCH  10  17
ENDBRANCH   6  13
ENDBRANCH   1   7
BRANCH   4  19
ATOM     19  C   UNL     1       4.297   3.555  17.348  0.00  0.00    +0.000 C 
BRANCH  19  20
ATOM     20  O   UNL     1       3.017   4.181  17.206  0.00  0.00    +0.000 OA
BRANCH  20  21
ATOM     21  C   UNL     1       2.573   4.803  18.343  0.00  0.00    +0.000 A 
ATOM     22  C   UNL     1       2.793   6.165  18.587  0.00  0.00    +0.000 A 
ATOM     23  C   UNL     1       2.317   6.770  19.751  0.00  0.00    +0.000 A 
ATOM     24  C   UNL     1       1.582   6.035  20.679  0.00  0.00    +0.000 A 
ATOM     25  C   UNL     1       1.313   4.689  20.439  0.00  0.00    +0.000 A 
ATOM     26  C   UNL     1       1.810   4.088  19.274  0.00  0.00    +0.000 A 
BRANCH  26  27
ATOM     27  N   UNL     1       1.538   2.677  19.077  0.00  0.00    +0.000 N 
ATOM     28  O   UNL     1       2.254   1.869  19.683  0.00  0.00    +0.000 OA
ATOM     29  O   UNL     1       0.554   2.390  18.379  0.00  0.00    +0.000 OA
ENDBRANCH  26  27
ENDBRANCH  20  21
ENDBRANCH  19  20
ENDBRANCH   4  19
TORSDOF 7
ENDMDL
