MODEL 1
REMARK VINA RESULT:      -8.2      0.000      0.000
REMARK  Name = 
REMARK  6 active torsions:
REMARK  status: ('A' for Active; 'I' for Inactive)
REMARK    1  A    between atoms: C_6  and  O_7
REMARK    2  A    between atoms: O_7  and  C_8
REMARK    3  A    between atoms: C_17  and  S_18
REMARK    4  A    between atoms: S_18  and  C_19
REMARK    5  A    between atoms: C_19  and  C_20
REMARK    6  A    between atoms: C_26  and  C_27
REMARK                            x       y       z     vdW  Elec       q    Type
REMARK                         _______ _______ _______ _____ _____    ______ ____
ROOT
ATOM      1  O   UNL     1       7.538   4.431  18.653  0.00  0.00    +0.000 OA
ATOM      2  C   UNL     1       6.828   5.271  18.107  0.00  0.00    +0.000 C 
ATOM      3  C   UNL     1       7.257   6.680  18.097  0.00  0.00    +0.000 A 
ATOM      4  C   UNL     1       8.351   7.081  18.864  0.00  0.00    +0.000 A 
ATOM      5  C   UNL     1       8.770   8.407  18.821  0.00  0.00    +0.000 A 
ATOM      6  C   UNL     1       8.161   9.309  17.940  0.00  0.00    +0.000 A 
ATOM      7  C   UNL     1       7.042   8.913  17.201  0.00  0.00    +0.000 A 
ATOM      8  C   UNL     1       6.572   7.603  17.304  0.00  0.00    +0.000 A 
ATOM      9  O   UNL     1       5.434   7.287  16.607  0.00  0.00    +0.000 OA
ATOM     10  C   UNL     1       4.687   6.207  17.213  0.00  0.00    +0.000 C 
ATOM     11  C   UNL     1       5.571   4.943  17.328  0.00  0.00    +0.000 C 
ENDROOT
BRANCH  11  12
ATOM     12  C   UNL     1       4.824   3.709  17.814  0.00  0.00    +0.000 A 
ATOM     13  C   UNL     1       5.027   3.233  19.118  0.00  0.00    +0.000 A 
ATOM     14  C   UNL     1       4.414   2.054  19.548  0.00  0.00    +0.000 A 
ATOM     15  C   UNL     1       3.592   1.336  18.684  0.00  0.00    +0.000 A 
ATOM     16  C   UNL     1       3.354   1.813  17.398  0.00  0.00    +0.000 A 
ATOM     17  C   UNL     1       3.960   2.993  16.969  0.00  0.00    +0.000 A 
ENDBRANCH  11  12
BRANCH   6  18
ATOM     18  O   UNL     1       8.576  10.615  17.784  0.00  0.00    +0.000 OA
BRANCH  18  19
ATOM     19  C   UNL     1       9.605  11.083  18.574  0.00  0.00    +0.000 A 
ATOM     20  C   UNL     1       9.489  11.297  19.952  0.00  0.00    +0.000 A 
ATOM     21  C   UNL     1      10.559  11.832  20.671  0.00  0.00    +0.000 A 
ATOM     22  C   UNL     1      11.767  12.092  20.027  0.00  0.00    +0.000 A 
ATOM     23  C   UNL     1      11.909  11.813  18.668  0.00  0.00    +0.000 A 
ATOM     24  C   UNL     1      10.827  11.309  17.939  0.00  0.00    +0.000 A 
ENDBRANCH  18  19
ENDBRANCH   6  18
BRANCH  10  25
ATOM     25  S   UNL     1       3.836   6.765  18.766  0.00  0.00    +0.000 S 
BRANCH  25  26
ATOM     26  C   UNL     1       2.192   6.053  18.462  0.00  0.00    +0.000 C 
BRANCH  26  27
ATOM     27  C   UNL     1       1.870   4.947  19.423  0.00  0.00    +0.000 A 
ATOM     28  C   UNL     1       1.021   3.888  19.079  0.00  0.00    +0.000 A 
ATOM     29  C   UNL     1       0.734   2.895  20.012  0.00  0.00    +0.000 A 
ATOM     30  C   UNL     1       1.312   2.986  21.267  0.00  0.00    +0.000 A 
ATOM     31  N   UNL     1       2.143   3.982  21.640  0.00  0.00    +0.000 NA
ATOM     32  C   UNL     1       2.409   4.930  20.710  0.00  0.00    +0.000 A 
ENDBRANCH  26  27
ENDBRANCH  25  26
ENDBRANCH  10  25
TORSDOF 6
ENDMDL
MODEL 2
REMARK VINA RESULT:      -8.2      2.582      3.519
REMARK  Name = 
REMARK  6 active torsions:
REMARK  status: ('A' for Active; 'I' for Inactive)
REMARK    1  A    between atoms: C_6  and  O_7
REMARK    2  A    between atoms: O_7  and  C_8
REMARK    3  A    between atoms: C_17  and  S_18
REMARK    4  A    between atoms: S_18  and  C_19
REMARK    5  A    between atoms: C_19  and  C_20
REMARK    6  A    between atoms: C_26  and  C_27
REMARK                            x       y       z     vdW  Elec       q    Type
REMARK                         _______ _______ _______ _____ _____    ______ ____
ROOT
ATOM      1  O   UNL     1       5.644   3.707  19.381  0.00  0.00    +0.000 OA
ATOM      2  C   UNL     1       5.210   4.627  18.695  0.00  0.00    +0.000 C 
ATOM      3  C   UNL     1       6.078   5.784  18.408  0.00  0.00    +0.000 A 
ATOM      4  C   UNL     1       7.298   5.919  19.070  0.00  0.00    +0.000 A 
ATOM      5  C   UNL     1       8.126   6.995  18.767  0.00  0.00    +0.000 A 
ATOM      6  C   UNL     1       7.782   7.880  17.739  0.00  0.00    +0.000 A 
ATOM      7  C   UNL     1       6.541   7.763  17.105  0.00  0.00    +0.000 A 
ATOM      8  C   UNL     1       5.676   6.729  17.463  0.00  0.00    +0.000 A 
ATOM      9  O   UNL     1       4.446   6.700  16.855  0.00  0.00    +0.000 OA
ATOM     10  C   UNL     1       3.435   6.060  17.668  0.00  0.00    +0.000 C 
ATOM     11  C   UNL     1       3.859   4.613  18.010  0.00  0.00    +0.000 C 
ENDROOT
BRANCH  11  12
ATOM     12  C   UNL     1       2.787   3.810  18.734  0.00  0.00    +0.000 A 
ATOM     13  C   UNL     1       1.922   2.977  18.007  0.00  0.00    +0.000 A 
ATOM     14  C   UNL     1       0.880   2.302  18.648  0.00  0.00    +0.000 A 
ATOM     15  C   UNL     1       0.688   2.450  20.019  0.00  0.00    +0.000 A 
ATOM     16  C   UNL     1       1.558   3.245  20.759  0.00  0.00    +0.000 A 
ATOM     17  C   UNL     1       2.603   3.914  20.122  0.00  0.00    +0.000 A 
ENDBRANCH  11  12
BRANCH   6  18
ATOM     18  O   UNL     1       8.591   8.920  17.329  0.00  0.00    +0.000 OA
BRANCH  18  19
ATOM     19  C   UNL     1       8.831   9.958  18.206  0.00  0.00    +0.000 A 
ATOM     20  C   UNL     1       9.234   9.774  19.533  0.00  0.00    +0.000 A 
ATOM     21  C   UNL     1       9.397  10.874  20.375  0.00  0.00    +0.000 A 
ATOM     22  C   UNL     1       9.221  12.163  19.876  0.00  0.00    +0.000 A 
ATOM     23  C   UNL     1       8.889  12.354  18.535  0.00  0.00    +0.000 A 
ATOM     24  C   UNL     1       8.692  11.250  17.698  0.00  0.00    +0.000 A 
ENDBRANCH  18  19
ENDBRANCH   6  18
BRANCH  10  25
ATOM     25  S   UNL     1       2.938   7.137  19.096  0.00  0.00    +0.000 S 
BRANCH  25  26
ATOM     26  C   UNL     1       2.192   8.512  18.172  0.00  0.00    +0.000 C 
BRANCH  26  27
ATOM     27  C   UNL     1       1.207   9.282  19.004  0.00  0.00    +0.000 A 
ATOM     28  C   UNL     1       1.061   9.056  20.378  0.00  0.00    +0.000 A 
ATOM     29  C   UNL     1       0.119   9.780  21.104  0.00  0.00    +0.000 A 
ATOM     30  C   UNL     1      -0.649  10.717  20.434  0.00  0.00    +0.000 A 
ATOM     31  N   UNL     1      -0.536  10.974  19.113  0.00  0.00    +0.000 NA
ATOM     32  C   UNL     1       0.392  10.260  18.434  0.00  0.00    +0.000 A 
ENDBRANCH  26  27
ENDBRANCH  25  26
ENDBRANCH  10  25
TORSDOF 6
ENDMDL
MODEL 3
REMARK VINA RESULT:      -8.2      0.102      1.211
REMARK  Name = 
REMARK  6 active torsions:
REMARK  status: ('A' for Active; 'I' for Inactive)
REMARK    1  A    between atoms: C_6  and  O_7
REMARK    2  A    between atoms: O_7  and  C_8
REMARK    3  A    between atoms: C_17  and  S_18
REMARK    4  A    between atoms: S_18  and  C_19
REMARK    5  A    between atoms: C_19  and  C_20
REMARK    6  A    between atoms: C_26  and  C_27
REMARK                            x       y       z     vdW  Elec       q    Type
REMARK                         _______ _______ _______ _____ _____    ______ ____
ROOT
ATOM      1  O   UNL     1       7.679   4.476  18.661  0.00  0.00    +0.000 OA
ATOM      2  C   UNL     1       6.950   5.296  18.111  0.00  0.00    +0.000 C 
ATOM      3  C   UNL     1       7.336   6.718  18.110  0.00  0.00    +0.000 A 
ATOM      4  C   UNL     1       8.408   7.148  18.892  0.00  0.00    +0.000 A 
ATOM      5  C   UNL     1       8.788   8.486  18.857  0.00  0.00    +0.000 A 
ATOM      6  C   UNL     1       8.162   9.373  17.973  0.00  0.00    +0.000 A 
ATOM      7  C   UNL     1       7.063   8.947  17.220  0.00  0.00    +0.000 A 
ATOM      8  C   UNL     1       6.633   7.623  17.313  0.00  0.00    +0.000 A 
ATOM      9  O   UNL     1       5.512   7.275  16.602  0.00  0.00    +0.000 OA
ATOM     10  C   UNL     1       4.792   6.171  17.196  0.00  0.00    +0.000 C 
ATOM     11  C   UNL     1       5.712   4.933  17.316  0.00  0.00    +0.000 C 
ENDROOT
BRANCH  11  12
ATOM     12  C   UNL     1       4.997   3.676  17.788  0.00  0.00    +0.000 A 
ATOM     13  C   UNL     1       4.130   2.992  16.922  0.00  0.00    +0.000 A 
ATOM     14  C   UNL     1       3.403   1.887  17.370  0.00  0.00    +0.000 A 
ATOM     15  C   UNL     1       3.530   1.451  18.686  0.00  0.00    +0.000 A 
ATOM     16  C   UNL     1       4.411   2.098  19.548  0.00  0.00    +0.000 A 
ATOM     17  C   UNL     1       5.143   3.197  19.101  0.00  0.00    +0.000 A 
ENDBRANCH  11  12
BRANCH   6  18
ATOM     18  O   UNL     1       8.538  10.692  17.827  0.00  0.00    +0.000 OA
BRANCH  18  19
ATOM     19  C   UNL     1       9.648  11.145  18.510  0.00  0.00    +0.000 A 
ATOM     20  C   UNL     1      10.891  11.369  17.907  0.00  0.00    +0.000 A 
ATOM     21  C   UNL     1      11.982  11.769  18.679  0.00  0.00    +0.000 A 
ATOM     22  C   UNL     1      11.819  12.007  20.042  0.00  0.00    +0.000 A 
ATOM     23  C   UNL     1      10.565  11.854  20.633  0.00  0.00    +0.000 A 
ATOM     24  C   UNL     1       9.478  11.421  19.867  0.00  0.00    +0.000 A 
ENDBRANCH  18  19
ENDBRANCH   6  18
BRANCH  10  25
ATOM     25  S   UNL     1       3.906   6.697  18.740  0.00  0.00    +0.000 S 
BRANCH  25  26
ATOM     26  C   UNL     1       2.276   5.970  18.397  0.00  0.00    +0.000 C 
BRANCH  26  27
ATOM     27  C   UNL     1       1.911   4.909  19.393  0.00  0.00    +0.000 A 
ATOM     28  C   UNL     1       1.017   3.877  19.083  0.00  0.00    +0.000 A 
ATOM     29  C   UNL     1       0.692   2.926  20.047  0.00  0.00    +0.000 A 
ATOM     30  C   UNL     1       1.277   3.031  21.297  0.00  0.00    +0.000 A 
ATOM     31  N   UNL     1       2.150   4.002  21.638  0.00  0.00    +0.000 NA
ATOM     32  C   UNL     1       2.453   4.909  20.678  0.00  0.00    +0.000 A 
ENDBRANCH  26  27
ENDBRANCH  25  26
ENDBRANCH  10  25
TORSDOF 6
ENDMDL
MODEL 4
REMARK VINA RESULT:      -8.1      0.505      1.206
REMARK  Name = 
REMARK  6 active torsions:
REMARK  status: ('A' for Active; 'I' for Inactive)
REMARK    1  A    between atoms: C_6  and  O_7
REMARK    2  A    between atoms: O_7  and  C_8
REMARK    3  A    between atoms: C_17  and  S_18
REMARK    4  A    between atoms: S_18  and  C_19
REMARK    5  A    between atoms: C_19  and  C_20
REMARK    6  A    between atoms: C_26  and  C_27
REMARK                            x       y       z     vdW  Elec       q    Type
REMARK                         _______ _______ _______ _____ _____    ______ ____
ROOT
ATOM      1  O   UNL     1       7.588   4.484  18.695  0.00  0.00    +0.000 OA
ATOM      2  C   UNL     1       6.871   5.311  18.141  0.00  0.00    +0.000 C 
ATOM      3  C   UNL     1       7.283   6.725  18.122  0.00  0.00    +0.000 A 
ATOM      4  C   UNL     1       8.369   7.143  18.891  0.00  0.00    +0.000 A 
ATOM      5  C   UNL     1       8.774   8.474  18.840  0.00  0.00    +0.000 A 
ATOM      6  C   UNL     1       8.158   9.362  17.951  0.00  0.00    +0.000 A 
ATOM      7  C   UNL     1       7.046   8.949  17.210  0.00  0.00    +0.000 A 
ATOM      8  C   UNL     1       6.591   7.635  17.320  0.00  0.00    +0.000 A 
ATOM      9  O   UNL     1       5.459   7.301  16.621  0.00  0.00    +0.000 OA
ATOM     10  C   UNL     1       4.723   6.217  17.232  0.00  0.00    +0.000 C 
ATOM     11  C   UNL     1       5.620   4.963  17.359  0.00  0.00    +0.000 C 
ENDROOT
BRANCH  11  12
ATOM     12  C   UNL     1       4.885   3.725  17.850  0.00  0.00    +0.000 A 
ATOM     13  C   UNL     1       5.086   3.262  19.160  0.00  0.00    +0.000 A 
ATOM     14  C   UNL     1       4.485   2.079  19.596  0.00  0.00    +0.000 A 
ATOM     15  C   UNL     1       3.677   1.343  18.733  0.00  0.00    +0.000 A 
ATOM     16  C   UNL     1       3.441   1.807  17.442  0.00  0.00    +0.000 A 
ATOM     17  C   UNL     1       4.035   2.991  17.007  0.00  0.00    +0.000 A 
ENDBRANCH  11  12
BRANCH   6  18
ATOM     18  O   UNL     1       8.558  10.673  17.787  0.00  0.00    +0.000 OA
BRANCH  18  19
ATOM     19  C   UNL     1       9.653  11.124  18.493  0.00  0.00    +0.000 A 
ATOM     20  C   UNL     1      10.909  11.347  17.917  0.00  0.00    +0.000 A 
ATOM     21  C   UNL     1      11.984  11.746  18.711  0.00  0.00    +0.000 A 
ATOM     22  C   UNL     1      11.792  11.986  20.070  0.00  0.00    +0.000 A 
ATOM     23  C   UNL     1      10.526  11.834  20.635  0.00  0.00    +0.000 A 
ATOM     24  C   UNL     1       9.455  11.402  19.846  0.00  0.00    +0.000 A 
ENDBRANCH  18  19
ENDBRANCH   6  18
BRANCH  10  25
ATOM     25  S   UNL     1       3.859   6.776  18.777  0.00  0.00    +0.000 S 
BRANCH  25  26
ATOM     26  C   UNL     1       2.216   6.068  18.459  0.00  0.00    +0.000 C 
BRANCH  26  27
ATOM     27  C   UNL     1       1.882   4.963  19.418  0.00  0.00    +0.000 A 
ATOM     28  C   UNL     1       2.379   4.941  20.726  0.00  0.00    +0.000 A 
ATOM     29  C   UNL     1       2.058   3.883  21.573  0.00  0.00    +0.000 A 
ATOM     30  C   UNL     1       1.242   2.876  21.088  0.00  0.00    +0.000 A 
ATOM     31  N   UNL     1       0.733   2.860  19.837  0.00  0.00    +0.000 NA
ATOM     32  C   UNL     1       1.056   3.905  19.038  0.00  0.00    +0.000 A 
ENDBRANCH  26  27
ENDBRANCH  25  26
ENDBRANCH  10  25
TORSDOF 6
ENDMDL
MODEL 5
REMARK VINA RESULT:      -7.8      2.760      3.679
REMARK  Name = 
REMARK  6 active torsions:
REMARK  status: ('A' for Active; 'I' for Inactive)
REMARK    1  A    between atoms: C_6  and  O_7
REMARK    2  A    between atoms: O_7  and  C_8
REMARK    3  A    between atoms: C_17  and  S_18
REMARK    4  A    between atoms: S_18  and  C_19
REMARK    5  A    between atoms: C_19  and  C_20
REMARK    6  A    between atoms: C_26  and  C_27
REMARK                            x       y       z     vdW  Elec       q    Type
REMARK                         _______ _______ _______ _____ _____    ______ ____
ROOT
ATOM      1  O   UNL     1       5.549   3.841  19.414  0.00  0.00    +0.000 OA
ATOM      2  C   UNL     1       5.178   4.742  18.669  0.00  0.00    +0.000 C 
ATOM      3  C   UNL     1       6.082   5.874  18.401  0.00  0.00    +0.000 A 
ATOM      4  C   UNL     1       7.259   6.014  19.137  0.00  0.00    +0.000 A 
ATOM      5  C   UNL     1       8.124   7.066  18.853  0.00  0.00    +0.000 A 
ATOM      6  C   UNL     1       7.865   7.919  17.774  0.00  0.00    +0.000 A 
ATOM      7  C   UNL     1       6.666   7.798  17.063  0.00  0.00    +0.000 A 
ATOM      8  C   UNL     1       5.761   6.791  17.398  0.00  0.00    +0.000 A 
ATOM      9  O   UNL     1       4.574   6.759  16.711  0.00  0.00    +0.000 OA
ATOM     10  C   UNL     1       3.500   6.165  17.476  0.00  0.00    +0.000 C 
ATOM     11  C   UNL     1       3.874   4.724  17.896  0.00  0.00    +0.000 C 
ENDROOT
BRANCH  11  12
ATOM     12  C   UNL     1       2.743   3.965  18.574  0.00  0.00    +0.000 A 
ATOM     13  C   UNL     1       2.401   4.253  19.904  0.00  0.00    +0.000 A 
ATOM     14  C   UNL     1       1.424   3.506  20.566  0.00  0.00    +0.000 A 
ATOM     15  C   UNL     1       0.775   2.462  19.909  0.00  0.00    +0.000 A 
ATOM     16  C   UNL     1       1.079   2.187  18.579  0.00  0.00    +0.000 A 
ATOM     17  C   UNL     1       2.050   2.936  17.915  0.00  0.00    +0.000 A 
ENDBRANCH  11  12
BRANCH   6  18
ATOM     18  O   UNL     1       8.717   8.931  17.383  0.00  0.00    +0.000 OA
BRANCH  18  19
ATOM     19  C   UNL     1       8.907  10.002  18.231  0.00  0.00    +0.000 A 
ATOM     20  C   UNL     1       9.335   9.874  19.557  0.00  0.00    +0.000 A 
ATOM     21  C   UNL     1       9.444  11.002  20.371  0.00  0.00    +0.000 A 
ATOM     22  C   UNL     1       9.188  12.266  19.843  0.00  0.00    +0.000 A 
ATOM     23  C   UNL     1       8.830  12.404  18.502  0.00  0.00    +0.000 A 
ATOM     24  C   UNL     1       8.688  11.271  17.695  0.00  0.00    +0.000 A 
ENDBRANCH  18  19
ENDBRANCH   6  18
BRANCH  10  25
ATOM     25  S   UNL     1       2.929   7.299  18.830  0.00  0.00    +0.000 S 
BRANCH  25  26
ATOM     26  C   UNL     1       1.828   8.371  17.860  0.00  0.00    +0.000 C 
BRANCH  26  27
ATOM     27  C   UNL     1       1.525   9.658  18.570  0.00  0.00    +0.000 A 
ATOM     28  C   UNL     1       0.671   9.712  19.678  0.00  0.00    +0.000 A 
ATOM     29  C   UNL     1       0.403  10.933  20.290  0.00  0.00    +0.000 A 
ATOM     30  C   UNL     1       1.004  12.071  19.780  0.00  0.00    +0.000 A 
ATOM     31  N   UNL     1       1.841  12.065  18.720  0.00  0.00    +0.000 NA
ATOM     32  C   UNL     1       2.088  10.863  18.148  0.00  0.00    +0.000 A 
ENDBRANCH  26  27
ENDBRANCH  25  26
ENDBRANCH  10  25
TORSDOF 6
ENDMDL
MODEL 6
REMARK VINA RESULT:      -7.8      6.804     10.220
REMARK  Name = 
REMARK  6 active torsions:
REMARK  status: ('A' for Active; 'I' for Inactive)
REMARK    1  A    between atoms: C_6  and  O_7
REMARK    2  A    between atoms: O_7  and  C_8
REMARK    3  A    between atoms: C_17  and  S_18
REMARK    4  A    between atoms: S_18  and  C_19
REMARK    5  A    between atoms: C_19  and  C_20
REMARK    6  A    between atoms: C_26  and  C_27
REMARK                            x       y       z     vdW  Elec       q    Type
REMARK                         _______ _______ _______ _____ _____    ______ ____
ROOT
ATOM      1  O   UNL     1      -0.524   9.506  21.970  0.00  0.00    +0.000 OA
ATOM      2  C   UNL     1      -0.195   9.873  20.846  0.00  0.00    +0.000 C 
ATOM      3  C   UNL     1       0.781   9.075  20.084  0.00  0.00    +0.000 A 
ATOM      4  C   UNL     1       1.466   8.033  20.709  0.00  0.00    +0.000 A 
ATOM      5  C   UNL     1       2.360   7.262  19.972  0.00  0.00    +0.000 A 
ATOM      6  C   UNL     1       2.499   7.468  18.595  0.00  0.00    +0.000 A 
ATOM      7  C   UNL     1       1.840   8.538  17.981  0.00  0.00    +0.000 A 
ATOM      8  C   UNL     1       1.003   9.360  18.736  0.00  0.00    +0.000 A 
ATOM      9  O   UNL     1       0.433  10.432  18.097  0.00  0.00    +0.000 OA
ATOM     10  C   UNL     1       0.133  11.525  18.996  0.00  0.00    +0.000 C 
ATOM     11  C   UNL     1      -0.816  11.050  20.120  0.00  0.00    +0.000 C 
ENDROOT
BRANCH  11  12
ATOM     12  C   UNL     1      -1.309  12.169  21.027  0.00  0.00    +0.000 A 
ATOM     13  C   UNL     1      -0.789  12.303  22.324  0.00  0.00    +0.000 A 
ATOM     14  C   UNL     1      -1.293  13.271  23.195  0.00  0.00    +0.000 A 
ATOM     15  C   UNL     1      -2.321  14.117  22.784  0.00  0.00    +0.000 A 
ATOM     16  C   UNL     1      -2.823  14.018  21.490  0.00  0.00    +0.000 A 
ATOM     17  C   UNL     1      -2.317  13.057  20.617  0.00  0.00    +0.000 A 
ENDBRANCH  11  12
BRANCH   6  18
ATOM     18  O   UNL     1       3.304   6.692  17.787  0.00  0.00    +0.000 OA
BRANCH  18  19
ATOM     19  C   UNL     1       3.100   5.328  17.762  0.00  0.00    +0.000 A 
ATOM     20  C   UNL     1       1.833   4.734  17.784  0.00  0.00    +0.000 A 
ATOM     21  C   UNL     1       1.711   3.345  17.819  0.00  0.00    +0.000 A 
ATOM     22  C   UNL     1       2.851   2.546  17.766  0.00  0.00    +0.000 A 
ATOM     23  C   UNL     1       4.112   3.133  17.672  0.00  0.00    +0.000 A 
ATOM     24  C   UNL     1       4.238   4.526  17.671  0.00  0.00    +0.000 A 
ENDBRANCH  18  19
ENDBRANCH   6  18
BRANCH  10  25
ATOM     25  S   UNL     1       1.681  12.399  19.533  0.00  0.00    +0.000 S 
BRANCH  25  26
ATOM     26  C   UNL     1       1.210  14.102  19.110  0.00  0.00    +0.000 C 
BRANCH  26  27
ATOM     27  C   UNL     1       1.004  14.950  20.330  0.00  0.00    +0.000 A 
ATOM     28  C   UNL     1       0.077  15.999  20.358  0.00  0.00    +0.000 A 
ATOM     29  C   UNL     1      -0.064  16.772  21.507  0.00  0.00    +0.000 A 
ATOM     30  C   UNL     1       0.726  16.472  22.603  0.00  0.00    +0.000 A 
ATOM     31  N   UNL     1       1.626  15.465  22.625  0.00  0.00    +0.000 NA
ATOM     32  C   UNL     1       1.736  14.725  21.496  0.00  0.00    +0.000 A 
ENDBRANCH  26  27
ENDBRANCH  25  26
ENDBRANCH  10  25
TORSDOF 6
ENDMDL
MODEL 7
REMARK VINA RESULT:      -7.7      6.994     10.340
REMARK  Name = 
REMARK  6 active torsions:
REMARK  status: ('A' for Active; 'I' for Inactive)
REMARK    1  A    between atoms: C_6  and  O_7
REMARK    2  A    between atoms: O_7  and  C_8
REMARK    3  A    between atoms: C_17  and  S_18
REMARK    4  A    between atoms: S_18  and  C_19
REMARK    5  A    between atoms: C_19  and  C_20
REMARK    6  A    between atoms: C_26  and  C_27
REMARK                            x       y       z     vdW  Elec       q    Type
REMARK                         _______ _______ _______ _____ _____    ______ ____
ROOT
ATOM      1  O   UNL     1      -0.558   9.608  22.033  0.00  0.00    +0.000 OA
ATOM      2  C   UNL     1      -0.238   9.971  20.905  0.00  0.00    +0.000 C 
ATOM      3  C   UNL     1       0.723   9.163  20.134  0.00  0.00    +0.000 A 
ATOM      4  C   UNL     1       1.406   8.116  20.752  0.00  0.00    +0.000 A 
ATOM      5  C   UNL     1       2.285   7.336  20.007  0.00  0.00    +0.000 A 
ATOM      6  C   UNL     1       2.411   7.541  18.628  0.00  0.00    +0.000 A 
ATOM      7  C   UNL     1       1.755   8.615  18.020  0.00  0.00    +0.000 A 
ATOM      8  C   UNL     1       0.933   9.445  18.783  0.00  0.00    +0.000 A 
ATOM      9  O   UNL     1       0.365  10.522  18.149  0.00  0.00    +0.000 OA
ATOM     10  C   UNL     1       0.085  11.618  19.050  0.00  0.00    +0.000 C 
ATOM     11  C   UNL     1      -0.857  11.152  20.185  0.00  0.00    +0.000 C 
ENDROOT
BRANCH  11  12
ATOM     12  C   UNL     1      -1.330  12.276  21.095  0.00  0.00    +0.000 A 
ATOM     13  C   UNL     1      -0.760  12.437  22.368  0.00  0.00    +0.000 A 
ATOM     14  C   UNL     1      -1.244  13.409  23.246  0.00  0.00    +0.000 A 
ATOM     15  C   UNL     1      -2.301  14.233  22.866  0.00  0.00    +0.000 A 
ATOM     16  C   UNL     1      -2.854  14.108  21.595  0.00  0.00    +0.000 A 
ATOM     17  C   UNL     1      -2.368  13.143  20.715  0.00  0.00    +0.000 A 
ENDBRANCH  11  12
BRANCH   6  18
ATOM     18  O   UNL     1       3.201   6.756  17.813  0.00  0.00    +0.000 OA
BRANCH  18  19
ATOM     19  C   UNL     1       3.111   5.384  17.924  0.00  0.00    +0.000 A 
ATOM     20  C   UNL     1       1.929   4.665  17.717  0.00  0.00    +0.000 A 
ATOM     21  C   UNL     1       1.905   3.284  17.909  0.00  0.00    +0.000 A 
ATOM     22  C   UNL     1       3.077   2.610  18.245  0.00  0.00    +0.000 A 
ATOM     23  C   UNL     1       4.273   3.313  18.383  0.00  0.00    +0.000 A 
ATOM     24  C   UNL     1       4.291   4.703  18.224  0.00  0.00    +0.000 A 
ENDBRANCH  18  19
ENDBRANCH   6  18
BRANCH  10  25
ATOM     25  S   UNL     1       1.645  12.479  19.570  0.00  0.00    +0.000 S 
BRANCH  25  26
ATOM     26  C   UNL     1       1.436  14.032  18.651  0.00  0.00    +0.000 C 
BRANCH  26  27
ATOM     27  C   UNL     1       0.725  15.076  19.461  0.00  0.00    +0.000 A 
ATOM     28  C   UNL     1       1.079  15.353  20.788  0.00  0.00    +0.000 A 
ATOM     29  C   UNL     1       0.377  16.316  21.507  0.00  0.00    +0.000 A 
ATOM     30  C   UNL     1      -0.660  16.982  20.877  0.00  0.00    +0.000 A 
ATOM     31  N   UNL     1      -1.030  16.754  19.598  0.00  0.00    +0.000 NA
ATOM     32  C   UNL     1      -0.325  15.817  18.921  0.00  0.00    +0.000 A 
ENDBRANCH  26  27
ENDBRANCH  25  26
ENDBRANCH  10  25
TORSDOF 6
ENDMDL
MODEL 8
REMARK VINA RESULT:      -7.7      6.934     10.340
REMARK  Name = 
REMARK  6 active torsions:
REMARK  status: ('A' for Active; 'I' for Inactive)
REMARK    1  A    between atoms: C_6  and  O_7
REMARK    2  A    between atoms: O_7  and  C_8
REMARK    3  A    between atoms: C_17  and  S_18
REMARK    4  A    between atoms: S_18  and  C_19
REMARK    5  A    between atoms: C_19  and  C_20
REMARK    6  A    between atoms: C_26  and  C_27
REMARK                            x       y       z     vdW  Elec       q    Type
REMARK                         _______ _______ _______ _____ _____    ______ ____
ROOT
ATOM      1  O   UNL     1      -0.590   9.687  22.013  0.00  0.00    +0.000 OA
ATOM      2  C   UNL     1      -0.228  10.015  20.887  0.00  0.00    +0.000 C 
ATOM      3  C   UNL     1       0.727   9.160  20.160  0.00  0.00    +0.000 A 
ATOM      4  C   UNL     1       1.358   8.105  20.819  0.00  0.00    +0.000 A 
ATOM      5  C   UNL     1       2.231   7.281  20.116  0.00  0.00    +0.000 A 
ATOM      6  C   UNL     1       2.401   7.450  18.737  0.00  0.00    +0.000 A 
ATOM      7  C   UNL     1       1.797   8.531  18.087  0.00  0.00    +0.000 A 
ATOM      8  C   UNL     1       0.982   9.404  18.809  0.00  0.00    +0.000 A 
ATOM      9  O   UNL     1       0.467  10.484  18.137  0.00  0.00    +0.000 OA
ATOM     10  C   UNL     1       0.199  11.608  19.006  0.00  0.00    +0.000 C 
ATOM     11  C   UNL     1      -0.788  11.198  20.124  0.00  0.00    +0.000 C 
ENDROOT
BRANCH  11  12
ATOM     12  C   UNL     1      -1.248  12.357  20.997  0.00  0.00    +0.000 A 
ATOM     13  C   UNL     1      -0.419  12.838  22.022  0.00  0.00    +0.000 A 
ATOM     14  C   UNL     1      -0.864  13.843  22.884  0.00  0.00    +0.000 A 
ATOM     15  C   UNL     1      -2.140  14.380  22.735  0.00  0.00    +0.000 A 
ATOM     16  C   UNL     1      -2.961  13.938  21.702  0.00  0.00    +0.000 A 
ATOM     17  C   UNL     1      -2.517  12.939  20.836  0.00  0.00    +0.000 A 
ENDBRANCH  11  12
BRANCH   6  18
ATOM     18  O   UNL     1       3.186   6.622  17.961  0.00  0.00    +0.000 OA
BRANCH  18  19
ATOM     19  C   UNL     1       3.133   5.262  18.179  0.00  0.00    +0.000 A 
ATOM     20  C   UNL     1       4.174   4.528  18.758  0.00  0.00    +0.000 A 
ATOM     21  C   UNL     1       4.068   3.143  18.888  0.00  0.00    +0.000 A 
ATOM     22  C   UNL     1       2.896   2.497  18.501  0.00  0.00    +0.000 A 
ATOM     23  C   UNL     1       1.828   3.234  17.989  0.00  0.00    +0.000 A 
ATOM     24  C   UNL     1       1.946   4.618  17.827  0.00  0.00    +0.000 A 
ENDBRANCH  18  19
ENDBRANCH   6  18
BRANCH  10  25
ATOM     25  S   UNL     1       1.772  12.430  19.550  0.00  0.00    +0.000 S 
BRANCH  25  26
ATOM     26  C   UNL     1       1.639  13.968  18.590  0.00  0.00    +0.000 C 
BRANCH  26  27
ATOM     27  C   UNL     1       0.881  15.031  19.330  0.00  0.00    +0.000 A 
ATOM     28  C   UNL     1      -0.409  15.421  18.953  0.00  0.00    +0.000 A 
ATOM     29  C   UNL     1      -1.065  16.427  19.657  0.00  0.00    +0.000 A 
ATOM     30  C   UNL     1      -0.412  17.013  20.727  0.00  0.00    +0.000 A 
ATOM     31  N   UNL     1       0.828  16.663  21.133  0.00  0.00    +0.000 NA
ATOM     32  C   UNL     1       1.439  15.677  20.433  0.00  0.00    +0.000 A 
ENDBRANCH  26  27
ENDBRANCH  25  26
ENDBRANCH  10  25
TORSDOF 6
ENDMDL
MODEL 9
REMARK VINA RESULT:      -7.7      6.888     10.363
REMARK  Name = 
REMARK  6 active torsions:
REMARK  status: ('A' for Active; 'I' for Inactive)
REMARK    1  A    between atoms: C_6  and  O_7
REMARK    2  A    between atoms: O_7  and  C_8
REMARK    3  A    between atoms: C_17  and  S_18
REMARK    4  A    between atoms: S_18  and  C_19
REMARK    5  A    between atoms: C_19  and  C_20
REMARK    6  A    between atoms: C_26  and  C_27
REMARK                            x       y       z     vdW  Elec       q    Type
REMARK                         _______ _______ _______ _____ _____    ______ ____
ROOT
ATOM      1  O   UNL     1      -0.515   9.521  22.033  0.00  0.00    +0.000 OA
ATOM      2  C   UNL     1      -0.189   9.887  20.908  0.00  0.00    +0.000 C 
ATOM      3  C   UNL     1       0.776   9.082  20.139  0.00  0.00    +0.000 A 
ATOM      4  C   UNL     1       1.455   8.032  20.758  0.00  0.00    +0.000 A 
ATOM      5  C   UNL     1       2.338   7.255  20.015  0.00  0.00    +0.000 A 
ATOM      6  C   UNL     1       2.471   7.463  18.637  0.00  0.00    +0.000 A 
ATOM      7  C   UNL     1       1.818   8.540  18.029  0.00  0.00    +0.000 A 
ATOM      8  C   UNL     1       0.992   9.368  18.790  0.00  0.00    +0.000 A 
ATOM      9  O   UNL     1       0.428  10.446  18.157  0.00  0.00    +0.000 OA
ATOM     10  C   UNL     1       0.143  11.540  19.059  0.00  0.00    +0.000 C 
ATOM     11  C   UNL     1      -0.804  11.071  20.188  0.00  0.00    +0.000 C 
ENDROOT
BRANCH  11  12
ATOM     12  C   UNL     1      -1.282  12.192  21.099  0.00  0.00    +0.000 A 
ATOM     13  C   UNL     1      -2.573  12.720  20.946  0.00  0.00    +0.000 A 
ATOM     14  C   UNL     1      -2.993  13.806  21.718  0.00  0.00    +0.000 A 
ATOM     15  C   UNL     1      -2.132  14.378  22.651  0.00  0.00    +0.000 A 
ATOM     16  C   UNL     1      -0.861  13.843  22.839  0.00  0.00    +0.000 A 
ATOM     17  C   UNL     1      -0.442  12.756  22.074  0.00  0.00    +0.000 A 
ENDBRANCH  11  12
BRANCH   6  18
ATOM     18  O   UNL     1       3.265   6.681  17.824  0.00  0.00    +0.000 OA
BRANCH  18  19
ATOM     19  C   UNL     1       3.078   5.315  17.831  0.00  0.00    +0.000 A 
ATOM     20  C   UNL     1       1.821   4.704  17.755  0.00  0.00    +0.000 A 
ATOM     21  C   UNL     1       1.711   3.316  17.830  0.00  0.00    +0.000 A 
ATOM     22  C   UNL     1       2.859   2.531  17.915  0.00  0.00    +0.000 A 
ATOM     23  C   UNL     1       4.117   3.133  17.918  0.00  0.00    +0.000 A 
ATOM     24  C   UNL     1       4.228   4.526  17.877  0.00  0.00    +0.000 A 
ENDBRANCH  18  19
ENDBRANCH   6  18
BRANCH  10  25
ATOM     25  S   UNL     1       1.701  12.399  19.589  0.00  0.00    +0.000 S 
BRANCH  25  26
ATOM     26  C   UNL     1       1.662  13.802  18.435  0.00  0.00    +0.000 C 
BRANCH  26  27
ATOM     27  C   UNL     1       1.031  15.018  19.046  0.00  0.00    +0.000 A 
ATOM     28  C   UNL     1      -0.358  15.163  19.145  0.00  0.00    +0.000 A 
ATOM     29  C   UNL     1      -0.898  16.320  19.701  0.00  0.00    +0.000 A 
ATOM     30  C   UNL     1      -0.031  17.301  20.150  0.00  0.00    +0.000 A 
ATOM     31  N   UNL     1       1.314  17.200  20.083  0.00  0.00    +0.000 NA
ATOM     32  C   UNL     1       1.811  16.062  19.544  0.00  0.00    +0.000 A 
ENDBRANCH  26  27
ENDBRANCH  25  26
ENDBRANCH  10  25
TORSDOF 6
ENDMDL
