MODEL 1
REMARK VINA RESULT:      -8.0      0.000      0.000
REMARK  Name = 
REMARK  10 active torsions:
REMARK  status: ('A' for Active; 'I' for Inactive)
REMARK    1  A    between atoms: C_1  and  O_2
REMARK    2  A    between atoms: O_2  and  C_3
REMARK    3  A    between atoms: C_3  and  C_4
REMARK    4  A    between atoms: C_3  and  C_5
REMARK    5  A    between atoms: C_3  and  C_6
REMARK    6  A    between atoms: N_8  and  C_9
REMARK    7  A    between atoms: C_12  and  C_13
REMARK    8  A    between atoms: C_14  and  C_15
REMARK    9  A    between atoms: C_20  and  N_21
REMARK   10  A    between atoms: C_22  and  C_24
REMARK                            x       y       z     vdW  Elec       q    Type
REMARK                         _______ _______ _______ _____ _____    ______ ____
ROOT
ATOM      1  C   UNL     1       1.735   7.526  20.125  0.00  0.00    +0.000 A 
ATOM      2  C   UNL     1       1.530   8.516  19.145  0.00  0.00    +0.000 A 
ATOM      3  C   UNL     1       0.960   9.770  19.453  0.00  0.00    +0.000 A 
ATOM      4  C   UNL     1       0.521  10.062  20.754  0.00  0.00    +0.000 A 
ATOM      5  C   UNL     1      -0.084  11.282  21.131  0.00  0.00    +0.000 A 
ATOM      6  C   UNL     1      -0.518  11.454  22.444  0.00  0.00    +0.000 A 
ATOM      7  N   UNL     1      -0.385  10.490  23.366  0.00  0.00    +0.000 NA
ATOM      8  C   UNL     1       0.216   9.340  23.009  0.00  0.00    +0.000 A 
ATOM      9  C   UNL     1       0.697   9.079  21.734  0.00  0.00    +0.000 A 
ATOM     10  C   UNL     1       1.341   7.868  21.427  0.00  0.00    +0.000 A 
ENDROOT
BRANCH   1  16
ATOM     11  C   UNL     1       4.262   4.934  18.862  0.00  0.00    +0.000 A 
ATOM     12  C   UNL     1       3.651   3.745  19.238  0.00  0.00    +0.000 A 
ATOM     13  C   UNL     1       2.399   3.752  19.837  0.00  0.00    +0.000 A 
ATOM     14  C   UNL     1       1.715   4.952  20.088  0.00  0.00    +0.000 A 
ATOM     15  C   UNL     1       0.317   4.789  20.628  0.00  0.00    +0.000 C 
ATOM     16  C   UNL     1       2.350   6.198  19.816  0.00  0.00    +0.000 A 
ATOM     17  C   UNL     1       3.636   6.144  19.203  0.00  0.00    +0.000 A 
BRANCH  11  20
ATOM     18  C   UNL     1       5.634   5.493  16.862  0.00  0.00    +0.000 C 
ATOM     19  O   UNL     1       4.749   6.016  16.188  0.00  0.00    +0.000 OA
ATOM     20  N   UNL     1       5.475   4.956  18.134  0.00  0.00    +0.000 N 
ATOM     21  H   UNL     1       6.331   4.741  18.640  0.00  0.00    +0.000 HD
BRANCH  18  22
ATOM     22  C   UNL     1       7.092   5.433  16.320  0.00  0.00    +0.000 C 
ATOM     23  C   UNL     1       7.093   4.784  14.924  0.00  0.00    +0.000 C 
ATOM     24  C   UNL     1       7.920   4.545  17.257  0.00  0.00    +0.000 C 
BRANCH  22  26
ATOM     25  C   UNL     1       7.641   7.446  17.534  0.00  0.00    +0.000 C 
ATOM     26  O   UNL     1       7.732   6.717  16.313  0.00  0.00    +0.000 OA
ENDBRANCH  22  26
ENDBRANCH  18  22
ENDBRANCH  11  20
ENDBRANCH   1  16
BRANCH   6  27
ATOM     27  N   UNL     1      -1.101  12.676  22.810  0.00  0.00    +0.000 N 
ATOM     28  C   UNL     1      -2.459  12.849  23.012  0.00  0.00    +0.000 C 
ATOM     29  O   UNL     1      -3.350  12.024  22.896  0.00  0.00    +0.000 OA
ATOM     30  H   UNL     1      -0.489  13.463  22.948  0.00  0.00    +0.000 HD
BRANCH  28  31
ATOM     31  C   UNL     1      -2.816  14.236  23.447  0.00  0.00    +0.000 C 
ATOM     32  C   UNL     1      -3.056  14.527  24.916  0.00  0.00    +0.000 C 
ATOM     33  C   UNL     1      -1.811  15.034  24.249  0.00  0.00    +0.000 C 
ENDBRANCH  28  31
ENDBRANCH   6  27
TORSDOF 6
ENDMDL
MODEL 2
REMARK VINA RESULT:      -7.9      3.078     10.987
REMARK  Name = 
REMARK  10 active torsions:
REMARK  status: ('A' for Active; 'I' for Inactive)
REMARK    1  A    between atoms: C_1  and  O_2
REMARK    2  A    between atoms: O_2  and  C_3
REMARK    3  A    between atoms: C_3  and  C_4
REMARK    4  A    between atoms: C_3  and  C_5
REMARK    5  A    between atoms: C_3  and  C_6
REMARK    6  A    between atoms: N_8  and  C_9
REMARK    7  A    between atoms: C_12  and  C_13
REMARK    8  A    between atoms: C_14  and  C_15
REMARK    9  A    between atoms: C_20  and  N_21
REMARK   10  A    between atoms: C_22  and  C_24
REMARK                            x       y       z     vdW  Elec       q    Type
REMARK                         _______ _______ _______ _____ _____    ______ ____
ROOT
ATOM      1  C   UNL     1       0.078  10.695  20.471  0.00  0.00    +0.000 A 
ATOM      2  C   UNL     1       0.077   9.768  21.531  0.00  0.00    +0.000 A 
ATOM      3  C   UNL     1       0.772   8.543  21.456  0.00  0.00    +0.000 A 
ATOM      4  C   UNL     1       1.458   8.172  20.288  0.00  0.00    +0.000 A 
ATOM      5  C   UNL     1       2.152   6.952  20.129  0.00  0.00    +0.000 A 
ATOM      6  C   UNL     1       2.767   6.667  18.911  0.00  0.00    +0.000 A 
ATOM      7  N   UNL     1       2.717   7.518  17.877  0.00  0.00    +0.000 NA
ATOM      8  C   UNL     1       2.077   8.690  18.042  0.00  0.00    +0.000 A 
ATOM      9  C   UNL     1       1.449   9.074  19.218  0.00  0.00    +0.000 A 
ATOM     10  C   UNL     1       0.820  10.325  19.339  0.00  0.00    +0.000 A 
ENDROOT
BRANCH   1  16
ATOM     11  C   UNL     1      -2.793  13.234  20.384  0.00  0.00    +0.000 A 
ATOM     12  C   UNL     1      -2.133  14.411  20.713  0.00  0.00    +0.000 A 
ATOM     13  C   UNL     1      -0.758  14.421  20.901  0.00  0.00    +0.000 A 
ATOM     14  C   UNL     1       0.007  13.251  20.773  0.00  0.00    +0.000 A 
ATOM     15  C   UNL     1       1.497  13.447  20.884  0.00  0.00    +0.000 C 
ATOM     16  C   UNL     1      -0.643  12.004  20.541  0.00  0.00    +0.000 A 
ATOM     17  C   UNL     1      -2.056  12.039  20.356  0.00  0.00    +0.000 A 
BRANCH  11  20
ATOM     18  C   UNL     1      -5.183  12.769  20.899  0.00  0.00    +0.000 C 
ATOM     19  O   UNL     1      -5.029  12.325  22.036  0.00  0.00    +0.000 OA
ATOM     20  N   UNL     1      -4.169  13.214  20.058  0.00  0.00    +0.000 N 
ATOM     21  H   UNL     1      -4.466  13.732  19.234  0.00  0.00    +0.000 HD
BRANCH  18  22
ATOM     22  C   UNL     1      -6.615  12.910  20.307  0.00  0.00    +0.000 C 
ATOM     23  C   UNL     1      -6.521  13.378  18.844  0.00  0.00    +0.000 C 
ATOM     24  C   UNL     1      -7.362  13.988  21.103  0.00  0.00    +0.000 C 
BRANCH  22  26
ATOM     25  C   UNL     1      -7.048  10.670  19.519  0.00  0.00    +0.000 C 
ATOM     26  O   UNL     1      -7.387  11.708  20.435  0.00  0.00    +0.000 OA
ENDBRANCH  22  26
ENDBRANCH  18  22
ENDBRANCH  11  20
ENDBRANCH   1  16
BRANCH   6  27
ATOM     27  N   UNL     1       3.467   5.461  18.773  0.00  0.00    +0.000 N 
ATOM     28  C   UNL     1       2.911   4.305  18.252  0.00  0.00    +0.000 C 
ATOM     29  O   UNL     1       1.770   4.129  17.861  0.00  0.00    +0.000 OA
ATOM     30  H   UNL     1       4.434   5.445  19.053  0.00  0.00    +0.000 HD
BRANCH  28  31
ATOM     31  C   UNL     1       3.886   3.173  18.163  0.00  0.00    +0.000 C 
ATOM     32  C   UNL     1       4.118   2.282  19.368  0.00  0.00    +0.000 C 
ATOM     33  C   UNL     1       3.363   1.752  18.184  0.00  0.00    +0.000 C 
ENDBRANCH  28  31
ENDBRANCH   6  27
TORSDOF 6
ENDMDL
MODEL 3
REMARK VINA RESULT:      -7.8      2.761     11.160
REMARK  Name = 
REMARK  10 active torsions:
REMARK  status: ('A' for Active; 'I' for Inactive)
REMARK    1  A    between atoms: C_1  and  O_2
REMARK    2  A    between atoms: O_2  and  C_3
REMARK    3  A    between atoms: C_3  and  C_4
REMARK    4  A    between atoms: C_3  and  C_5
REMARK    5  A    between atoms: C_3  and  C_6
REMARK    6  A    between atoms: N_8  and  C_9
REMARK    7  A    between atoms: C_12  and  C_13
REMARK    8  A    between atoms: C_14  and  C_15
REMARK    9  A    between atoms: C_20  and  N_21
REMARK   10  A    between atoms: C_22  and  C_24
REMARK                            x       y       z     vdW  Elec       q    Type
REMARK                         _______ _______ _______ _____ _____    ______ ____
ROOT
ATOM      1  C   UNL     1      -0.126  10.750  21.284  0.00  0.00    +0.000 A 
ATOM      2  C   UNL     1       0.208   9.743  22.210  0.00  0.00    +0.000 A 
ATOM      3  C   UNL     1       0.989   8.624  21.852  0.00  0.00    +0.000 A 
ATOM      4  C   UNL     1       1.425   8.442  20.530  0.00  0.00    +0.000 A 
ATOM      5  C   UNL     1       2.185   7.335  20.091  0.00  0.00    +0.000 A 
ATOM      6  C   UNL     1       2.534   7.234  18.745  0.00  0.00    +0.000 A 
ATOM      7  N   UNL     1       2.164   8.156  17.846  0.00  0.00    +0.000 NA
ATOM      8  C   UNL     1       1.462   9.222  18.274  0.00  0.00    +0.000 A 
ATOM      9  C   UNL     1       1.082   9.424  19.593  0.00  0.00    +0.000 A 
ATOM     10  C   UNL     1       0.373  10.572  19.985  0.00  0.00    +0.000 A 
ENDROOT
BRANCH   1  16
ATOM     11  C   UNL     1      -3.160  12.880  22.260  0.00  0.00    +0.000 A 
ATOM     12  C   UNL     1      -2.580  14.131  22.423  0.00  0.00    +0.000 A 
ATOM     13  C   UNL     1      -1.232  14.325  22.160  0.00  0.00    +0.000 A 
ATOM     14  C   UNL     1      -0.412  13.269  21.730  0.00  0.00    +0.000 A 
ATOM     15  C   UNL     1       0.997  13.663  21.366  0.00  0.00    +0.000 C 
ATOM     16  C   UNL     1      -0.942  11.949  21.653  0.00  0.00    +0.000 A 
ATOM     17  C   UNL     1      -2.330  11.795  21.933  0.00  0.00    +0.000 A 
BRANCH  11  20
ATOM     18  C   UNL     1      -5.461  12.637  21.341  0.00  0.00    +0.000 C 
ATOM     19  O   UNL     1      -5.185  12.779  20.151  0.00  0.00    +0.000 OA
ATOM     20  N   UNL     1      -4.554  12.677  22.394  0.00  0.00    +0.000 N 
ATOM     21  H   UNL     1      -4.898  12.349  23.293  0.00  0.00    +0.000 HD
BRANCH  18  22
ATOM     22  C   UNL     1      -6.927  12.343  21.769  0.00  0.00    +0.000 C 
ATOM     23  C   UNL     1      -7.501  11.214  20.894  0.00  0.00    +0.000 C 
ATOM     24  C   UNL     1      -7.765  13.604  21.525  0.00  0.00    +0.000 C 
BRANCH  22  26
ATOM     25  C   UNL     1      -7.615  13.084  23.961  0.00  0.00    +0.000 C 
ATOM     26  O   UNL     1      -7.045  12.047  23.168  0.00  0.00    +0.000 OA
ENDBRANCH  22  26
ENDBRANCH  18  22
ENDBRANCH  11  20
ENDBRANCH   1  16
BRANCH   6  27
ATOM     27  N   UNL     1       3.303   6.139  18.326  0.00  0.00    +0.000 N 
ATOM     28  C   UNL     1       2.764   4.973  17.811  0.00  0.00    +0.000 C 
ATOM     29  O   UNL     1       1.587   4.691  17.656  0.00  0.00    +0.000 OA
ATOM     30  H   UNL     1       4.305   6.219  18.389  0.00  0.00    +0.000 HD
BRANCH  28  31
ATOM     31  C   UNL     1       3.802   3.981  17.390  0.00  0.00    +0.000 C 
ATOM     32  C   UNL     1       4.682   4.275  16.190  0.00  0.00    +0.000 C 
ATOM     33  C   UNL     1       5.264   4.328  17.573  0.00  0.00    +0.000 C 
ENDBRANCH  28  31
ENDBRANCH   6  27
TORSDOF 6
ENDMDL
MODEL 4
REMARK VINA RESULT:      -7.8      2.621     11.155
REMARK  Name = 
REMARK  10 active torsions:
REMARK  status: ('A' for Active; 'I' for Inactive)
REMARK    1  A    between atoms: C_1  and  O_2
REMARK    2  A    between atoms: O_2  and  C_3
REMARK    3  A    between atoms: C_3  and  C_4
REMARK    4  A    between atoms: C_3  and  C_5
REMARK    5  A    between atoms: C_3  and  C_6
REMARK    6  A    between atoms: N_8  and  C_9
REMARK    7  A    between atoms: C_12  and  C_13
REMARK    8  A    between atoms: C_14  and  C_15
REMARK    9  A    between atoms: C_20  and  N_21
REMARK   10  A    between atoms: C_22  and  C_24
REMARK                            x       y       z     vdW  Elec       q    Type
REMARK                         _______ _______ _______ _____ _____    ______ ____
ROOT
ATOM      1  C   UNL     1       0.115  10.687  21.092  0.00  0.00    +0.000 A 
ATOM      2  C   UNL     1       0.398   9.585  21.921  0.00  0.00    +0.000 A 
ATOM      3  C   UNL     1       1.132   8.471  21.462  0.00  0.00    +0.000 A 
ATOM      4  C   UNL     1       1.569   8.394  20.130  0.00  0.00    +0.000 A 
ATOM      5  C   UNL     1       2.283   7.300  19.592  0.00  0.00    +0.000 A 
ATOM      6  C   UNL     1       2.635   7.308  18.243  0.00  0.00    +0.000 A 
ATOM      7  N   UNL     1       2.311   8.326  17.433  0.00  0.00    +0.000 NA
ATOM      8  C   UNL     1       1.654   9.377  17.957  0.00  0.00    +0.000 A 
ATOM      9  C   UNL     1       1.274   9.472  19.288  0.00  0.00    +0.000 A 
ATOM     10  C   UNL     1       0.614  10.609  19.783  0.00  0.00    +0.000 A 
ENDROOT
BRANCH   1  16
ATOM     11  C   UNL     1      -2.818  12.833  22.314  0.00  0.00    +0.000 A 
ATOM     12  C   UNL     1      -2.194  14.052  22.540  0.00  0.00    +0.000 A 
ATOM     13  C   UNL     1      -0.849  14.225  22.244  0.00  0.00    +0.000 A 
ATOM     14  C   UNL     1      -0.077  13.178  21.716  0.00  0.00    +0.000 A 
ATOM     15  C   UNL     1       1.331  13.554  21.331  0.00  0.00    +0.000 C 
ATOM     16  C   UNL     1      -0.651  11.882  21.569  0.00  0.00    +0.000 A 
ATOM     17  C   UNL     1      -2.033  11.750  21.887  0.00  0.00    +0.000 A 
BRANCH  11  20
ATOM     18  C   UNL     1      -5.166  12.846  21.488  0.00  0.00    +0.000 C 
ATOM     19  O   UNL     1      -4.937  13.187  20.329  0.00  0.00    +0.000 OA
ATOM     20  N   UNL     1      -4.212  12.662  22.483  0.00  0.00    +0.000 N 
ATOM     21  H   UNL     1      -4.530  12.191  23.327  0.00  0.00    +0.000 HD
BRANCH  18  22
ATOM     22  C   UNL     1      -6.624  12.534  21.934  0.00  0.00    +0.000 C 
ATOM     23  C   UNL     1      -7.593  13.501  21.230  0.00  0.00    +0.000 C 
ATOM     24  C   UNL     1      -6.729  12.774  23.445  0.00  0.00    +0.000 C 
BRANCH  22  26
ATOM     25  C   UNL     1      -7.468  10.861  20.412  0.00  0.00    +0.000 C 
ATOM     26  O   UNL     1      -6.987  11.163  21.718  0.00  0.00    +0.000 OA
ENDBRANCH  22  26
ENDBRANCH  18  22
ENDBRANCH  11  20
ENDBRANCH   1  16
BRANCH   6  27
ATOM     27  N   UNL     1       3.359   6.225  17.726  0.00  0.00    +0.000 N 
ATOM     28  C   UNL     1       4.689   6.298  17.353  0.00  0.00    +0.000 C 
ATOM     29  O   UNL     1       5.428   7.268  17.383  0.00  0.00    +0.000 OA
ATOM     30  H   UNL     1       2.883   5.342  17.641  0.00  0.00    +0.000 HD
BRANCH  28  31
ATOM     31  C   UNL     1       5.241   4.988  16.882  0.00  0.00    +0.000 C 
ATOM     32  C   UNL     1       5.404   4.729  15.397  0.00  0.00    +0.000 C 
ATOM     33  C   UNL     1       6.616   4.955  16.253  0.00  0.00    +0.000 C 
ENDBRANCH  28  31
ENDBRANCH   6  27
TORSDOF 6
ENDMDL
MODEL 5
REMARK VINA RESULT:      -7.7      3.086     10.995
REMARK  Name = 
REMARK  10 active torsions:
REMARK  status: ('A' for Active; 'I' for Inactive)
REMARK    1  A    between atoms: C_1  and  O_2
REMARK    2  A    between atoms: O_2  and  C_3
REMARK    3  A    between atoms: C_3  and  C_4
REMARK    4  A    between atoms: C_3  and  C_5
REMARK    5  A    between atoms: C_3  and  C_6
REMARK    6  A    between atoms: N_8  and  C_9
REMARK    7  A    between atoms: C_12  and  C_13
REMARK    8  A    between atoms: C_14  and  C_15
REMARK    9  A    between atoms: C_20  and  N_21
REMARK   10  A    between atoms: C_22  and  C_24
REMARK                            x       y       z     vdW  Elec       q    Type
REMARK                         _______ _______ _______ _____ _____    ______ ____
ROOT
ATOM      1  C   UNL     1       0.339  10.968  19.574  0.00  0.00    +0.000 A 
ATOM      2  C   UNL     1       1.060  10.886  18.367  0.00  0.00    +0.000 A 
ATOM      3  C   UNL     1       1.774   9.726  17.998  0.00  0.00    +0.000 A 
ATOM      4  C   UNL     1       1.837   8.615  18.853  0.00  0.00    +0.000 A 
ATOM      5  C   UNL     1       2.554   7.432  18.564  0.00  0.00    +0.000 A 
ATOM      6  C   UNL     1       2.582   6.401  19.502  0.00  0.00    +0.000 A 
ATOM      7  N   UNL     1       1.951   6.500  20.681  0.00  0.00    +0.000 NA
ATOM      8  C   UNL     1       1.248   7.617  20.940  0.00  0.00    +0.000 A 
ATOM      9  C   UNL     1       1.144   8.690  20.067  0.00  0.00    +0.000 A 
ATOM     10  C   UNL     1       0.372   9.821  20.382  0.00  0.00    +0.000 A 
ENDROOT
BRANCH   1  16
ATOM     11  C   UNL     1      -2.633  13.198  20.516  0.00  0.00    +0.000 A 
ATOM     12  C   UNL     1      -2.000  14.403  20.791  0.00  0.00    +0.000 A 
ATOM     13  C   UNL     1      -0.630  14.538  20.615  0.00  0.00    +0.000 A 
ATOM     14  C   UNL     1       0.158  13.467  20.164  0.00  0.00    +0.000 A 
ATOM     15  C   UNL     1       1.605  13.804  19.906  0.00  0.00    +0.000 C 
ATOM     16  C   UNL     1      -0.434  12.185  19.973  0.00  0.00    +0.000 A 
ATOM     17  C   UNL     1      -1.842  12.092  20.166  0.00  0.00    +0.000 A 
BRANCH  11  20
ATOM     18  C   UNL     1      -4.770  12.641  21.663  0.00  0.00    +0.000 C 
ATOM     19  O   UNL     1      -4.300  12.316  22.752  0.00  0.00    +0.000 OA
ATOM     20  N   UNL     1      -4.041  13.065  20.559  0.00  0.00    +0.000 N 
ATOM     21  H   UNL     1      -4.577  13.486  19.802  0.00  0.00    +0.000 HD
BRANCH  18  22
ATOM     22  C   UNL     1      -6.312  12.641  21.451  0.00  0.00    +0.000 C 
ATOM     23  C   UNL     1      -6.630  12.242  19.999  0.00  0.00    +0.000 C 
ATOM     24  C   UNL     1      -6.830  14.068  21.675  0.00  0.00    +0.000 C 
BRANCH  22  26
ATOM     25  C   UNL     1      -7.820  12.506  23.331  0.00  0.00    +0.000 C 
ATOM     26  O   UNL     1      -7.000  11.810  22.397  0.00  0.00    +0.000 OA
ENDBRANCH  22  26
ENDBRANCH  18  22
ENDBRANCH  11  20
ENDBRANCH   1  16
BRANCH   6  27
ATOM     27  N   UNL     1       3.282   5.226  19.196  0.00  0.00    +0.000 N 
ATOM     28  C   UNL     1       2.803   4.247  18.342  0.00  0.00    +0.000 C 
ATOM     29  O   UNL     1       1.737   4.219  17.751  0.00  0.00    +0.000 OA
ATOM     30  H   UNL     1       4.192   5.102  19.608  0.00  0.00    +0.000 HD
BRANCH  28  31
ATOM     31  C   UNL     1       3.767   3.120  18.142  0.00  0.00    +0.000 C 
ATOM     32  C   UNL     1       4.084   2.185  19.294  0.00  0.00    +0.000 C 
ATOM     33  C   UNL     1       3.245   1.699  18.148  0.00  0.00    +0.000 C 
ENDBRANCH  28  31
ENDBRANCH   6  27
TORSDOF 6
ENDMDL
MODEL 6
REMARK VINA RESULT:      -7.7      3.117     10.872
REMARK  Name = 
REMARK  10 active torsions:
REMARK  status: ('A' for Active; 'I' for Inactive)
REMARK    1  A    between atoms: C_1  and  O_2
REMARK    2  A    between atoms: O_2  and  C_3
REMARK    3  A    between atoms: C_3  and  C_4
REMARK    4  A    between atoms: C_3  and  C_5
REMARK    5  A    between atoms: C_3  and  C_6
REMARK    6  A    between atoms: N_8  and  C_9
REMARK    7  A    between atoms: C_12  and  C_13
REMARK    8  A    between atoms: C_14  and  C_15
REMARK    9  A    between atoms: C_20  and  N_21
REMARK   10  A    between atoms: C_22  and  C_24
REMARK                            x       y       z     vdW  Elec       q    Type
REMARK                         _______ _______ _______ _____ _____    ______ ____
ROOT
ATOM      1  C   UNL     1       0.275  10.868  19.639  0.00  0.00    +0.000 A 
ATOM      2  C   UNL     1       0.996  10.813  18.430  0.00  0.00    +0.000 A 
ATOM      3  C   UNL     1       1.734   9.672  18.049  0.00  0.00    +0.000 A 
ATOM      4  C   UNL     1       1.822   8.554  18.894  0.00  0.00    +0.000 A 
ATOM      5  C   UNL     1       2.564   7.390  18.593  0.00  0.00    +0.000 A 
ATOM      6  C   UNL     1       2.615   6.352  19.521  0.00  0.00    +0.000 A 
ATOM      7  N   UNL     1       1.983   6.425  20.701  0.00  0.00    +0.000 NA
ATOM      8  C   UNL     1       1.257   7.525  20.972  0.00  0.00    +0.000 A 
ATOM      9  C   UNL     1       1.129   8.603  20.109  0.00  0.00    +0.000 A 
ATOM     10  C   UNL     1       0.332   9.714  20.436  0.00  0.00    +0.000 A 
ENDROOT
BRANCH   1  16
ATOM     11  C   UNL     1      -2.746  13.156  20.218  0.00  0.00    +0.000 A 
ATOM     12  C   UNL     1      -2.154  14.243  20.847  0.00  0.00    +0.000 A 
ATOM     13  C   UNL     1      -0.780  14.290  21.034  0.00  0.00    +0.000 A 
ATOM     14  C   UNL     1       0.053  13.244  20.603  0.00  0.00    +0.000 A 
ATOM     15  C   UNL     1       1.530  13.497  20.764  0.00  0.00    +0.000 C 
ATOM     16  C   UNL     1      -0.524  12.064  20.050  0.00  0.00    +0.000 A 
ATOM     17  C   UNL     1      -1.938  12.059  19.878  0.00  0.00    +0.000 A 
BRANCH  11  20
ATOM     18  C   UNL     1      -5.139  12.733  20.756  0.00  0.00    +0.000 C 
ATOM     19  O   UNL     1      -4.987  12.333  21.908  0.00  0.00    +0.000 OA
ATOM     20  N   UNL     1      -4.123  13.136  19.897  0.00  0.00    +0.000 N 
ATOM     21  H   UNL     1      -4.417  13.625  19.054  0.00  0.00    +0.000 HD
BRANCH  18  22
ATOM     22  C   UNL     1      -6.571  12.865  20.161  0.00  0.00    +0.000 C 
ATOM     23  C   UNL     1      -7.090  14.297  20.387  0.00  0.00    +0.000 C 
ATOM     24  C   UNL     1      -7.498  11.901  20.913  0.00  0.00    +0.000 C 
BRANCH  22  26
ATOM     25  C   UNL     1      -6.823  11.095  18.540  0.00  0.00    +0.000 C 
ATOM     26  O   UNL     1      -6.632  12.486  18.779  0.00  0.00    +0.000 OA
ENDBRANCH  22  26
ENDBRANCH  18  22
ENDBRANCH  11  20
ENDBRANCH   1  16
BRANCH   6  27
ATOM     27  N   UNL     1       3.340   5.195  19.203  0.00  0.00    +0.000 N 
ATOM     28  C   UNL     1       2.849   4.176  18.405  0.00  0.00    +0.000 C 
ATOM     29  O   UNL     1       1.752   4.093  17.879  0.00  0.00    +0.000 OA
ATOM     30  H   UNL     1       4.276   5.114  19.563  0.00  0.00    +0.000 HD
BRANCH  28  31
ATOM     31  C   UNL     1       3.841   3.079  18.175  0.00  0.00    +0.000 C 
ATOM     32  C   UNL     1       4.252   2.182  19.327  0.00  0.00    +0.000 C 
ATOM     33  C   UNL     1       3.373   1.642  18.237  0.00  0.00    +0.000 C 
ENDBRANCH  28  31
ENDBRANCH   6  27
TORSDOF 6
ENDMDL
MODEL 7
REMARK VINA RESULT:      -7.7      2.349     11.090
REMARK  Name = 
REMARK  10 active torsions:
REMARK  status: ('A' for Active; 'I' for Inactive)
REMARK    1  A    between atoms: C_1  and  O_2
REMARK    2  A    between atoms: O_2  and  C_3
REMARK    3  A    between atoms: C_3  and  C_4
REMARK    4  A    between atoms: C_3  and  C_5
REMARK    5  A    between atoms: C_3  and  C_6
REMARK    6  A    between atoms: N_8  and  C_9
REMARK    7  A    between atoms: C_12  and  C_13
REMARK    8  A    between atoms: C_14  and  C_15
REMARK    9  A    between atoms: C_20  and  N_21
REMARK   10  A    between atoms: C_22  and  C_24
REMARK                            x       y       z     vdW  Elec       q    Type
REMARK                         _______ _______ _______ _____ _____    ______ ____
ROOT
ATOM      1  C   UNL     1       0.542  11.156  19.960  0.00  0.00    +0.000 A 
ATOM      2  C   UNL     1       0.958  11.329  18.625  0.00  0.00    +0.000 A 
ATOM      3  C   UNL     1       1.559  10.288  17.887  0.00  0.00    +0.000 A 
ATOM      4  C   UNL     1       1.818   9.040  18.477  0.00  0.00    +0.000 A 
ATOM      5  C   UNL     1       2.441   7.962  17.811  0.00  0.00    +0.000 A 
ATOM      6  C   UNL     1       2.685   6.777  18.504  0.00  0.00    +0.000 A 
ATOM      7  N   UNL     1       2.350   6.629  19.793  0.00  0.00    +0.000 NA
ATOM      8  C   UNL     1       1.733   7.650  20.416  0.00  0.00    +0.000 A 
ATOM      9  C   UNL     1       1.430   8.861  19.810  0.00  0.00    +0.000 A 
ATOM     10  C   UNL     1       0.758   9.881  20.505  0.00  0.00    +0.000 A 
ENDROOT
BRANCH   1  16
ATOM     11  C   UNL     1      -2.201  13.221  21.666  0.00  0.00    +0.000 A 
ATOM     12  C   UNL     1      -1.455  14.216  22.283  0.00  0.00    +0.000 A 
ATOM     13  C   UNL     1      -0.080  14.280  22.109  0.00  0.00    +0.000 A 
ATOM     14  C   UNL     1       0.601  13.344  21.314  0.00  0.00    +0.000 A 
ATOM     15  C   UNL     1       2.071  13.619  21.122  0.00  0.00    +0.000 C 
ATOM     16  C   UNL     1      -0.110  12.246  20.751  0.00  0.00    +0.000 A 
ATOM     17  C   UNL     1      -1.520  12.218  20.956  0.00  0.00    +0.000 A 
BRANCH  11  20
ATOM     18  C   UNL     1      -4.371  12.661  22.749  0.00  0.00    +0.000 C 
ATOM     19  O   UNL     1      -3.924  12.116  23.756  0.00  0.00    +0.000 OA
ATOM     20  N   UNL     1      -3.614  13.204  21.716  0.00  0.00    +0.000 N 
ATOM     21  H   UNL     1      -4.116  13.791  21.054  0.00  0.00    +0.000 HD
BRANCH  18  22
ATOM     22  C   UNL     1      -5.908  12.830  22.574  0.00  0.00    +0.000 C 
ATOM     23  C   UNL     1      -6.204  14.194  21.926  0.00  0.00    +0.000 C 
ATOM     24  C   UNL     1      -6.557  12.814  23.963  0.00  0.00    +0.000 C 
BRANCH  22  26
ATOM     25  C   UNL     1      -6.934  12.077  20.523  0.00  0.00    +0.000 C 
ATOM     26  O   UNL     1      -6.502  11.749  21.840  0.00  0.00    +0.000 OA
ENDBRANCH  22  26
ENDBRANCH  18  22
ENDBRANCH  11  20
ENDBRANCH   1  16
BRANCH   6  27
ATOM     27  N   UNL     1       3.289   5.709  17.826  0.00  0.00    +0.000 N 
ATOM     28  C   UNL     1       4.624   5.686  17.462  0.00  0.00    +0.000 C 
ATOM     29  O   UNL     1       5.468   6.549  17.636  0.00  0.00    +0.000 OA
ATOM     30  H   UNL     1       2.718   4.909  17.610  0.00  0.00    +0.000 HD
BRANCH  28  31
ATOM     31  C   UNL     1       5.030   4.408  16.797  0.00  0.00    +0.000 C 
ATOM     32  C   UNL     1       5.281   4.383  15.301  0.00  0.00    +0.000 C 
ATOM     33  C   UNL     1       6.436   4.278  16.254  0.00  0.00    +0.000 C 
ENDBRANCH  28  31
ENDBRANCH   6  27
TORSDOF 6
ENDMDL
MODEL 8
REMARK VINA RESULT:      -7.7      1.035      1.084
REMARK  Name = 
REMARK  10 active torsions:
REMARK  status: ('A' for Active; 'I' for Inactive)
REMARK    1  A    between atoms: C_1  and  O_2
REMARK    2  A    between atoms: O_2  and  C_3
REMARK    3  A    between atoms: C_3  and  C_4
REMARK    4  A    between atoms: C_3  and  C_5
REMARK    5  A    between atoms: C_3  and  C_6
REMARK    6  A    between atoms: N_8  and  C_9
REMARK    7  A    between atoms: C_12  and  C_13
REMARK    8  A    between atoms: C_14  and  C_15
REMARK    9  A    between atoms: C_20  and  N_21
REMARK   10  A    between atoms: C_22  and  C_24
REMARK                            x       y       z     vdW  Elec       q    Type
REMARK                         _______ _______ _______ _____ _____    ______ ____
ROOT
ATOM      1  C   UNL     1       1.751   7.482  20.056  0.00  0.00    +0.000 A 
ATOM      2  C   UNL     1       1.508   8.436  19.049  0.00  0.00    +0.000 A 
ATOM      3  C   UNL     1       0.914   9.685  19.327  0.00  0.00    +0.000 A 
ATOM      4  C   UNL     1       0.488  10.008  20.625  0.00  0.00    +0.000 A 
ATOM      5  C   UNL     1      -0.139  11.226  20.973  0.00  0.00    +0.000 A 
ATOM      6  C   UNL     1      -0.556  11.429  22.287  0.00  0.00    +0.000 A 
ATOM      7  N   UNL     1      -0.386  10.499  23.237  0.00  0.00    +0.000 NA
ATOM      8  C   UNL     1       0.235   9.352  22.906  0.00  0.00    +0.000 A 
ATOM      9  C   UNL     1       0.703   9.061  21.633  0.00  0.00    +0.000 A 
ATOM     10  C   UNL     1       1.370   7.856  21.353  0.00  0.00    +0.000 A 
ENDROOT
BRANCH   1  16
ATOM     11  C   UNL     1       4.323   4.910  18.844  0.00  0.00    +0.000 A 
ATOM     12  C   UNL     1       3.741   3.720  19.258  0.00  0.00    +0.000 A 
ATOM     13  C   UNL     1       2.495   3.716  19.868  0.00  0.00    +0.000 A 
ATOM     14  C   UNL     1       1.787   4.908  20.091  0.00  0.00    +0.000 A 
ATOM     15  C   UNL     1       0.397   4.730  20.648  0.00  0.00    +0.000 C 
ATOM     16  C   UNL     1       2.393   6.159  19.779  0.00  0.00    +0.000 A 
ATOM     17  C   UNL     1       3.674   6.116  19.156  0.00  0.00    +0.000 A 
BRANCH  11  20
ATOM     18  C   UNL     1       5.672   5.465  16.827  0.00  0.00    +0.000 C 
ATOM     19  O   UNL     1       4.776   5.973  16.156  0.00  0.00    +0.000 OA
ATOM     20  N   UNL     1       5.529   4.937  18.105  0.00  0.00    +0.000 N 
ATOM     21  H   UNL     1       6.392   4.735  18.605  0.00  0.00    +0.000 HD
BRANCH  18  22
ATOM     22  C   UNL     1       7.125   5.414  16.272  0.00  0.00    +0.000 C 
ATOM     23  C   UNL     1       7.112   4.813  14.855  0.00  0.00    +0.000 C 
ATOM     24  C   UNL     1       7.954   4.489  17.172  0.00  0.00    +0.000 C 
BRANCH  22  26
ATOM     25  C   UNL     1       7.546   7.458  17.484  0.00  0.00    +0.000 C 
ATOM     26  O   UNL     1       7.773   6.694  16.304  0.00  0.00    +0.000 OA
ENDBRANCH  22  26
ENDBRANCH  18  22
ENDBRANCH  11  20
ENDBRANCH   1  16
BRANCH   6  27
ATOM     27  N   UNL     1      -1.161  12.648  22.624  0.00  0.00    +0.000 N 
ATOM     28  C   UNL     1      -0.494  13.861  22.629  0.00  0.00    +0.000 C 
ATOM     29  O   UNL     1       0.679  14.077  22.378  0.00  0.00    +0.000 OA
ATOM     30  H   UNL     1      -2.141  12.637  22.855  0.00  0.00    +0.000 HD
BRANCH  28  31
ATOM     31  C   UNL     1      -1.381  15.018  22.972  0.00  0.00    +0.000 C 
ATOM     32  C   UNL     1      -1.442  15.523  24.401  0.00  0.00    +0.000 C 
ATOM     33  C   UNL     1      -0.748  16.340  23.350  0.00  0.00    +0.000 C 
ENDBRANCH  28  31
ENDBRANCH   6  27
TORSDOF 6
ENDMDL
MODEL 9
REMARK VINA RESULT:      -7.6      3.142     11.012
REMARK  Name = 
REMARK  10 active torsions:
REMARK  status: ('A' for Active; 'I' for Inactive)
REMARK    1  A    between atoms: C_1  and  O_2
REMARK    2  A    between atoms: O_2  and  C_3
REMARK    3  A    between atoms: C_3  and  C_4
REMARK    4  A    between atoms: C_3  and  C_5
REMARK    5  A    between atoms: C_3  and  C_6
REMARK    6  A    between atoms: N_8  and  C_9
REMARK    7  A    between atoms: C_12  and  C_13
REMARK    8  A    between atoms: C_14  and  C_15
REMARK    9  A    between atoms: C_20  and  N_21
REMARK   10  A    between atoms: C_22  and  C_24
REMARK                            x       y       z     vdW  Elec       q    Type
REMARK                         _______ _______ _______ _____ _____    ______ ____
ROOT
ATOM      1  C   UNL     1       0.095  10.615  20.405  0.00  0.00    +0.000 A 
ATOM      2  C   UNL     1       0.134   9.717  21.489  0.00  0.00    +0.000 A 
ATOM      3  C   UNL     1       0.844   8.499  21.427  0.00  0.00    +0.000 A 
ATOM      4  C   UNL     1       1.502   8.106  20.251  0.00  0.00    +0.000 A 
ATOM      5  C   UNL     1       2.207   6.890  20.106  0.00  0.00    +0.000 A 
ATOM      6  C   UNL     1       2.793   6.580  18.879  0.00  0.00    +0.000 A 
ATOM      7  N   UNL     1       2.704   7.402  17.824  0.00  0.00    +0.000 NA
ATOM      8  C   UNL     1       2.053   8.571  17.975  0.00  0.00    +0.000 A 
ATOM      9  C   UNL     1       1.452   8.978  19.158  0.00  0.00    +0.000 A 
ATOM     10  C   UNL     1       0.810  10.224  19.263  0.00  0.00    +0.000 A 
ENDROOT
BRANCH   1  16
ATOM     11  C   UNL     1      -2.804  13.121  20.284  0.00  0.00    +0.000 A 
ATOM     12  C   UNL     1      -2.158  14.308  20.604  0.00  0.00    +0.000 A 
ATOM     13  C   UNL     1      -0.784  14.336  20.795  0.00  0.00    +0.000 A 
ATOM     14  C   UNL     1      -0.006  13.172  20.681  0.00  0.00    +0.000 A 
ATOM     15  C   UNL     1       1.482  13.386  20.794  0.00  0.00    +0.000 C 
ATOM     16  C   UNL     1      -0.641  11.916  20.460  0.00  0.00    +0.000 A 
ATOM     17  C   UNL     1      -2.053  11.934  20.271  0.00  0.00    +0.000 A 
BRANCH  11  20
ATOM     18  C   UNL     1      -5.193  12.661  20.808  0.00  0.00    +0.000 C 
ATOM     19  O   UNL     1      -5.041  12.258  21.960  0.00  0.00    +0.000 OA
ATOM     20  N   UNL     1      -4.179  13.081  19.956  0.00  0.00    +0.000 N 
ATOM     21  H   UNL     1      -4.476  13.569  19.113  0.00  0.00    +0.000 HD
BRANCH  18  22
ATOM     22  C   UNL     1      -6.624  12.774  20.207  0.00  0.00    +0.000 C 
ATOM     23  C   UNL     1      -7.335  11.413  20.315  0.00  0.00    +0.000 C 
ATOM     24  C   UNL     1      -6.496  13.125  18.719  0.00  0.00    +0.000 C 
BRANCH  22  26
ATOM     25  C   UNL     1      -6.701  15.062  20.971  0.00  0.00    +0.000 C 
ATOM     26  O   UNL     1      -7.393  13.828  20.805  0.00  0.00    +0.000 OA
ENDBRANCH  22  26
ENDBRANCH  18  22
ENDBRANCH  11  20
ENDBRANCH   1  16
BRANCH   6  27
ATOM     27  N   UNL     1       3.505   5.379  18.754  0.00  0.00    +0.000 N 
ATOM     28  C   UNL     1       2.911   4.160  18.480  0.00  0.00    +0.000 C 
ATOM     29  O   UNL     1       1.726   3.916  18.326  0.00  0.00    +0.000 OA
ATOM     30  H   UNL     1       4.506   5.416  18.852  0.00  0.00    +0.000 HD
BRANCH  28  31
ATOM     31  C   UNL     1       3.899   3.043  18.343  0.00  0.00    +0.000 C 
ATOM     32  C   UNL     1       4.189   2.145  19.531  0.00  0.00    +0.000 C 
ATOM     33  C   UNL     1       3.399   1.615  18.370  0.00  0.00    +0.000 C 
ENDBRANCH  28  31
ENDBRANCH   6  27
TORSDOF 6
ENDMDL
