MODEL 1
REMARK VINA RESULT:      -8.5      0.000      0.000
REMARK  Name = 
REMARK  6 active torsions:
REMARK  status: ('A' for Active; 'I' for Inactive)
REMARK    1  A    between atoms: C_1  and  O_2
REMARK    2  A    between atoms: O_2  and  C_3
REMARK    3  A    between atoms: C_7  and  C_8
REMARK    4  A    between atoms: C_8  and  C_9
REMARK    5  A    between atoms: C_15  and  C_16
REMARK    6  A    between atoms: N_20  and  C_21
REMARK                            x       y       z     vdW  Elec       q    Type
REMARK                         _______ _______ _______ _____ _____    ______ ____
ROOT
ATOM      1  C   UNL     1       2.978   6.555  18.105  0.00  0.00    +0.000 C 
ATOM      2  O   UNL     1       2.205   6.131  18.956  0.00  0.00    +0.000 OA
ATOM      3  N   UNL     1       3.002   7.850  17.623  0.00  0.00    +0.000 N 
ATOM      4  C   UNL     1       2.136   8.813  18.080  0.00  0.00    +0.000 A 
ATOM      5  N   UNL     1       1.910   9.989  17.537  0.00  0.00    +0.000 NA
ATOM      6  N   UNL     1       0.931  10.604  18.302  0.00  0.00    +0.000 NA
ATOM      7  C   UNL     1       0.650   9.770  19.279  0.00  0.00    +0.000 A 
ATOM      8  O   UNL     1       1.393   8.619  19.216  0.00  0.00    +0.000 OA
ATOM      9  H   UNL     1       3.526   8.089  16.794  0.00  0.00    +0.000 HD
ENDROOT
BRANCH   7  10
ATOM     10  C   UNL     1      -0.256   9.922  20.443  0.00  0.00    +0.000 C 
ATOM     11  C   UNL     1       0.467   9.647  21.749  0.00  0.00    +0.000 C 
ATOM     12  C   UNL     1      -0.352  10.397  22.762  0.00  0.00    +0.000 C 
ATOM     13  O   UNL     1      -0.307  10.139  23.955  0.00  0.00    +0.000 OA
ATOM     14  N   UNL     1      -1.077  11.395  22.087  0.00  0.00    +0.000 N 
ATOM     15  C   UNL     1      -0.820  11.325  20.658  0.00  0.00    +0.000 C 
BRANCH  14  16
ATOM     16  C   UNL     1      -1.830  12.434  22.710  0.00  0.00    +0.000 A 
ATOM     17  C   UNL     1      -3.232  12.379  22.778  0.00  0.00    +0.000 A 
ATOM     18  C   UNL     1      -3.984  13.384  23.400  0.00  0.00    +0.000 A 
ATOM     19  C   UNL     1      -3.341  14.473  23.966  0.00  0.00    +0.000 A 
ATOM     20 CL   UNL     1      -4.260  15.707  24.733  0.00  0.00    +0.000 Cl
ATOM     21  C   UNL     1      -1.954  14.561  23.914  0.00  0.00    +0.000 A 
ATOM     22  C   UNL     1      -1.205  13.544  23.297  0.00  0.00    +0.000 A 
ENDBRANCH  14  16
ENDBRANCH   7  10
BRANCH   1  23
ATOM     23  C   UNL     1       4.020   5.633  17.484  0.00  0.00    +0.000 C 
BRANCH  23  28
ATOM     24  C   UNL     1       7.507   7.193  17.754  0.00  0.00    +0.000 A 
ATOM     25  C   UNL     1       8.056   6.457  18.802  0.00  0.00    +0.000 A 
ATOM     26  C   UNL     1       7.300   5.468  19.431  0.00  0.00    +0.000 A 
ATOM     27  C   UNL     1       5.998   5.199  19.011  0.00  0.00    +0.000 A 
ATOM     28  C   UNL     1       5.443   5.892  17.927  0.00  0.00    +0.000 A 
ATOM     29  C   UNL     1       6.212   6.896  17.310  0.00  0.00    +0.000 A 
BRANCH  24  31
ATOM     30  C   UNL     1       8.321   9.417  17.808  0.00  0.00    +0.000 C 
ATOM     31  O   UNL     1       8.146   8.201  17.082  0.00  0.00    +0.000 OA
ENDBRANCH  24  31
ENDBRANCH  23  28
ENDBRANCH   1  23
TORSDOF 5
ENDMDL
MODEL 2
REMARK VINA RESULT:      -8.5      2.074      2.466
REMARK  Name = 
REMARK  6 active torsions:
REMARK  status: ('A' for Active; 'I' for Inactive)
REMARK    1  A    between atoms: C_1  and  O_2
REMARK    2  A    between atoms: O_2  and  C_3
REMARK    3  A    between atoms: C_7  and  C_8
REMARK    4  A    between atoms: C_8  and  C_9
REMARK    5  A    between atoms: C_15  and  C_16
REMARK    6  A    between atoms: N_20  and  C_21
REMARK                            x       y       z     vdW  Elec       q    Type
REMARK                         _______ _______ _______ _____ _____    ______ ____
ROOT
ATOM      1  C   UNL     1       2.558   5.631  19.080  0.00  0.00    +0.000 C 
ATOM      2  O   UNL     1       1.996   5.737  20.165  0.00  0.00    +0.000 OA
ATOM      3  N   UNL     1       2.685   6.642  18.147  0.00  0.00    +0.000 N 
ATOM      4  C   UNL     1       2.185   7.902  18.366  0.00  0.00    +0.000 A 
ATOM      5  N   UNL     1       2.039   8.856  17.472  0.00  0.00    +0.000 NA
ATOM      6  N   UNL     1       1.456   9.931  18.124  0.00  0.00    +0.000 NA
ATOM      7  C   UNL     1       1.316   9.568  19.380  0.00  0.00    +0.000 A 
ATOM      8  O   UNL     1       1.779   8.298  19.614  0.00  0.00    +0.000 OA
ATOM      9  H   UNL     1       2.984   6.446  17.203  0.00  0.00    +0.000 HD
ENDROOT
BRANCH   7  10
ATOM     10  C   UNL     1       0.829  10.333  20.554  0.00  0.00    +0.000 C 
ATOM     11  C   UNL     1       1.319  11.769  20.525  0.00  0.00    +0.000 C 
ATOM     12  C   UNL     1       0.308  12.496  21.364  0.00  0.00    +0.000 C 
ATOM     13  O   UNL     1       0.542  13.584  21.869  0.00  0.00    +0.000 OA
ATOM     14  N   UNL     1      -0.870  11.730  21.394  0.00  0.00    +0.000 N 
ATOM     15  C   UNL     1      -0.686  10.494  20.650  0.00  0.00    +0.000 C 
BRANCH  14  16
ATOM     16  C   UNL     1      -2.121  12.157  21.930  0.00  0.00    +0.000 A 
ATOM     17  C   UNL     1      -2.427  11.988  23.291  0.00  0.00    +0.000 A 
ATOM     18  C   UNL     1      -3.644  12.416  23.836  0.00  0.00    +0.000 A 
ATOM     19  C   UNL     1      -4.588  13.022  23.020  0.00  0.00    +0.000 A 
ATOM     20 CL   UNL     1      -6.082  13.551  23.686  0.00  0.00    +0.000 Cl
ATOM     21  C   UNL     1      -4.318  13.202  21.668  0.00  0.00    +0.000 A 
ATOM     22  C   UNL     1      -3.090  12.779  21.130  0.00  0.00    +0.000 A 
ENDBRANCH  14  16
ENDBRANCH   7  10
BRANCH   1  23
ATOM     23  C   UNL     1       3.183   4.306  18.664  0.00  0.00    +0.000 C 
BRANCH  23  28
ATOM     24  C   UNL     1       6.151   4.227  16.245  0.00  0.00    +0.000 A 
ATOM     25  C   UNL     1       7.182   4.693  17.060  0.00  0.00    +0.000 A 
ATOM     26  C   UNL     1       6.919   5.045  18.383  0.00  0.00    +0.000 A 
ATOM     27  C   UNL     1       5.631   4.924  18.905  0.00  0.00    +0.000 A 
ATOM     28  C   UNL     1       4.591   4.410  18.119  0.00  0.00    +0.000 A 
ATOM     29  C   UNL     1       4.867   4.071  16.782  0.00  0.00    +0.000 A 
BRANCH  24  31
ATOM     30  C   UNL     1       7.080   4.757  14.131  0.00  0.00    +0.000 C 
ATOM     31  O   UNL     1       6.289   3.877  14.928  0.00  0.00    +0.000 OA
ENDBRANCH  24  31
ENDBRANCH  23  28
ENDBRANCH   1  23
TORSDOF 5
ENDMDL
MODEL 3
REMARK VINA RESULT:      -8.5      4.886     10.723
REMARK  Name = 
REMARK  6 active torsions:
REMARK  status: ('A' for Active; 'I' for Inactive)
REMARK    1  A    between atoms: C_1  and  O_2
REMARK    2  A    between atoms: O_2  and  C_3
REMARK    3  A    between atoms: C_7  and  C_8
REMARK    4  A    between atoms: C_8  and  C_9
REMARK    5  A    between atoms: C_15  and  C_16
REMARK    6  A    between atoms: N_20  and  C_21
REMARK                            x       y       z     vdW  Elec       q    Type
REMARK                         _______ _______ _______ _____ _____    ______ ____
ROOT
ATOM      1  C   UNL     1      -3.362  10.845  17.397  0.00  0.00    +0.000 C 
ATOM      2  O   UNL     1      -3.044   9.729  17.792  0.00  0.00    +0.000 OA
ATOM      3  N   UNL     1      -2.576  11.978  17.492  0.00  0.00    +0.000 N 
ATOM      4  C   UNL     1      -1.321  11.949  18.047  0.00  0.00    +0.000 A 
ATOM      5  N   UNL     1      -0.594  12.986  18.401  0.00  0.00    +0.000 NA
ATOM      6  N   UNL     1       0.573  12.487  18.959  0.00  0.00    +0.000 NA
ATOM      7  C   UNL     1       0.490  11.178  18.876  0.00  0.00    +0.000 A 
ATOM      8  O   UNL     1      -0.677  10.762  18.287  0.00  0.00    +0.000 OA
ATOM      9  H   UNL     1      -2.962  12.897  17.327  0.00  0.00    +0.000 HD
ENDROOT
BRANCH   7  10
ATOM     10  C   UNL     1       1.473  10.126  19.235  0.00  0.00    +0.000 C 
ATOM     11  C   UNL     1       0.879   9.117  20.201  0.00  0.00    +0.000 C 
ATOM     12  C   UNL     1       1.718   7.891  19.980  0.00  0.00    +0.000 C 
ATOM     13  O   UNL     1       1.787   6.992  20.804  0.00  0.00    +0.000 OA
ATOM     14  N   UNL     1       2.311   7.990  18.709  0.00  0.00    +0.000 N 
ATOM     15  C   UNL     1       1.947   9.249  18.079  0.00  0.00    +0.000 C 
BRANCH  14  16
ATOM     16  C   UNL     1       3.032   6.950  18.051  0.00  0.00    +0.000 A 
ATOM     17  C   UNL     1       4.172   7.229  17.279  0.00  0.00    +0.000 A 
ATOM     18  C   UNL     1       4.900   6.217  16.638  0.00  0.00    +0.000 A 
ATOM     19  C   UNL     1       4.493   4.897  16.757  0.00  0.00    +0.000 A 
ATOM     20 CL   UNL     1       5.384   3.653  15.975  0.00  0.00    +0.000 Cl
ATOM     21  C   UNL     1       3.367   4.586  17.510  0.00  0.00    +0.000 A 
ATOM     22  C   UNL     1       2.647   5.605  18.159  0.00  0.00    +0.000 A 
ENDBRANCH  14  16
ENDBRANCH   7  10
BRANCH   1  23
ATOM     23  C   UNL     1      -4.719  11.072  16.743  0.00  0.00    +0.000 C 
BRANCH  23  28
ATOM     24  C   UNL     1      -6.737  11.965  19.872  0.00  0.00    +0.000 A 
ATOM     25  C   UNL     1      -7.636  12.900  19.361  0.00  0.00    +0.000 A 
ATOM     26  C   UNL     1      -7.584  13.253  18.014  0.00  0.00    +0.000 A 
ATOM     27  C   UNL     1      -6.644  12.668  17.165  0.00  0.00    +0.000 A 
ATOM     28  C   UNL     1      -5.765  11.689  17.646  0.00  0.00    +0.000 A 
ATOM     29  C   UNL     1      -5.819  11.352  19.010  0.00  0.00    +0.000 A 
BRANCH  24  31
ATOM     30  C   UNL     1      -7.917  11.589  21.893  0.00  0.00    +0.000 C 
ATOM     31  O   UNL     1      -6.681  11.564  21.181  0.00  0.00    +0.000 OA
ENDBRANCH  24  31
ENDBRANCH  23  28
ENDBRANCH   1  23
TORSDOF 5
ENDMDL
MODEL 4
REMARK VINA RESULT:      -8.3      4.808     10.590
REMARK  Name = 
REMARK  6 active torsions:
REMARK  status: ('A' for Active; 'I' for Inactive)
REMARK    1  A    between atoms: C_1  and  O_2
REMARK    2  A    between atoms: O_2  and  C_3
REMARK    3  A    between atoms: C_7  and  C_8
REMARK    4  A    between atoms: C_8  and  C_9
REMARK    5  A    between atoms: C_15  and  C_16
REMARK    6  A    between atoms: N_20  and  C_21
REMARK                            x       y       z     vdW  Elec       q    Type
REMARK                         _______ _______ _______ _____ _____    ______ ____
ROOT
ATOM      1  C   UNL     1      -3.394  10.998  17.433  0.00  0.00    +0.000 C 
ATOM      2  O   UNL     1      -3.104   9.893  17.877  0.00  0.00    +0.000 OA
ATOM      3  N   UNL     1      -2.573  12.108  17.461  0.00  0.00    +0.000 N 
ATOM      4  C   UNL     1      -1.310  12.067  17.998  0.00  0.00    +0.000 A 
ATOM      5  N   UNL     1      -0.546  13.097  18.291  0.00  0.00    +0.000 NA
ATOM      6  N   UNL     1       0.615  12.589  18.854  0.00  0.00    +0.000 NA
ATOM      7  C   UNL     1       0.491  11.280  18.835  0.00  0.00    +0.000 A 
ATOM      8  O   UNL     1      -0.699  10.874  18.285  0.00  0.00    +0.000 OA
ATOM      9  H   UNL     1      -2.934  13.030  17.258  0.00  0.00    +0.000 HD
ENDROOT
BRANCH   7  10
ATOM     10  C   UNL     1       1.446  10.216  19.229  0.00  0.00    +0.000 C 
ATOM     11  C   UNL     1       0.814   9.232  20.196  0.00  0.00    +0.000 C 
ATOM     12  C   UNL     1       1.636   7.988  20.010  0.00  0.00    +0.000 C 
ATOM     13  O   UNL     1       1.672   7.100  20.847  0.00  0.00    +0.000 OA
ATOM     14  N   UNL     1       2.258   8.058  18.750  0.00  0.00    +0.000 N 
ATOM     15  C   UNL     1       1.929   9.315  18.096  0.00  0.00    +0.000 C 
BRANCH  14  16
ATOM     16  C   UNL     1       2.974   6.997  18.122  0.00  0.00    +0.000 A 
ATOM     17  C   UNL     1       2.528   5.668  18.206  0.00  0.00    +0.000 A 
ATOM     18  C   UNL     1       3.212   4.616  17.582  0.00  0.00    +0.000 A 
ATOM     19  C   UNL     1       4.366   4.878  16.860  0.00  0.00    +0.000 A 
ATOM     20 CL   UNL     1       5.206   3.591  16.090  0.00  0.00    +0.000 Cl
ATOM     21  C   UNL     1       4.836   6.182  16.759  0.00  0.00    +0.000 A 
ATOM     22  C   UNL     1       4.140   7.235  17.380  0.00  0.00    +0.000 A 
ENDBRANCH  14  16
ENDBRANCH   7  10
BRANCH   1  23
ATOM     23  C   UNL     1      -4.754  11.236  16.790  0.00  0.00    +0.000 C 
BRANCH  23  28
ATOM     24  C   UNL     1      -6.649  12.221  19.969  0.00  0.00    +0.000 A 
ATOM     25  C   UNL     1      -7.668  13.014  19.446  0.00  0.00    +0.000 A 
ATOM     26  C   UNL     1      -7.737  13.244  18.072  0.00  0.00    +0.000 A 
ATOM     27  C   UNL     1      -6.800  12.674  17.211  0.00  0.00    +0.000 A 
ATOM     28  C   UNL     1      -5.797  11.832  17.709  0.00  0.00    +0.000 A 
ATOM     29  C   UNL     1      -5.730  11.620  19.098  0.00  0.00    +0.000 A 
BRANCH  24  31
ATOM     30  C   UNL     1      -5.516  12.768  21.976  0.00  0.00    +0.000 C 
ATOM     31  O   UNL     1      -6.468  11.950  21.299  0.00  0.00    +0.000 OA
ENDBRANCH  24  31
ENDBRANCH  23  28
ENDBRANCH   1  23
TORSDOF 5
ENDMDL
MODEL 5
REMARK VINA RESULT:      -8.2      1.980      2.479
REMARK  Name = 
REMARK  6 active torsions:
REMARK  status: ('A' for Active; 'I' for Inactive)
REMARK    1  A    between atoms: C_1  and  O_2
REMARK    2  A    between atoms: O_2  and  C_3
REMARK    3  A    between atoms: C_7  and  C_8
REMARK    4  A    between atoms: C_8  and  C_9
REMARK    5  A    between atoms: C_15  and  C_16
REMARK    6  A    between atoms: N_20  and  C_21
REMARK                            x       y       z     vdW  Elec       q    Type
REMARK                         _______ _______ _______ _____ _____    ______ ____
ROOT
ATOM      1  C   UNL     1       4.363   5.880  18.838  0.00  0.00    +0.000 C 
ATOM      2  O   UNL     1       3.720   5.602  19.844  0.00  0.00    +0.000 OA
ATOM      3  N   UNL     1       4.085   6.925  17.978  0.00  0.00    +0.000 N 
ATOM      4  C   UNL     1       3.031   7.780  18.188  0.00  0.00    +0.000 A 
ATOM      5  N   UNL     1       2.537   8.644  17.329  0.00  0.00    +0.000 NA
ATOM      6  N   UNL     1       1.457   9.254  17.948  0.00  0.00    +0.000 NA
ATOM      7  C   UNL     1       1.389   8.741  19.157  0.00  0.00    +0.000 A 
ATOM      8  O   UNL     1       2.372   7.813  19.390  0.00  0.00    +0.000 OA
ATOM      9  H   UNL     1       4.528   6.988  17.072  0.00  0.00    +0.000 HD
ENDROOT
BRANCH   7  10
ATOM     10  C   UNL     1       0.491   9.068  20.292  0.00  0.00    +0.000 C 
ATOM     11  C   UNL     1       1.181   8.851  21.626  0.00  0.00    +0.000 C 
ATOM     12  C   UNL     1       0.421   9.751  22.559  0.00  0.00    +0.000 C 
ATOM     13  O   UNL     1       0.438   9.596  23.770  0.00  0.00    +0.000 OA
ATOM     14  N   UNL     1      -0.216  10.741  21.790  0.00  0.00    +0.000 N 
ATOM     15  C   UNL     1       0.043  10.525  20.376  0.00  0.00    +0.000 C 
BRANCH  14  16
ATOM     16  C   UNL     1      -0.884  11.889  22.311  0.00  0.00    +0.000 A 
ATOM     17  C   UNL     1      -2.116  11.776  22.976  0.00  0.00    +0.000 A 
ATOM     18  C   UNL     1      -2.777  12.891  23.507  0.00  0.00    +0.000 A 
ATOM     19  C   UNL     1      -2.214  14.151  23.375  0.00  0.00    +0.000 A 
ATOM     20 CL   UNL     1      -3.021  15.522  24.027  0.00  0.00    +0.000 Cl
ATOM     21  C   UNL     1      -0.997  14.299  22.720  0.00  0.00    +0.000 A 
ATOM     22  C   UNL     1      -0.334  13.174  22.198  0.00  0.00    +0.000 A 
ENDBRANCH  14  16
ENDBRANCH   7  10
BRANCH   1  23
ATOM     23  C   UNL     1       5.576   5.046  18.446  0.00  0.00    +0.000 C 
BRANCH  23  28
ATOM     24  C   UNL     1       6.979   5.018  14.883  0.00  0.00    +0.000 A 
ATOM     25  C   UNL     1       6.042   4.225  14.225  0.00  0.00    +0.000 A 
ATOM     26  C   UNL     1       4.966   3.687  14.930  0.00  0.00    +0.000 A 
ATOM     27  C   UNL     1       4.811   3.947  16.291  0.00  0.00    +0.000 A 
ATOM     28  C   UNL     1       5.714   4.783  16.962  0.00  0.00    +0.000 A 
ATOM     29  C   UNL     1       6.802   5.308  16.241  0.00  0.00    +0.000 A 
BRANCH  24  31
ATOM     30  C   UNL     1       8.099   5.581  12.871  0.00  0.00    +0.000 C 
ATOM     31  O   UNL     1       8.086   5.575  14.298  0.00  0.00    +0.000 OA
ENDBRANCH  24  31
ENDBRANCH  23  28
ENDBRANCH   1  23
TORSDOF 5
ENDMDL
MODEL 6
REMARK VINA RESULT:      -8.2      1.597      2.031
REMARK  Name = 
REMARK  6 active torsions:
REMARK  status: ('A' for Active; 'I' for Inactive)
REMARK    1  A    between atoms: C_1  and  O_2
REMARK    2  A    between atoms: O_2  and  C_3
REMARK    3  A    between atoms: C_7  and  C_8
REMARK    4  A    between atoms: C_8  and  C_9
REMARK    5  A    between atoms: C_15  and  C_16
REMARK    6  A    between atoms: N_20  and  C_21
REMARK                            x       y       z     vdW  Elec       q    Type
REMARK                         _______ _______ _______ _____ _____    ______ ____
ROOT
ATOM      1  C   UNL     1       2.757   5.548  18.729  0.00  0.00    +0.000 C 
ATOM      2  O   UNL     1       1.857   5.432  19.553  0.00  0.00    +0.000 OA
ATOM      3  N   UNL     1       3.063   6.706  18.042  0.00  0.00    +0.000 N 
ATOM      4  C   UNL     1       2.367   7.875  18.237  0.00  0.00    +0.000 A 
ATOM      5  N   UNL     1       2.412   8.951  17.483  0.00  0.00    +0.000 NA
ATOM      6  N   UNL     1       1.516   9.859  18.026  0.00  0.00    +0.000 NA
ATOM      7  C   UNL     1       1.011   9.283  19.095  0.00  0.00    +0.000 A 
ATOM      8  O   UNL     1       1.522   8.028  19.305  0.00  0.00    +0.000 OA
ATOM      9  H   UNL     1       3.682   6.692  17.243  0.00  0.00    +0.000 HD
ENDROOT
BRANCH   7  10
ATOM     10  C   UNL     1       0.070   9.805  20.115  0.00  0.00    +0.000 C 
ATOM     11  C   UNL     1       0.537   9.476  21.522  0.00  0.00    +0.000 C 
ATOM     12  C   UNL     1      -0.131  10.527  22.362  0.00  0.00    +0.000 C 
ATOM     13  O   UNL     1      -0.291  10.394  23.566  0.00  0.00    +0.000 OA
ATOM     14  N   UNL     1      -0.456  11.613  21.530  0.00  0.00    +0.000 N 
ATOM     15  C   UNL     1      -0.080  11.324  20.155  0.00  0.00    +0.000 C 
BRANCH  14  16
ATOM     16  C   UNL     1      -0.935  12.881  21.974  0.00  0.00    +0.000 A 
ATOM     17  C   UNL     1      -0.050  13.932  22.265  0.00  0.00    +0.000 A 
ATOM     18  C   UNL     1      -0.504  15.188  22.688  0.00  0.00    +0.000 A 
ATOM     19  C   UNL     1      -1.864  15.414  22.834  0.00  0.00    +0.000 A 
ATOM     20 CL   UNL     1      -2.426  16.954  23.350  0.00  0.00    +0.000 Cl
ATOM     21  C   UNL     1      -2.768  14.394  22.558  0.00  0.00    +0.000 A 
ATOM     22  C   UNL     1      -2.305  13.139  22.124  0.00  0.00    +0.000 A 
ENDBRANCH  14  16
ENDBRANCH   7  10
BRANCH   1  23
ATOM     23  C   UNL     1       3.644   4.358  18.385  0.00  0.00    +0.000 C 
BRANCH  23  28
ATOM     24  C   UNL     1       7.205   4.793  17.046  0.00  0.00    +0.000 A 
ATOM     25  C   UNL     1       7.854   5.322  18.160  0.00  0.00    +0.000 A 
ATOM     26  C   UNL     1       7.143   5.552  19.337  0.00  0.00    +0.000 A 
ATOM     27  C   UNL     1       5.785   5.244  19.415  0.00  0.00    +0.000 A 
ATOM     28  C   UNL     1       5.124   4.665  18.324  0.00  0.00    +0.000 A 
ATOM     29  C   UNL     1       5.850   4.451  17.138  0.00  0.00    +0.000 A 
BRANCH  24  31
ATOM     30  C   UNL     1       6.979   4.782  14.687  0.00  0.00    +0.000 C 
ATOM     31  O   UNL     1       7.796   4.551  15.834  0.00  0.00    +0.000 OA
ENDBRANCH  24  31
ENDBRANCH  23  28
ENDBRANCH   1  23
TORSDOF 5
ENDMDL
MODEL 7
REMARK VINA RESULT:      -8.2      3.020      3.698
REMARK  Name = 
REMARK  6 active torsions:
REMARK  status: ('A' for Active; 'I' for Inactive)
REMARK    1  A    between atoms: C_1  and  O_2
REMARK    2  A    between atoms: O_2  and  C_3
REMARK    3  A    between atoms: C_7  and  C_8
REMARK    4  A    between atoms: C_8  and  C_9
REMARK    5  A    between atoms: C_15  and  C_16
REMARK    6  A    between atoms: N_20  and  C_21
REMARK                            x       y       z     vdW  Elec       q    Type
REMARK                         _______ _______ _______ _____ _____    ______ ____
ROOT
ATOM      1  C   UNL     1       2.901   5.893  19.633  0.00  0.00    +0.000 C 
ATOM      2  O   UNL     1       1.959   6.066  20.399  0.00  0.00    +0.000 OA
ATOM      3  N   UNL     1       3.260   6.746  18.607  0.00  0.00    +0.000 N 
ATOM      4  C   UNL     1       2.575   7.909  18.352  0.00  0.00    +0.000 A 
ATOM      5  N   UNL     1       2.675   8.661  17.278  0.00  0.00    +0.000 NA
ATOM      6  N   UNL     1       1.769   9.699  17.429  0.00  0.00    +0.000 NA
ATOM      7  C   UNL     1       1.202   9.525  18.602  0.00  0.00    +0.000 A 
ATOM      8  O   UNL     1       1.680   8.419  19.257  0.00  0.00    +0.000 OA
ATOM      9  H   UNL     1       3.918   6.459  17.896  0.00  0.00    +0.000 HD
ENDROOT
BRANCH   7  10
ATOM     10  C   UNL     1       0.220  10.364  19.331  0.00  0.00    +0.000 C 
ATOM     11  C   UNL     1       0.557  11.840  19.216  0.00  0.00    +0.000 C 
ATOM     12  C   UNL     1      -0.764  12.515  19.449  0.00  0.00    +0.000 C 
ATOM     13  O   UNL     1      -0.846  13.686  19.786  0.00  0.00    +0.000 OA
ATOM     14  N   UNL     1      -1.786  11.589  19.172  0.00  0.00    +0.000 N 
ATOM     15  C   UNL     1      -1.213  10.303  18.806  0.00  0.00    +0.000 C 
BRANCH  14  16
ATOM     16  C   UNL     1      -3.177  11.891  19.096  0.00  0.00    +0.000 A 
ATOM     17  C   UNL     1      -3.822  12.615  20.112  0.00  0.00    +0.000 A 
ATOM     18  C   UNL     1      -5.185  12.933  20.045  0.00  0.00    +0.000 A 
ATOM     19  C   UNL     1      -5.934  12.524  18.953  0.00  0.00    +0.000 A 
ATOM     20 CL   UNL     1      -7.606  12.914  18.866  0.00  0.00    +0.000 Cl
ATOM     21  C   UNL     1      -5.328  11.802  17.931  0.00  0.00    +0.000 A 
ATOM     22  C   UNL     1      -3.957  11.495  18.000  0.00  0.00    +0.000 A 
ENDBRANCH  14  16
ENDBRANCH   7  10
BRANCH   1  23
ATOM     23  C   UNL     1       3.783   4.659  19.766  0.00  0.00    +0.000 C 
BRANCH  23  28
ATOM     24  C   UNL     1       6.149   4.177  16.793  0.00  0.00    +0.000 A 
ATOM     25  C   UNL     1       7.312   4.782  17.267  0.00  0.00    +0.000 A 
ATOM     26  C   UNL     1       7.330   5.358  18.537  0.00  0.00    +0.000 A 
ATOM     27  C   UNL     1       6.195   5.323  19.346  0.00  0.00    +0.000 A 
ATOM     28  C   UNL     1       5.032   4.675  18.911  0.00  0.00    +0.000 A 
ATOM     29  C   UNL     1       5.022   4.110  17.622  0.00  0.00    +0.000 A 
BRANCH  24  31
ATOM     30  C   UNL     1       6.456   4.391  14.454  0.00  0.00    +0.000 C 
ATOM     31  O   UNL     1       6.010   3.604  15.557  0.00  0.00    +0.000 OA
ENDBRANCH  24  31
ENDBRANCH  23  28
ENDBRANCH   1  23
TORSDOF 5
ENDMDL
MODEL 8
REMARK VINA RESULT:      -8.2      2.135      3.297
REMARK  Name = 
REMARK  6 active torsions:
REMARK  status: ('A' for Active; 'I' for Inactive)
REMARK    1  A    between atoms: C_1  and  O_2
REMARK    2  A    between atoms: O_2  and  C_3
REMARK    3  A    between atoms: C_7  and  C_8
REMARK    4  A    between atoms: C_8  and  C_9
REMARK    5  A    between atoms: C_15  and  C_16
REMARK    6  A    between atoms: N_20  and  C_21
REMARK                            x       y       z     vdW  Elec       q    Type
REMARK                         _______ _______ _______ _____ _____    ______ ____
ROOT
ATOM      1  C   UNL     1       2.969   6.571  18.054  0.00  0.00    +0.000 C 
ATOM      2  O   UNL     1       2.128   6.145  18.837  0.00  0.00    +0.000 OA
ATOM      3  N   UNL     1       3.098   7.889  17.662  0.00  0.00    +0.000 N 
ATOM      4  C   UNL     1       2.272   8.876  18.141  0.00  0.00    +0.000 A 
ATOM      5  N   UNL     1       2.149  10.097  17.668  0.00  0.00    +0.000 NA
ATOM      6  N   UNL     1       1.172  10.724  18.425  0.00  0.00    +0.000 NA
ATOM      7  C   UNL     1       0.790   9.850  19.330  0.00  0.00    +0.000 A 
ATOM      8  O   UNL     1       1.462   8.659  19.226  0.00  0.00    +0.000 OA
ATOM      9  H   UNL     1       3.679   8.146  16.876  0.00  0.00    +0.000 HD
ENDROOT
BRANCH   7  10
ATOM     10  C   UNL     1      -0.164   9.987  20.458  0.00  0.00    +0.000 C 
ATOM     11  C   UNL     1       0.453   9.525  21.766  0.00  0.00    +0.000 C 
ATOM     12  C   UNL     1      -0.348  10.259  22.804  0.00  0.00    +0.000 C 
ATOM     13  O   UNL     1      -0.397   9.892  23.968  0.00  0.00    +0.000 OA
ATOM     14  N   UNL     1      -0.935  11.381  22.192  0.00  0.00    +0.000 N 
ATOM     15  C   UNL     1      -0.604  11.414  20.777  0.00  0.00    +0.000 C 
BRANCH  14  16
ATOM     16  C   UNL     1      -1.621  12.429  22.874  0.00  0.00    +0.000 A 
ATOM     17  C   UNL     1      -1.002  13.667  23.116  0.00  0.00    +0.000 A 
ATOM     18  C   UNL     1      -1.667  14.712  23.771  0.00  0.00    +0.000 A 
ATOM     19  C   UNL     1      -2.972  14.534  24.203  0.00  0.00    +0.000 A 
ATOM     20 CL   UNL     1      -3.792  15.815  25.004  0.00  0.00    +0.000 Cl
ATOM     21  C   UNL     1      -3.613  13.320  23.982  0.00  0.00    +0.000 A 
ATOM     22  C   UNL     1      -2.943  12.279  23.316  0.00  0.00    +0.000 A 
ENDBRANCH  14  16
ENDBRANCH   7  10
BRANCH   1  23
ATOM     23  C   UNL     1       3.981   5.623  17.422  0.00  0.00    +0.000 C 
BRANCH  23  28
ATOM     24  C   UNL     1       4.465   2.448  19.507  0.00  0.00    +0.000 A 
ATOM     25  C   UNL     1       3.642   1.548  18.831  0.00  0.00    +0.000 A 
ATOM     26  C   UNL     1       2.922   1.967  17.713  0.00  0.00    +0.000 A 
ATOM     27  C   UNL     1       3.026   3.280  17.255  0.00  0.00    +0.000 A 
ATOM     28  C   UNL     1       3.885   4.187  17.889  0.00  0.00    +0.000 A 
ATOM     29  C   UNL     1       4.596   3.756  19.024  0.00  0.00    +0.000 A 
BRANCH  24  31
ATOM     30  C   UNL     1       5.121   0.804  21.083  0.00  0.00    +0.000 C 
ATOM     31  O   UNL     1       5.196   2.154  20.628  0.00  0.00    +0.000 OA
ENDBRANCH  24  31
ENDBRANCH  23  28
ENDBRANCH   1  23
TORSDOF 5
ENDMDL
MODEL 9
REMARK VINA RESULT:      -8.2      1.647      2.126
REMARK  Name = 
REMARK  6 active torsions:
REMARK  status: ('A' for Active; 'I' for Inactive)
REMARK    1  A    between atoms: C_1  and  O_2
REMARK    2  A    between atoms: O_2  and  C_3
REMARK    3  A    between atoms: C_7  and  C_8
REMARK    4  A    between atoms: C_8  and  C_9
REMARK    5  A    between atoms: C_15  and  C_16
REMARK    6  A    between atoms: N_20  and  C_21
REMARK                            x       y       z     vdW  Elec       q    Type
REMARK                         _______ _______ _______ _____ _____    ______ ____
ROOT
ATOM      1  C   UNL     1       2.648   5.052  18.410  0.00  0.00    +0.000 C 
ATOM      2  O   UNL     1       1.699   4.940  19.179  0.00  0.00    +0.000 OA
ATOM      3  N   UNL     1       3.108   6.242  17.880  0.00  0.00    +0.000 N 
ATOM      4  C   UNL     1       2.529   7.449  18.188  0.00  0.00    +0.000 A 
ATOM      5  N   UNL     1       2.725   8.594  17.572  0.00  0.00    +0.000 NA
ATOM      6  N   UNL     1       1.902   9.526  18.186  0.00  0.00    +0.000 NA
ATOM      7  C   UNL     1       1.285   8.889  19.157  0.00  0.00    +0.000 A 
ATOM      8  O   UNL     1       1.650   7.569  19.233  0.00  0.00    +0.000 OA
ATOM      9  H   UNL     1       3.763   6.253  17.111  0.00  0.00    +0.000 HD
ENDROOT
BRANCH   7  10
ATOM     10  C   UNL     1       0.351   9.389  20.195  0.00  0.00    +0.000 C 
ATOM     11  C   UNL     1       0.874   9.110  21.593  0.00  0.00    +0.000 C 
ATOM     12  C   UNL     1       0.185  10.147  22.433  0.00  0.00    +0.000 C 
ATOM     13  O   UNL     1       0.067  10.031  23.643  0.00  0.00    +0.000 OA
ATOM     14  N   UNL     1      -0.214  11.200  21.590  0.00  0.00    +0.000 N 
ATOM     15  C   UNL     1       0.135  10.900  20.211  0.00  0.00    +0.000 C 
BRANCH  14  16
ATOM     16  C   UNL     1      -0.735  12.454  22.025  0.00  0.00    +0.000 A 
ATOM     17  C   UNL     1      -2.060  12.576  22.477  0.00  0.00    +0.000 A 
ATOM     18  C   UNL     1      -2.583  13.797  22.921  0.00  0.00    +0.000 A 
ATOM     19  C   UNL     1      -1.783  14.930  22.916  0.00  0.00    +0.000 A 
ATOM     20 CL   UNL     1      -2.420  16.430  23.463  0.00  0.00    +0.000 Cl
ATOM     21  C   UNL     1      -0.468  14.846  22.472  0.00  0.00    +0.000 A 
ATOM     22  C   UNL     1       0.053  13.614  22.037  0.00  0.00    +0.000 A 
ENDBRANCH  14  16
ENDBRANCH   7  10
BRANCH   1  23
ATOM     23  C   UNL     1       3.422   3.820  17.960  0.00  0.00    +0.000 C 
BRANCH  23  28
ATOM     24  C   UNL     1       7.162   4.568  17.614  0.00  0.00    +0.000 A 
ATOM     25  C   UNL     1       7.319   4.547  16.230  0.00  0.00    +0.000 A 
ATOM     26  C   UNL     1       6.225   4.278  15.408  0.00  0.00    +0.000 A 
ATOM     27  C   UNL     1       4.967   4.042  15.960  0.00  0.00    +0.000 A 
ATOM     28  C   UNL     1       4.775   4.108  17.347  0.00  0.00    +0.000 A 
ATOM     29  C   UNL     1       5.890   4.367  18.165  0.00  0.00    +0.000 A 
BRANCH  24  31
ATOM     30  C   UNL     1       7.916   5.807  19.488  0.00  0.00    +0.000 C 
ATOM     31  O   UNL     1       8.169   4.794  18.516  0.00  0.00    +0.000 OA
ENDBRANCH  24  31
ENDBRANCH  23  28
ENDBRANCH   1  23
TORSDOF 5
ENDMDL
