MODEL 1
REMARK VINA RESULT:      -9.0      0.000      0.000
REMARK  Name = 
REMARK  6 active torsions:
REMARK  status: ('A' for Active; 'I' for Inactive)
REMARK    1  A    between atoms: C_2  and  O_3
REMARK    2  A    between atoms: C_2  and  C_16
REMARK    3  A    between atoms: O_3  and  C_4
REMARK    4  A    between atoms: C_4  and  C_5
REMARK    5  A    between atoms: C_8  and  C_9
REMARK    6  A    between atoms: C_20  and  N_21
REMARK                            x       y       z     vdW  Elec       q    Type
REMARK                         _______ _______ _______ _____ _____    ______ ____
ROOT
ATOM      1  O   UNL     1       2.478   4.745  20.282  0.00  0.00    +0.000 OA
ATOM      2  C   UNL     1       2.885   5.588  19.500  0.00  0.00    +0.000 C 
ENDROOT
BRANCH   2   3
ATOM      3  C   UNL     1       2.322   6.966  19.410  0.00  0.00    +0.000 A 
ATOM      4  C   UNL     1       2.321   7.589  18.152  0.00  0.00    +0.000 A 
ATOM      5  C   UNL     1       1.787   8.870  18.000  0.00  0.00    +0.000 A 
ATOM      6  C   UNL     1       1.242   9.534  19.101  0.00  0.00    +0.000 A 
ATOM      7  C   UNL     1       1.224   8.918  20.361  0.00  0.00    +0.000 A 
ATOM      8  C   UNL     1       1.773   7.634  20.515  0.00  0.00    +0.000 A 
BRANCH   7   9
ATOM      9  N   UNL     1       0.639   9.599  21.457  0.00  0.00    +0.000 N 
ATOM     10  C   UNL     1       0.108  10.863  21.520  0.00  0.00    +0.000 A 
ATOM     11  N   UNL     1      -0.301  11.105  22.745  0.00  0.00    +0.000 NA
ATOM     12  N   UNL     1      -0.025   9.969  23.457  0.00  0.00    +0.000 NA
ATOM     13  N   UNL     1       0.541   9.050  22.688  0.00  0.00    +0.000 NA
ENDBRANCH   7   9
ENDBRANCH   2   3
BRANCH   2  14
ATOM     14  O   UNL     1       3.910   5.426  18.628  0.00  0.00    +0.000 OA
BRANCH  14  15
ATOM     15  C   UNL     1       5.087   4.803  19.177  0.00  0.00    +0.000 C 
BRANCH  15  16
ATOM     16  C   UNL     1       6.126   4.690  18.128  0.00  0.00    +0.000 A 
ATOM     17  N   UNL     1       7.429   4.554  18.258  0.00  0.00    +0.000 NA
ATOM     18  N   UNL     1       7.935   4.433  16.980  0.00  0.00    +0.000 NA
ATOM     19  C   UNL     1       6.908   4.508  16.156  0.00  0.00    +0.000 A 
ATOM     20  O   UNL     1       5.717   4.662  16.821  0.00  0.00    +0.000 OA
BRANCH  19  21
ATOM     21  C   UNL     1       6.876   4.474  14.699  0.00  0.00    +0.000 A 
ATOM     22  C   UNL     1       5.979   3.612  14.047  0.00  0.00    +0.000 A 
ATOM     23  C   UNL     1       5.963   3.510  12.654  0.00  0.00    +0.000 A 
ATOM     24  C   UNL     1       6.843   4.274  11.892  0.00  0.00    +0.000 A 
ATOM     25  C   UNL     1       7.725   5.150  12.520  0.00  0.00    +0.000 A 
ATOM     26  C   UNL     1       7.741   5.253  13.914  0.00  0.00    +0.000 A 
ENDBRANCH  19  21
ENDBRANCH  15  16
ENDBRANCH  14  15
ENDBRANCH   2  14
TORSDOF 6
ENDMDL
MODEL 2
REMARK VINA RESULT:      -8.5      0.910      1.394
REMARK  Name = 
REMARK  6 active torsions:
REMARK  status: ('A' for Active; 'I' for Inactive)
REMARK    1  A    between atoms: C_2  and  O_3
REMARK    2  A    between atoms: C_2  and  C_16
REMARK    3  A    between atoms: O_3  and  C_4
REMARK    4  A    between atoms: C_4  and  C_5
REMARK    5  A    between atoms: C_8  and  C_9
REMARK    6  A    between atoms: C_20  and  N_21
REMARK                            x       y       z     vdW  Elec       q    Type
REMARK                         _______ _______ _______ _____ _____    ______ ____
ROOT
ATOM      1  O   UNL     1       2.845   4.469  18.868  0.00  0.00    +0.000 OA
ATOM      2  C   UNL     1       3.368   5.513  19.221  0.00  0.00    +0.000 C 
ENDROOT
BRANCH   2   3
ATOM      3  C   UNL     1       2.683   6.836  19.162  0.00  0.00    +0.000 A 
ATOM      4  C   UNL     1       2.631   7.490  17.921  0.00  0.00    +0.000 A 
ATOM      5  C   UNL     1       1.984   8.720  17.799  0.00  0.00    +0.000 A 
ATOM      6  C   UNL     1       1.376   9.303  18.912  0.00  0.00    +0.000 A 
ATOM      7  C   UNL     1       1.409   8.655  20.156  0.00  0.00    +0.000 A 
ATOM      8  C   UNL     1       2.071   7.422  20.281  0.00  0.00    +0.000 A 
BRANCH   7   9
ATOM      9  N   UNL     1       0.760   9.252  21.265  0.00  0.00    +0.000 N 
ATOM     10  C   UNL     1       1.080   9.202  22.599  0.00  0.00    +0.000 A 
ATOM     11  N   UNL     1       0.189   9.877  23.289  0.00  0.00    +0.000 NA
ATOM     12  N   UNL     1      -0.700  10.361  22.368  0.00  0.00    +0.000 NA
ATOM     13  N   UNL     1      -0.364   9.994  21.140  0.00  0.00    +0.000 NA
ENDBRANCH   7   9
ENDBRANCH   2   3
BRANCH   2  14
ATOM     14  O   UNL     1       4.614   5.636  19.738  0.00  0.00    +0.000 OA
BRANCH  14  15
ATOM     15  C   UNL     1       5.579   4.691  19.237  0.00  0.00    +0.000 C 
BRANCH  15  16
ATOM     16  C   UNL     1       6.198   5.220  18.000  0.00  0.00    +0.000 A 
ATOM     17  N   UNL     1       6.945   6.291  17.835  0.00  0.00    +0.000 NA
ATOM     18  N   UNL     1       7.317   6.302  16.506  0.00  0.00    +0.000 NA
ATOM     19  C   UNL     1       6.768   5.240  15.949  0.00  0.00    +0.000 A 
ATOM     20  O   UNL     1       6.047   4.494  16.847  0.00  0.00    +0.000 OA
BRANCH  19  21
ATOM     21  C   UNL     1       6.808   4.788  14.563  0.00  0.00    +0.000 A 
ATOM     22  C   UNL     1       7.721   5.374  13.671  0.00  0.00    +0.000 A 
ATOM     23  C   UNL     1       7.746   5.008  12.323  0.00  0.00    +0.000 A 
ATOM     24  C   UNL     1       6.859   4.045  11.849  0.00  0.00    +0.000 A 
ATOM     25  C   UNL     1       5.960   3.437  12.724  0.00  0.00    +0.000 A 
ATOM     26  C   UNL     1       5.936   3.803  14.073  0.00  0.00    +0.000 A 
ENDBRANCH  19  21
ENDBRANCH  15  16
ENDBRANCH  14  15
ENDBRANCH   2  14
TORSDOF 6
ENDMDL
MODEL 3
REMARK VINA RESULT:      -8.1      2.646      7.991
REMARK  Name = 
REMARK  6 active torsions:
REMARK  status: ('A' for Active; 'I' for Inactive)
REMARK    1  A    between atoms: C_2  and  O_3
REMARK    2  A    between atoms: C_2  and  C_16
REMARK    3  A    between atoms: O_3  and  C_4
REMARK    4  A    between atoms: C_4  and  C_5
REMARK    5  A    between atoms: C_8  and  C_9
REMARK    6  A    between atoms: C_20  and  N_21
REMARK                            x       y       z     vdW  Elec       q    Type
REMARK                         _______ _______ _______ _____ _____    ______ ____
ROOT
ATOM      1  O   UNL     1       3.978   1.026  18.947  0.00  0.00    +0.000 OA
ATOM      2  C   UNL     1       3.633   2.050  18.382  0.00  0.00    +0.000 C 
ENDROOT
BRANCH   2   3
ATOM      3  C   UNL     1       4.563   3.176  18.080  0.00  0.00    +0.000 A 
ATOM      4  C   UNL     1       4.950   4.006  19.143  0.00  0.00    +0.000 A 
ATOM      5  C   UNL     1       5.836   5.062  18.927  0.00  0.00    +0.000 A 
ATOM      6  C   UNL     1       6.349   5.293  17.649  0.00  0.00    +0.000 A 
ATOM      7  C   UNL     1       5.980   4.464  16.579  0.00  0.00    +0.000 A 
ATOM      8  C   UNL     1       5.079   3.408  16.795  0.00  0.00    +0.000 A 
BRANCH   7   9
ATOM      9  N   UNL     1       6.536   4.699  15.297  0.00  0.00    +0.000 N 
ATOM     10  C   UNL     1       6.195   4.159  14.082  0.00  0.00    +0.000 A 
ATOM     11  N   UNL     1       6.992   4.636  13.153  0.00  0.00    +0.000 NA
ATOM     12  N   UNL     1       7.840   5.494  13.799  0.00  0.00    +0.000 NA
ATOM     13  N   UNL     1       7.572   5.544  15.095  0.00  0.00    +0.000 NA
ENDBRANCH   7   9
ENDBRANCH   2   3
BRANCH   2  14
ATOM     14  O   UNL     1       2.386   2.315  17.921  0.00  0.00    +0.000 OA
BRANCH  14  15
ATOM     15  C   UNL     1       1.373   2.441  18.937  0.00  0.00    +0.000 C 
BRANCH  15  16
ATOM     16  C   UNL     1       1.544   3.726  19.654  0.00  0.00    +0.000 A 
ATOM     17  N   UNL     1       1.752   3.942  20.936  0.00  0.00    +0.000 NA
ATOM     18  N   UNL     1       1.902   5.306  21.079  0.00  0.00    +0.000 NA
ATOM     19  C   UNL     1       1.772   5.831  19.875  0.00  0.00    +0.000 A 
ATOM     20  O   UNL     1       1.551   4.878  18.912  0.00  0.00    +0.000 OA
BRANCH  19  21
ATOM     21  C   UNL     1       1.806   7.227  19.458  0.00  0.00    +0.000 A 
ATOM     22  C   UNL     1       1.270   8.214  20.302  0.00  0.00    +0.000 A 
ATOM     23  C   UNL     1       1.233   9.554  19.909  0.00  0.00    +0.000 A 
ATOM     24  C   UNL     1       1.736   9.927  18.665  0.00  0.00    +0.000 A 
ATOM     25  C   UNL     1       2.291   8.965  17.823  0.00  0.00    +0.000 A 
ATOM     26  C   UNL     1       2.329   7.624  18.217  0.00  0.00    +0.000 A 
ENDBRANCH  19  21
ENDBRANCH  15  16
ENDBRANCH  14  15
ENDBRANCH   2  14
TORSDOF 6
ENDMDL
MODEL 4
REMARK VINA RESULT:      -8.0      2.421      9.160
REMARK  Name = 
REMARK  6 active torsions:
REMARK  status: ('A' for Active; 'I' for Inactive)
REMARK    1  A    between atoms: C_2  and  O_3
REMARK    2  A    between atoms: C_2  and  C_16
REMARK    3  A    between atoms: O_3  and  C_4
REMARK    4  A    between atoms: C_4  and  C_5
REMARK    5  A    between atoms: C_8  and  C_9
REMARK    6  A    between atoms: C_20  and  N_21
REMARK                            x       y       z     vdW  Elec       q    Type
REMARK                         _______ _______ _______ _____ _____    ______ ____
ROOT
ATOM      1  O   UNL     1       2.869   2.776  18.061  0.00  0.00    +0.000 OA
ATOM      2  C   UNL     1       3.579   3.536  18.698  0.00  0.00    +0.000 C 
ENDROOT
BRANCH   2   3
ATOM      3  C   UNL     1       4.804   4.178  18.142  0.00  0.00    +0.000 A 
ATOM      4  C   UNL     1       5.670   4.819  19.040  0.00  0.00    +0.000 A 
ATOM      5  C   UNL     1       6.844   5.420  18.582  0.00  0.00    +0.000 A 
ATOM      6  C   UNL     1       7.165   5.378  17.224  0.00  0.00    +0.000 A 
ATOM      7  C   UNL     1       6.315   4.730  16.316  0.00  0.00    +0.000 A 
ATOM      8  C   UNL     1       5.128   4.136  16.777  0.00  0.00    +0.000 A 
BRANCH   7   9
ATOM      9  N   UNL     1       6.676   4.674  14.947  0.00  0.00    +0.000 N 
ATOM     10  C   UNL     1       6.232   3.833  13.957  0.00  0.00    +0.000 A 
ATOM     11  N   UNL     1       6.855   4.112  12.835  0.00  0.00    +0.000 NA
ATOM     12  N   UNL     1       7.698   5.149  13.128  0.00  0.00    +0.000 NA
ATOM     13  N   UNL     1       7.597   5.501  14.402  0.00  0.00    +0.000 NA
ENDBRANCH   7   9
ENDBRANCH   2   3
BRANCH   2  14
ATOM     14  O   UNL     1       3.361   3.933  19.975  0.00  0.00    +0.000 OA
BRANCH  14  15
ATOM     15  C   UNL     1       2.029   4.409  20.249  0.00  0.00    +0.000 C 
BRANCH  15  16
ATOM     16  C   UNL     1       1.999   5.887  20.155  0.00  0.00    +0.000 A 
ATOM     17  N   UNL     1       2.696   6.686  19.374  0.00  0.00    +0.000 NA
ATOM     18  N   UNL     1       2.250   7.966  19.633  0.00  0.00    +0.000 NA
ATOM     19  C   UNL     1       1.315   7.862  20.558  0.00  0.00    +0.000 A 
ATOM     20  O   UNL     1       1.094   6.560  20.932  0.00  0.00    +0.000 OA
BRANCH  19  21
ATOM     21  C   UNL     1       0.539   8.903  21.221  0.00  0.00    +0.000 A 
ATOM     22  C   UNL     1      -0.017   9.942  20.456  0.00  0.00    +0.000 A 
ATOM     23  C   UNL     1      -0.716  10.988  21.064  0.00  0.00    +0.000 A 
ATOM     24  C   UNL     1      -0.873  11.006  22.448  0.00  0.00    +0.000 A 
ATOM     25  C   UNL     1      -0.346   9.973  23.221  0.00  0.00    +0.000 A 
ATOM     26  C   UNL     1       0.352   8.926  22.612  0.00  0.00    +0.000 A 
ENDBRANCH  19  21
ENDBRANCH  15  16
ENDBRANCH  14  15
ENDBRANCH   2  14
TORSDOF 6
ENDMDL
MODEL 5
REMARK VINA RESULT:      -8.0      2.201      3.323
REMARK  Name = 
REMARK  6 active torsions:
REMARK  status: ('A' for Active; 'I' for Inactive)
REMARK    1  A    between atoms: C_2  and  O_3
REMARK    2  A    between atoms: C_2  and  C_16
REMARK    3  A    between atoms: O_3  and  C_4
REMARK    4  A    between atoms: C_4  and  C_5
REMARK    5  A    between atoms: C_8  and  C_9
REMARK    6  A    between atoms: C_20  and  N_21
REMARK                            x       y       z     vdW  Elec       q    Type
REMARK                         _______ _______ _______ _____ _____    ______ ____
ROOT
ATOM      1  O   UNL     1       5.401   3.052  19.688  0.00  0.00    +0.000 OA
ATOM      2  C   UNL     1       4.803   3.836  18.971  0.00  0.00    +0.000 C 
ENDROOT
BRANCH   2   3
ATOM      3  C   UNL     1       3.636   4.643  19.428  0.00  0.00    +0.000 A 
ATOM      4  C   UNL     1       2.794   4.080  20.400  0.00  0.00    +0.000 A 
ATOM      5  C   UNL     1       1.698   4.796  20.884  0.00  0.00    +0.000 A 
ATOM      6  C   UNL     1       1.439   6.083  20.408  0.00  0.00    +0.000 A 
ATOM      7  C   UNL     1       2.279   6.663  19.447  0.00  0.00    +0.000 A 
ATOM      8  C   UNL     1       3.375   5.937  18.951  0.00  0.00    +0.000 A 
BRANCH   7   9
ATOM      9  N   UNL     1       2.014   7.981  19.000  0.00  0.00    +0.000 N 
ATOM     10  C   UNL     1       1.525   9.060  19.694  0.00  0.00    +0.000 A 
ATOM     11  N   UNL     1       1.406  10.085  18.881  0.00  0.00    +0.000 NA
ATOM     12  N   UNL     1       1.835   9.640  17.660  0.00  0.00    +0.000 NA
ATOM     13  N   UNL     1       2.209   8.371  17.719  0.00  0.00    +0.000 NA
ENDBRANCH   7   9
ENDBRANCH   2   3
BRANCH   2  14
ATOM     14  O   UNL     1       5.111   4.118  17.681  0.00  0.00    +0.000 OA
BRANCH  14  15
ATOM     15  C   UNL     1       6.358   4.812  17.489  0.00  0.00    +0.000 C 
BRANCH  15  16
ATOM     16  C   UNL     1       6.684   4.859  16.045  0.00  0.00    +0.000 A 
ATOM     17  N   UNL     1       7.580   5.592  15.417  0.00  0.00    +0.000 NA
ATOM     18  N   UNL     1       7.528   5.215  14.091  0.00  0.00    +0.000 NA
ATOM     19  C   UNL     1       6.601   4.280  13.998  0.00  0.00    +0.000 A 
ATOM     20  O   UNL     1       6.027   3.993  15.211  0.00  0.00    +0.000 OA
BRANCH  19  21
ATOM     21  C   UNL     1       6.115   3.562  12.826  0.00  0.00    +0.000 A 
ATOM     22  C   UNL     1       4.766   3.685  12.451  0.00  0.00    +0.000 A 
ATOM     23  C   UNL     1       4.252   2.966  11.369  0.00  0.00    +0.000 A 
ATOM     24  C   UNL     1       5.083   2.116  10.643  0.00  0.00    +0.000 A 
ATOM     25  C   UNL     1       6.427   1.997  10.988  0.00  0.00    +0.000 A 
ATOM     26  C   UNL     1       6.942   2.717  12.070  0.00  0.00    +0.000 A 
ENDBRANCH  19  21
ENDBRANCH  15  16
ENDBRANCH  14  15
ENDBRANCH   2  14
TORSDOF 6
ENDMDL
MODEL 6
REMARK VINA RESULT:      -7.9      0.934      1.369
REMARK  Name = 
REMARK  6 active torsions:
REMARK  status: ('A' for Active; 'I' for Inactive)
REMARK    1  A    between atoms: C_2  and  O_3
REMARK    2  A    between atoms: C_2  and  C_16
REMARK    3  A    between atoms: O_3  and  C_4
REMARK    4  A    between atoms: C_4  and  C_5
REMARK    5  A    between atoms: C_8  and  C_9
REMARK    6  A    between atoms: C_20  and  N_21
REMARK                            x       y       z     vdW  Elec       q    Type
REMARK                         _______ _______ _______ _____ _____    ______ ____
ROOT
ATOM      1  O   UNL     1       1.636   5.069  20.624  0.00  0.00    +0.000 OA
ATOM      2  C   UNL     1       2.459   5.753  20.038  0.00  0.00    +0.000 C 
ENDROOT
BRANCH   2   3
ATOM      3  C   UNL     1       2.180   7.133  19.546  0.00  0.00    +0.000 A 
ATOM      4  C   UNL     1       2.491   7.424  18.209  0.00  0.00    +0.000 A 
ATOM      5  C   UNL     1       2.232   8.691  17.684  0.00  0.00    +0.000 A 
ATOM      6  C   UNL     1       1.654   9.674  18.488  0.00  0.00    +0.000 A 
ATOM      7  C   UNL     1       1.326   9.394  19.823  0.00  0.00    +0.000 A 
ATOM      8  C   UNL     1       1.598   8.122  20.354  0.00  0.00    +0.000 A 
BRANCH   7   9
ATOM      9  N   UNL     1       0.713  10.399  20.612  0.00  0.00    +0.000 N 
ATOM     10  C   UNL     1       1.013  11.734  20.718  0.00  0.00    +0.000 A 
ATOM     11  N   UNL     1       0.207  12.295  21.590  0.00  0.00    +0.000 NA
ATOM     12  N   UNL     1      -0.615  11.294  22.031  0.00  0.00    +0.000 NA
ATOM     13  N   UNL     1      -0.322  10.142  21.444  0.00  0.00    +0.000 NA
ENDBRANCH   7   9
ENDBRANCH   2   3
BRANCH   2  14
ATOM     14  O   UNL     1       3.737   5.392  19.771  0.00  0.00    +0.000 OA
BRANCH  14  15
ATOM     15  C   UNL     1       3.882   4.229  18.935  0.00  0.00    +0.000 C 
BRANCH  15  16
ATOM     16  C   UNL     1       5.095   4.365  18.096  0.00  0.00    +0.000 A 
ATOM     17  N   UNL     1       6.345   4.555  18.465  0.00  0.00    +0.000 NA
ATOM     18  N   UNL     1       7.095   4.551  17.307  0.00  0.00    +0.000 NA
ATOM     19  C   UNL     1       6.252   4.363  16.309  0.00  0.00    +0.000 A 
ATOM     20  O   UNL     1       4.956   4.225  16.740  0.00  0.00    +0.000 OA
BRANCH  19  21
ATOM     21  C   UNL     1       6.503   4.309  14.874  0.00  0.00    +0.000 A 
ATOM     22  C   UNL     1       7.513   5.111  14.319  0.00  0.00    +0.000 A 
ATOM     23  C   UNL     1       7.742   5.128  12.941  0.00  0.00    +0.000 A 
ATOM     24  C   UNL     1       6.964   4.338  12.098  0.00  0.00    +0.000 A 
ATOM     25  C   UNL     1       5.971   3.520  12.633  0.00  0.00    +0.000 A 
ATOM     26  C   UNL     1       5.743   3.502  14.012  0.00  0.00    +0.000 A 
ENDBRANCH  19  21
ENDBRANCH  15  16
ENDBRANCH  14  15
ENDBRANCH   2  14
TORSDOF 6
ENDMDL
MODEL 7
REMARK VINA RESULT:      -7.9      2.135      3.057
REMARK  Name = 
REMARK  6 active torsions:
REMARK  status: ('A' for Active; 'I' for Inactive)
REMARK    1  A    between atoms: C_2  and  O_3
REMARK    2  A    between atoms: C_2  and  C_16
REMARK    3  A    between atoms: O_3  and  C_4
REMARK    4  A    between atoms: C_4  and  C_5
REMARK    5  A    between atoms: C_8  and  C_9
REMARK    6  A    between atoms: C_20  and  N_21
REMARK                            x       y       z     vdW  Elec       q    Type
REMARK                         _______ _______ _______ _____ _____    ______ ____
ROOT
ATOM      1  O   UNL     1       0.446   3.752  20.264  0.00  0.00    +0.000 OA
ATOM      2  C   UNL     1       1.377   4.425  20.673  0.00  0.00    +0.000 C 
ENDROOT
BRANCH   2   3
ATOM      3  C   UNL     1       1.589   5.852  20.296  0.00  0.00    +0.000 A 
ATOM      4  C   UNL     1       2.245   6.116  19.084  0.00  0.00    +0.000 A 
ATOM      5  C   UNL     1       2.452   7.432  18.666  0.00  0.00    +0.000 A 
ATOM      6  C   UNL     1       1.998   8.493  19.451  0.00  0.00    +0.000 A 
ATOM      7  C   UNL     1       1.329   8.244  20.659  0.00  0.00    +0.000 A 
ATOM      8  C   UNL     1       1.132   6.920  21.084  0.00  0.00    +0.000 A 
BRANCH   7   9
ATOM      9  N   UNL     1       0.852   9.336  21.424  0.00  0.00    +0.000 N 
ATOM     10  C   UNL     1       0.345   9.357  22.700  0.00  0.00    +0.000 A 
ATOM     11  N   UNL     1      -0.008  10.584  23.010  0.00  0.00    +0.000 NA
ATOM     12  N   UNL     1       0.290  11.343  21.911  0.00  0.00    +0.000 NA
ATOM     13  N   UNL     1       0.814  10.601  20.946  0.00  0.00    +0.000 NA
ENDBRANCH   7   9
ENDBRANCH   2   3
BRANCH   2  14
ATOM     14  O   UNL     1       2.332   4.007  21.539  0.00  0.00    +0.000 OA
BRANCH  14  15
ATOM     15  C   UNL     1       2.874   2.700  21.266  0.00  0.00    +0.000 C 
BRANCH  15  16
ATOM     16  C   UNL     1       3.306   2.625  19.851  0.00  0.00    +0.000 A 
ATOM     17  N   UNL     1       2.911   1.801  18.903  0.00  0.00    +0.000 NA
ATOM     18  N   UNL     1       3.571   2.188  17.755  0.00  0.00    +0.000 NA
ATOM     19  C   UNL     1       4.327   3.219  18.081  0.00  0.00    +0.000 A 
ATOM     20  O   UNL     1       4.200   3.561  19.404  0.00  0.00    +0.000 OA
BRANCH  19  21
ATOM     21  C   UNL     1       5.254   3.991  17.263  0.00  0.00    +0.000 A 
ATOM     22  C   UNL     1       6.337   4.643  17.874  0.00  0.00    +0.000 A 
ATOM     23  C   UNL     1       7.211   5.439  17.130  0.00  0.00    +0.000 A 
ATOM     24  C   UNL     1       7.015   5.591  15.759  0.00  0.00    +0.000 A 
ATOM     25  C   UNL     1       5.958   4.935  15.132  0.00  0.00    +0.000 A 
ATOM     26  C   UNL     1       5.084   4.138  15.877  0.00  0.00    +0.000 A 
ENDBRANCH  19  21
ENDBRANCH  15  16
ENDBRANCH  14  15
ENDBRANCH   2  14
TORSDOF 6
ENDMDL
MODEL 8
REMARK VINA RESULT:      -7.9      2.757      8.997
REMARK  Name = 
REMARK  6 active torsions:
REMARK  status: ('A' for Active; 'I' for Inactive)
REMARK    1  A    between atoms: C_2  and  O_3
REMARK    2  A    between atoms: C_2  and  C_16
REMARK    3  A    between atoms: O_3  and  C_4
REMARK    4  A    between atoms: C_4  and  C_5
REMARK    5  A    between atoms: C_8  and  C_9
REMARK    6  A    between atoms: C_20  and  N_21
REMARK                            x       y       z     vdW  Elec       q    Type
REMARK                         _______ _______ _______ _____ _____    ______ ____
ROOT
ATOM      1  O   UNL     1       3.404   3.783  20.012  0.00  0.00    +0.000 OA
ATOM      2  C   UNL     1       3.610   4.690  19.224  0.00  0.00    +0.000 C 
ENDROOT
BRANCH   2   3
ATOM      3  C   UNL     1       4.932   4.933  18.579  0.00  0.00    +0.000 A 
ATOM      4  C   UNL     1       6.005   5.302  19.406  0.00  0.00    +0.000 A 
ATOM      5  C   UNL     1       7.271   5.521  18.862  0.00  0.00    +0.000 A 
ATOM      6  C   UNL     1       7.479   5.365  17.491  0.00  0.00    +0.000 A 
ATOM      7  C   UNL     1       6.420   4.984  16.654  0.00  0.00    +0.000 A 
ATOM      8  C   UNL     1       5.142   4.775  17.200  0.00  0.00    +0.000 A 
BRANCH   7   9
ATOM      9  N   UNL     1       6.662   4.802  15.270  0.00  0.00    +0.000 N 
ATOM     10  C   UNL     1       6.086   3.922  14.388  0.00  0.00    +0.000 A 
ATOM     11  N   UNL     1       6.628   4.074  13.201  0.00  0.00    +0.000 NA
ATOM     12  N   UNL     1       7.555   5.072  13.344  0.00  0.00    +0.000 NA
ATOM     13  N   UNL     1       7.582   5.523  14.589  0.00  0.00    +0.000 NA
ENDBRANCH   7   9
ENDBRANCH   2   3
BRANCH   2  14
ATOM     14  O   UNL     1       2.690   5.587  18.794  0.00  0.00    +0.000 OA
BRANCH  14  15
ATOM     15  C   UNL     1       2.410   6.663  19.709  0.00  0.00    +0.000 C 
BRANCH  15  16
ATOM     16  C   UNL     1       2.172   7.913  18.951  0.00  0.00    +0.000 A 
ATOM     17  N   UNL     1       2.591   8.250  17.749  0.00  0.00    +0.000 NA
ATOM     18  N   UNL     1       2.044   9.488  17.481  0.00  0.00    +0.000 NA
ATOM     19  C   UNL     1       1.331   9.824  18.539  0.00  0.00    +0.000 A 
ATOM     20  O   UNL     1       1.358   8.860  19.515  0.00  0.00    +0.000 OA
BRANCH  19  21
ATOM     21  C   UNL     1       0.572  11.041  18.804  0.00  0.00    +0.000 A 
ATOM     22  C   UNL     1       1.212  12.288  18.709  0.00  0.00    +0.000 A 
ATOM     23  C   UNL     1       0.532  13.470  19.012  0.00  0.00    +0.000 A 
ATOM     24  C   UNL     1      -0.801  13.421  19.412  0.00  0.00    +0.000 A 
ATOM     25  C   UNL     1      -1.458  12.195  19.491  0.00  0.00    +0.000 A 
ATOM     26  C   UNL     1      -0.778  11.012  19.187  0.00  0.00    +0.000 A 
ENDBRANCH  19  21
ENDBRANCH  15  16
ENDBRANCH  14  15
ENDBRANCH   2  14
TORSDOF 6
ENDMDL
MODEL 9
REMARK VINA RESULT:      -7.9      1.058      1.170
REMARK  Name = 
REMARK  6 active torsions:
REMARK  status: ('A' for Active; 'I' for Inactive)
REMARK    1  A    between atoms: C_2  and  O_3
REMARK    2  A    between atoms: C_2  and  C_16
REMARK    3  A    between atoms: O_3  and  C_4
REMARK    4  A    between atoms: C_4  and  C_5
REMARK    5  A    between atoms: C_8  and  C_9
REMARK    6  A    between atoms: C_20  and  N_21
REMARK                            x       y       z     vdW  Elec       q    Type
REMARK                         _______ _______ _______ _____ _____    ______ ____
ROOT
ATOM      1  O   UNL     1       3.658   4.840  20.514  0.00  0.00    +0.000 OA
ATOM      2  C   UNL     1       3.009   5.205  19.548  0.00  0.00    +0.000 C 
ENDROOT
BRANCH   2   3
ATOM      3  C   UNL     1       2.489   6.592  19.384  0.00  0.00    +0.000 A 
ATOM      4  C   UNL     1       2.606   7.188  18.118  0.00  0.00    +0.000 A 
ATOM      5  C   UNL     1       2.117   8.476  17.897  0.00  0.00    +0.000 A 
ATOM      6  C   UNL     1       1.500   9.177  18.935  0.00  0.00    +0.000 A 
ATOM      7  C   UNL     1       1.365   8.589  20.202  0.00  0.00    +0.000 A 
ATOM      8  C   UNL     1       1.868   7.297  20.427  0.00  0.00    +0.000 A 
BRANCH   7   9
ATOM      9  N   UNL     1       0.710   9.308  21.232  0.00  0.00    +0.000 N 
ATOM     10  C   UNL     1       0.928   9.291  22.587  0.00  0.00    +0.000 A 
ATOM     11  N   UNL     1       0.070  10.092  23.178  0.00  0.00    +0.000 NA
ATOM     12  N   UNL     1      -0.692  10.623  22.173  0.00  0.00    +0.000 NA
ATOM     13  N   UNL     1      -0.313  10.159  20.991  0.00  0.00    +0.000 NA
ENDBRANCH   7   9
ENDBRANCH   2   3
BRANCH   2  14
ATOM     14  O   UNL     1       2.688   4.437  18.478  0.00  0.00    +0.000 OA
BRANCH  14  15
ATOM     15  C   UNL     1       3.633   3.395  18.168  0.00  0.00    +0.000 C 
BRANCH  15  16
ATOM     16  C   UNL     1       4.781   3.967  17.427  0.00  0.00    +0.000 A 
ATOM     17  N   UNL     1       5.823   4.628  17.888  0.00  0.00    +0.000 NA
ATOM     18  N   UNL     1       6.630   4.886  16.799  0.00  0.00    +0.000 NA
ATOM     19  C   UNL     1       6.024   4.370  15.747  0.00  0.00    +0.000 A 
ATOM     20  O   UNL     1       4.841   3.757  16.075  0.00  0.00    +0.000 OA
BRANCH  19  21
ATOM     21  C   UNL     1       6.417   4.385  14.343  0.00  0.00    +0.000 A 
ATOM     22  C   UNL     1       5.780   3.522  13.437  0.00  0.00    +0.000 A 
ATOM     23  C   UNL     1       6.171   3.468  12.097  0.00  0.00    +0.000 A 
ATOM     24  C   UNL     1       7.206   4.282  11.643  0.00  0.00    +0.000 A 
ATOM     25  C   UNL     1       7.836   5.160  12.523  0.00  0.00    +0.000 A 
ATOM     26  C   UNL     1       7.443   5.215  13.863  0.00  0.00    +0.000 A 
ENDBRANCH  19  21
ENDBRANCH  15  16
ENDBRANCH  14  15
ENDBRANCH   2  14
TORSDOF 6
ENDMDL
