MODEL 1
REMARK VINA RESULT:      -7.3      0.000      0.000
REMARK  Name = 
REMARK  6 active torsions:
REMARK  status: ('A' for Active; 'I' for Inactive)
REMARK    1  A    between atoms: C_1  and  C_2
REMARK    2  A    between atoms: C_4  and  C_5
REMARK    3  A    between atoms: C_10  and  C_12
REMARK    4  A    between atoms: C_12  and  C_13
REMARK    5  A    between atoms: C_13  and  C_14
REMARK    6  A    between atoms: C_14  and  N_15
REMARK                            x       y       z     vdW  Elec       q    Type
REMARK                         _______ _______ _______ _____ _____    ______ ____
ROOT
ATOM      1  C   UNL     1       2.433   4.337  18.222  0.00  0.00    +0.000 C 
ATOM      2  C   UNL     1       1.073   3.670  18.450  0.00  0.00    +0.000 C 
ATOM      3  C   UNL     1       1.410   2.188  18.471  0.00  0.00    +0.000 C 
ATOM      4  C   UNL     1       2.800   2.132  19.090  0.00  0.00    +0.000 C 
ATOM      5  N   UNL     1       3.333   3.484  19.020  0.00  0.00    +0.000 N 
ATOM      6  C   UNL     1       4.621   3.692  19.462  0.00  0.00    +0.000 C 
ATOM      7  O   UNL     1       5.265   2.770  19.973  0.00  0.00    +0.000 OA
ENDROOT
BRANCH   1  11
ATOM      8  C   UNL     1       2.268   9.281  17.989  0.00  0.00    +0.000 C 
ATOM      9  C   UNL     1       2.351   7.865  18.383  0.00  0.00    +0.000 A 
ATOM     10  N   UNL     1       2.566   6.794  17.651  0.00  0.00    +0.000 NA
ATOM     11  C   UNL     1       2.406   5.784  18.569  0.00  0.00    +0.000 A 
ATOM     12  N   UNL     1       2.158   6.199  19.820  0.00  0.00    +0.000 NA
ATOM     13  O   UNL     1       2.112   7.586  19.698  0.00  0.00    +0.000 OA
ENDBRANCH   1  11
BRANCH   6  14
ATOM     14  C   UNL     1       5.228   5.080  19.345  0.00  0.00    +0.000 C 
BRANCH  14  15
ATOM     15  C   UNL     1       6.511   5.114  18.512  0.00  0.00    +0.000 C 
BRANCH  15  16
ATOM     16  C   UNL     1       6.419   6.083  17.337  0.00  0.00    +0.000 C 
BRANCH  16  17
ATOM     17  N   UNL     1       6.364   5.384  16.066  0.00  0.00    +0.000 N 
ATOM     18  C   UNL     1       5.342   4.599  15.614  0.00  0.00    +0.000 A 
ATOM     19  C   UNL     1       5.709   4.187  14.356  0.00  0.00    +0.000 A 
ATOM     20  C   UNL     1       6.973   4.771  14.146  0.00  0.00    +0.000 A 
ATOM     21  N   UNL     1       7.379   5.496  15.190  0.00  0.00    +0.000 NA
ENDBRANCH  16  17
ENDBRANCH  15  16
ENDBRANCH  14  15
ENDBRANCH   6  14
TORSDOF 5
ENDMDL
MODEL 2
REMARK VINA RESULT:      -7.0      1.019      1.068
REMARK  Name = 
REMARK  6 active torsions:
REMARK  status: ('A' for Active; 'I' for Inactive)
REMARK    1  A    between atoms: C_1  and  C_2
REMARK    2  A    between atoms: C_4  and  C_5
REMARK    3  A    between atoms: C_10  and  C_12
REMARK    4  A    between atoms: C_12  and  C_13
REMARK    5  A    between atoms: C_13  and  C_14
REMARK    6  A    between atoms: C_14  and  N_15
REMARK                            x       y       z     vdW  Elec       q    Type
REMARK                         _______ _______ _______ _____ _____    ______ ____
ROOT
ATOM      1  C   UNL     1       2.038   4.635  19.369  0.00  0.00    +0.000 C 
ATOM      2  C   UNL     1       1.089   4.202  20.491  0.00  0.00    +0.000 C 
ATOM      3  C   UNL     1       1.460   2.745  20.720  0.00  0.00    +0.000 C 
ATOM      4  C   UNL     1       2.956   2.695  20.441  0.00  0.00    +0.000 C 
ATOM      5  N   UNL     1       3.278   3.918  19.720  0.00  0.00    +0.000 N 
ATOM      6  C   UNL     1       4.575   4.088  19.288  0.00  0.00    +0.000 C 
ATOM      7  O   UNL     1       5.445   3.261  19.577  0.00  0.00    +0.000 OA
ENDROOT
BRANCH   1  11
ATOM      8  C   UNL     1       2.101   9.288  17.677  0.00  0.00    +0.000 C 
ATOM      9  C   UNL     1       2.161   8.048  18.467  0.00  0.00    +0.000 A 
ATOM     10  N   UNL     1       2.221   6.795  18.074  0.00  0.00    +0.000 NA
ATOM     11  C   UNL     1       2.132   6.117  19.265  0.00  0.00    +0.000 A 
ATOM     12  N   UNL     1       2.072   6.899  20.352  0.00  0.00    +0.000 NA
ATOM     13  O   UNL     1       2.083   8.189  19.824  0.00  0.00    +0.000 OA
ENDBRANCH   1  11
BRANCH   6  14
ATOM     14  C   UNL     1       4.929   5.326  18.481  0.00  0.00    +0.000 C 
BRANCH  14  15
ATOM     15  C   UNL     1       6.422   5.657  18.500  0.00  0.00    +0.000 C 
BRANCH  15  16
ATOM     16  C   UNL     1       7.261   4.627  17.751  0.00  0.00    +0.000 C 
BRANCH  16  17
ATOM     17  N   UNL     1       6.915   4.574  16.342  0.00  0.00    +0.000 N 
ATOM     18  C   UNL     1       6.003   3.740  15.760  0.00  0.00    +0.000 A 
ATOM     19  C   UNL     1       5.982   4.076  14.427  0.00  0.00    +0.000 A 
ATOM     20  C   UNL     1       6.923   5.115  14.308  0.00  0.00    +0.000 A 
ATOM     21  N   UNL     1       7.500   5.417  15.472  0.00  0.00    +0.000 NA
ENDBRANCH  16  17
ENDBRANCH  15  16
ENDBRANCH  14  15
ENDBRANCH   6  14
TORSDOF 5
ENDMDL
MODEL 3
REMARK VINA RESULT:      -6.9      2.143      5.911
REMARK  Name = 
REMARK  6 active torsions:
REMARK  status: ('A' for Active; 'I' for Inactive)
REMARK    1  A    between atoms: C_1  and  C_2
REMARK    2  A    between atoms: C_4  and  C_5
REMARK    3  A    between atoms: C_10  and  C_12
REMARK    4  A    between atoms: C_12  and  C_13
REMARK    5  A    between atoms: C_13  and  C_14
REMARK    6  A    between atoms: C_14  and  N_15
REMARK                            x       y       z     vdW  Elec       q    Type
REMARK                         _______ _______ _______ _____ _____    ______ ____
ROOT
ATOM      1  C   UNL     1       6.358   6.112  17.436  0.00  0.00    +0.000 C 
ATOM      2  C   UNL     1       7.809   6.555  17.655  0.00  0.00    +0.000 C 
ATOM      3  C   UNL     1       7.965   6.506  19.166  0.00  0.00    +0.000 C 
ATOM      4  C   UNL     1       7.074   5.347  19.594  0.00  0.00    +0.000 C 
ATOM      5  N   UNL     1       6.195   5.071  18.467  0.00  0.00    +0.000 N 
ATOM      6  C   UNL     1       5.236   4.094  18.624  0.00  0.00    +0.000 C 
ATOM      7  O   UNL     1       5.184   3.427  19.662  0.00  0.00    +0.000 OA
ENDROOT
BRANCH   1  11
ATOM      8  C   UNL     1       6.222   3.598  13.172  0.00  0.00    +0.000 C 
ATOM      9  C   UNL     1       6.115   4.582  14.262  0.00  0.00    +0.000 A 
ATOM     10  N   UNL     1       6.717   4.620  15.430  0.00  0.00    +0.000 NA
ATOM     11  C   UNL     1       6.112   5.699  16.028  0.00  0.00    +0.000 A 
ATOM     12  N   UNL     1       5.218   6.337  15.259  0.00  0.00    +0.000 NA
ATOM     13  O   UNL     1       5.210   5.589  14.083  0.00  0.00    +0.000 OA
ENDBRANCH   1  11
BRANCH   6  14
ATOM     14  C   UNL     1       4.264   3.824  17.488  0.00  0.00    +0.000 C 
BRANCH  14  15
ATOM     15  C   UNL     1       2.996   4.677  17.558  0.00  0.00    +0.000 C 
BRANCH  15  16
ATOM     16  C   UNL     1       1.777   3.878  18.011  0.00  0.00    +0.000 C 
BRANCH  16  17
ATOM     17  N   UNL     1       1.817   3.597  19.434  0.00  0.00    +0.000 N 
ATOM     18  C   UNL     1       1.701   2.371  20.024  0.00  0.00    +0.000 A 
ATOM     19  C   UNL     1       1.840   2.586  21.375  0.00  0.00    +0.000 A 
ATOM     20  C   UNL     1       2.025   3.976  21.495  0.00  0.00    +0.000 A 
ATOM     21  N   UNL     1       2.005   4.598  20.314  0.00  0.00    +0.000 NA
ENDBRANCH  16  17
ENDBRANCH  15  16
ENDBRANCH  14  15
ENDBRANCH   6  14
TORSDOF 5
ENDMDL
MODEL 4
REMARK VINA RESULT:      -6.9      2.241      5.481
REMARK  Name = 
REMARK  6 active torsions:
REMARK  status: ('A' for Active; 'I' for Inactive)
REMARK    1  A    between atoms: C_1  and  C_2
REMARK    2  A    between atoms: C_4  and  C_5
REMARK    3  A    between atoms: C_10  and  C_12
REMARK    4  A    between atoms: C_12  and  C_13
REMARK    5  A    between atoms: C_13  and  C_14
REMARK    6  A    between atoms: C_14  and  N_15
REMARK                            x       y       z     vdW  Elec       q    Type
REMARK                         _______ _______ _______ _____ _____    ______ ____
ROOT
ATOM      1  C   UNL     1       6.813   4.703  16.361  0.00  0.00    +0.000 C 
ATOM      2  C   UNL     1       7.240   4.794  14.892  0.00  0.00    +0.000 C 
ATOM      3  C   UNL     1       6.243   3.893  14.182  0.00  0.00    +0.000 C 
ATOM      4  C   UNL     1       4.958   4.055  14.984  0.00  0.00    +0.000 C 
ATOM      5  N   UNL     1       5.343   4.657  16.253  0.00  0.00    +0.000 N 
ATOM      6  C   UNL     1       4.359   4.852  17.197  0.00  0.00    +0.000 C 
ATOM      7  O   UNL     1       3.180   4.594  16.936  0.00  0.00    +0.000 OA
ENDROOT
BRANCH   1  11
ATOM      8  C   UNL     1       8.167   9.157  18.046  0.00  0.00    +0.000 C 
ATOM      9  C   UNL     1       7.936   7.724  17.806  0.00  0.00    +0.000 A 
ATOM     10  N   UNL     1       7.497   7.106  16.732  0.00  0.00    +0.000 NA
ATOM     11  C   UNL     1       7.387   5.809  17.174  0.00  0.00    +0.000 A 
ATOM     12  N   UNL     1       7.787   5.613  18.439  0.00  0.00    +0.000 NA
ATOM     13  O   UNL     1       8.145   6.890  18.867  0.00  0.00    +0.000 OA
ENDBRANCH   1  11
BRANCH   6  14
ATOM     14  C   UNL     1       4.739   5.421  18.554  0.00  0.00    +0.000 C 
BRANCH  14  15
ATOM     15  C   UNL     1       3.532   5.822  19.404  0.00  0.00    +0.000 C 
BRANCH  15  16
ATOM     16  C   UNL     1       3.190   4.778  20.463  0.00  0.00    +0.000 C 
BRANCH  16  17
ATOM     17  N   UNL     1       2.369   3.711  19.919  0.00  0.00    +0.000 N 
ATOM     18  C   UNL     1       1.036   3.777  19.629  0.00  0.00    +0.000 A 
ATOM     19  C   UNL     1       0.703   2.553  19.102  0.00  0.00    +0.000 A 
ATOM     20  C   UNL     1       1.902   1.817  19.126  0.00  0.00    +0.000 A 
ATOM     21  N   UNL     1       2.920   2.517  19.631  0.00  0.00    +0.000 NA
ENDBRANCH  16  17
ENDBRANCH  15  16
ENDBRANCH  14  15
ENDBRANCH   6  14
TORSDOF 5
ENDMDL
MODEL 5
REMARK VINA RESULT:      -6.8      1.896      4.926
REMARK  Name = 
REMARK  6 active torsions:
REMARK  status: ('A' for Active; 'I' for Inactive)
REMARK    1  A    between atoms: C_1  and  C_2
REMARK    2  A    between atoms: C_4  and  C_5
REMARK    3  A    between atoms: C_10  and  C_12
REMARK    4  A    between atoms: C_12  and  C_13
REMARK    5  A    between atoms: C_13  and  C_14
REMARK    6  A    between atoms: C_14  and  N_15
REMARK                            x       y       z     vdW  Elec       q    Type
REMARK                         _______ _______ _______ _____ _____    ______ ____
ROOT
ATOM      1  C   UNL     1       5.557   5.205  18.762  0.00  0.00    +0.000 C 
ATOM      2  C   UNL     1       6.815   6.054  18.972  0.00  0.00    +0.000 C 
ATOM      3  C   UNL     1       7.927   5.170  18.432  0.00  0.00    +0.000 C 
ATOM      4  C   UNL     1       7.272   4.406  17.289  0.00  0.00    +0.000 C 
ATOM      5  N   UNL     1       5.836   4.554  17.469  0.00  0.00    +0.000 N 
ATOM      6  C   UNL     1       5.005   3.894  16.590  0.00  0.00    +0.000 C 
ATOM      7  O   UNL     1       5.474   3.264  15.638  0.00  0.00    +0.000 OA
ENDROOT
BRANCH   1  11
ATOM      8  C   UNL     1       1.878   8.372  17.783  0.00  0.00    +0.000 C 
ATOM      9  C   UNL     1       2.813   7.393  18.362  0.00  0.00    +0.000 A 
ATOM     10  N   UNL     1       4.030   7.064  17.991  0.00  0.00    +0.000 NA
ATOM     11  C   UNL     1       4.316   6.024  18.842  0.00  0.00    +0.000 A 
ATOM     12  N   UNL     1       3.354   5.750  19.735  0.00  0.00    +0.000 NA
ATOM     13  O   UNL     1       2.345   6.656  19.412  0.00  0.00    +0.000 OA
ENDBRANCH   1  11
BRANCH   6  14
ATOM     14  C   UNL     1       3.501   3.979  16.788  0.00  0.00    +0.000 C 
BRANCH  14  15
ATOM     15  C   UNL     1       2.859   2.640  17.155  0.00  0.00    +0.000 C 
BRANCH  15  16
ATOM     16  C   UNL     1       3.479   2.016  18.402  0.00  0.00    +0.000 C 
BRANCH  16  17
ATOM     17  N   UNL     1       2.754   2.384  19.604  0.00  0.00    +0.000 N 
ATOM     18  C   UNL     1       1.418   2.653  19.698  0.00  0.00    +0.000 A 
ATOM     19  C   UNL     1       1.177   2.910  21.026  0.00  0.00    +0.000 A 
ATOM     20  C   UNL     1       2.433   2.780  21.647  0.00  0.00    +0.000 A 
ATOM     21  N   UNL     1       3.400   2.466  20.782  0.00  0.00    +0.000 NA
ENDBRANCH  16  17
ENDBRANCH  15  16
ENDBRANCH  14  15
ENDBRANCH   6  14
TORSDOF 5
ENDMDL
MODEL 6
REMARK VINA RESULT:      -6.8      1.030      1.308
REMARK  Name = 
REMARK  6 active torsions:
REMARK  status: ('A' for Active; 'I' for Inactive)
REMARK    1  A    between atoms: C_1  and  C_2
REMARK    2  A    between atoms: C_4  and  C_5
REMARK    3  A    between atoms: C_10  and  C_12
REMARK    4  A    between atoms: C_12  and  C_13
REMARK    5  A    between atoms: C_13  and  C_14
REMARK    6  A    between atoms: C_14  and  N_15
REMARK                            x       y       z     vdW  Elec       q    Type
REMARK                         _______ _______ _______ _____ _____    ______ ____
ROOT
ATOM      1  C   UNL     1       2.269   4.391  18.370  0.00  0.00    +0.000 C 
ATOM      2  C   UNL     1       1.013   3.552  18.626  0.00  0.00    +0.000 C 
ATOM      3  C   UNL     1       1.502   2.125  18.439  0.00  0.00    +0.000 C 
ATOM      4  C   UNL     1       2.943   2.159  18.931  0.00  0.00    +0.000 C 
ATOM      5  N   UNL     1       3.324   3.562  18.982  0.00  0.00    +0.000 N 
ATOM      6  C   UNL     1       4.620   3.864  19.339  0.00  0.00    +0.000 C 
ATOM      7  O   UNL     1       5.401   2.971  19.680  0.00  0.00    +0.000 OA
ENDROOT
BRANCH   1  11
ATOM      8  C   UNL     1       1.666   8.325  21.315  0.00  0.00    +0.000 C 
ATOM      9  C   UNL     1       1.846   7.383  20.199  0.00  0.00    +0.000 A 
ATOM     10  N   UNL     1       1.701   6.077  20.162  0.00  0.00    +0.000 NA
ATOM     11  C   UNL     1       2.126   5.778  18.891  0.00  0.00    +0.000 A 
ATOM     12  N   UNL     1       2.468   6.842  18.150  0.00  0.00    +0.000 NA
ATOM     13  O   UNL     1       2.291   7.914  19.023  0.00  0.00    +0.000 OA
ENDBRANCH   1  11
BRANCH   6  14
ATOM     14  C   UNL     1       5.067   5.317  19.342  0.00  0.00    +0.000 C 
BRANCH  14  15
ATOM     15  C   UNL     1       6.579   5.488  19.192  0.00  0.00    +0.000 C 
BRANCH  15  16
ATOM     16  C   UNL     1       6.955   6.340  17.984  0.00  0.00    +0.000 C 
BRANCH  16  17
ATOM     17  N   UNL     1       6.611   5.685  16.735  0.00  0.00    +0.000 N 
ATOM     18  C   UNL     1       5.513   5.934  15.962  0.00  0.00    +0.000 A 
ATOM     19  C   UNL     1       5.628   5.112  14.867  0.00  0.00    +0.000 A 
ATOM     20  C   UNL     1       6.823   4.401  15.080  0.00  0.00    +0.000 A 
ATOM     21  N   UNL     1       7.423   4.742  16.223  0.00  0.00    +0.000 NA
ENDBRANCH  16  17
ENDBRANCH  15  16
ENDBRANCH  14  15
ENDBRANCH   6  14
TORSDOF 5
ENDMDL
MODEL 7
REMARK VINA RESULT:      -6.8      1.654      2.442
REMARK  Name = 
REMARK  6 active torsions:
REMARK  status: ('A' for Active; 'I' for Inactive)
REMARK    1  A    between atoms: C_1  and  C_2
REMARK    2  A    between atoms: C_4  and  C_5
REMARK    3  A    between atoms: C_10  and  C_12
REMARK    4  A    between atoms: C_12  and  C_13
REMARK    5  A    between atoms: C_13  and  C_14
REMARK    6  A    between atoms: C_14  and  N_15
REMARK                            x       y       z     vdW  Elec       q    Type
REMARK                         _______ _______ _______ _____ _____    ______ ____
ROOT
ATOM      1  C   UNL     1       1.721   4.259  19.450  0.00  0.00    +0.000 C 
ATOM      2  C   UNL     1       1.533   4.190  20.969  0.00  0.00    +0.000 C 
ATOM      3  C   UNL     1       1.306   2.709  21.226  0.00  0.00    +0.000 C 
ATOM      4  C   UNL     1       2.158   2.014  20.173  0.00  0.00    +0.000 C 
ATOM      5  N   UNL     1       2.481   3.025  19.177  0.00  0.00    +0.000 N 
ATOM      6  C   UNL     1       3.200   2.631  18.070  0.00  0.00    +0.000 C 
ATOM      7  O   UNL     1       3.621   1.474  17.975  0.00  0.00    +0.000 OA
ENDROOT
BRANCH   1  11
ATOM      8  C   UNL     1       2.540   8.765  17.569  0.00  0.00    +0.000 C 
ATOM      9  C   UNL     1       2.620   7.434  18.192  0.00  0.00    +0.000 A 
ATOM     10  N   UNL     1       1.765   6.437  18.172  0.00  0.00    +0.000 NA
ATOM     11  C   UNL     1       2.354   5.538  19.028  0.00  0.00    +0.000 A 
ATOM     12  N   UNL     1       3.541   5.926  19.517  0.00  0.00    +0.000 NA
ATOM     13  O   UNL     1       3.718   7.195  18.969  0.00  0.00    +0.000 OA
ENDBRANCH   1  11
BRANCH   6  14
ATOM     14  C   UNL     1       3.500   3.649  16.983  0.00  0.00    +0.000 C 
BRANCH  14  15
ATOM     15  C   UNL     1       4.993   3.934  16.812  0.00  0.00    +0.000 C 
BRANCH  15  16
ATOM     16  C   UNL     1       5.264   5.341  16.288  0.00  0.00    +0.000 C 
BRANCH  16  17
ATOM     17  N   UNL     1       6.282   6.020  17.070  0.00  0.00    +0.000 N 
ATOM     18  C   UNL     1       6.949   5.514  18.150  0.00  0.00    +0.000 A 
ATOM     19  C   UNL     1       7.838   6.489  18.535  0.00  0.00    +0.000 A 
ATOM     20  C   UNL     1       7.621   7.545  17.630  0.00  0.00    +0.000 A 
ATOM     21  N   UNL     1       6.667   7.266  16.739  0.00  0.00    +0.000 NA
ENDBRANCH  16  17
ENDBRANCH  15  16
ENDBRANCH  14  15
ENDBRANCH   6  14
TORSDOF 5
ENDMDL
MODEL 8
REMARK VINA RESULT:      -6.7      2.589      5.714
REMARK  Name = 
REMARK  6 active torsions:
REMARK  status: ('A' for Active; 'I' for Inactive)
REMARK    1  A    between atoms: C_1  and  C_2
REMARK    2  A    between atoms: C_4  and  C_5
REMARK    3  A    between atoms: C_10  and  C_12
REMARK    4  A    between atoms: C_12  and  C_13
REMARK    5  A    between atoms: C_13  and  C_14
REMARK    6  A    between atoms: C_14  and  N_15
REMARK                            x       y       z     vdW  Elec       q    Type
REMARK                         _______ _______ _______ _____ _____    ______ ____
ROOT
ATOM      1  C   UNL     1       6.830   4.597  16.109  0.00  0.00    +0.000 C 
ATOM      2  C   UNL     1       7.229   4.822  14.647  0.00  0.00    +0.000 C 
ATOM      3  C   UNL     1       6.264   3.931  13.881  0.00  0.00    +0.000 C 
ATOM      4  C   UNL     1       4.987   3.968  14.709  0.00  0.00    +0.000 C 
ATOM      5  N   UNL     1       5.363   4.488  16.016  0.00  0.00    +0.000 N 
ATOM      6  C   UNL     1       4.386   4.560  16.985  0.00  0.00    +0.000 C 
ATOM      7  O   UNL     1       3.216   4.267  16.719  0.00  0.00    +0.000 OA
ENDROOT
BRANCH   1  11
ATOM      8  C   UNL     1       8.054   8.968  18.087  0.00  0.00    +0.000 C 
ATOM      9  C   UNL     1       7.858   7.547  17.757  0.00  0.00    +0.000 A 
ATOM     10  N   UNL     1       7.455   6.986  16.639  0.00  0.00    +0.000 NA
ATOM     11  C   UNL     1       7.364   5.664  17.000  0.00  0.00    +0.000 A 
ATOM     12  N   UNL     1       7.740   5.399  18.259  0.00  0.00    +0.000 NA
ATOM     13  O   UNL     1       8.063   6.655  18.771  0.00  0.00    +0.000 OA
ENDBRANCH   1  11
BRANCH   6  14
ATOM     14  C   UNL     1       4.759   5.040  18.377  0.00  0.00    +0.000 C 
BRANCH  14  15
ATOM     15  C   UNL     1       5.044   3.901  19.357  0.00  0.00    +0.000 C 
BRANCH  15  16
ATOM     16  C   UNL     1       4.127   2.701  19.141  0.00  0.00    +0.000 C 
BRANCH  16  17
ATOM     17  N   UNL     1       2.917   2.799  19.938  0.00  0.00    +0.000 N 
ATOM     18  C   UNL     1       2.836   2.761  21.301  0.00  0.00    +0.000 A 
ATOM     19  C   UNL     1       1.507   2.931  21.606  0.00  0.00    +0.000 A 
ATOM     20  C   UNL     1       0.869   3.052  20.357  0.00  0.00    +0.000 A 
ATOM     21  N   UNL     1       1.725   2.965  19.336  0.00  0.00    +0.000 NA
ENDBRANCH  16  17
ENDBRANCH  15  16
ENDBRANCH  14  15
ENDBRANCH   6  14
TORSDOF 5
ENDMDL
MODEL 9
REMARK VINA RESULT:      -6.6      2.388      6.115
REMARK  Name = 
REMARK  6 active torsions:
REMARK  status: ('A' for Active; 'I' for Inactive)
REMARK    1  A    between atoms: C_1  and  C_2
REMARK    2  A    between atoms: C_4  and  C_5
REMARK    3  A    between atoms: C_10  and  C_12
REMARK    4  A    between atoms: C_12  and  C_13
REMARK    5  A    between atoms: C_13  and  C_14
REMARK    6  A    between atoms: C_14  and  N_15
REMARK                            x       y       z     vdW  Elec       q    Type
REMARK                         _______ _______ _______ _____ _____    ______ ____
ROOT
ATOM      1  C   UNL     1       6.245   5.745  16.847  0.00  0.00    +0.000 C 
ATOM      2  C   UNL     1       7.585   6.456  17.066  0.00  0.00    +0.000 C 
ATOM      3  C   UNL     1       7.561   6.797  18.547  0.00  0.00    +0.000 C 
ATOM      4  C   UNL     1       6.790   5.647  19.181  0.00  0.00    +0.000 C 
ATOM      5  N   UNL     1       6.100   4.969  18.093  0.00  0.00    +0.000 N 
ATOM      6  C   UNL     1       5.270   3.917  18.414  0.00  0.00    +0.000 C 
ATOM      7  O   UNL     1       5.184   3.521  19.579  0.00  0.00    +0.000 OA
ENDROOT
BRANCH   1  11
ATOM      8  C   UNL     1       4.925   3.741  12.516  0.00  0.00    +0.000 C 
ATOM      9  C   UNL     1       5.589   4.152  13.763  0.00  0.00    +0.000 A 
ATOM     10  N   UNL     1       5.102   4.765  14.819  0.00  0.00    +0.000 NA
ATOM     11  C   UNL     1       6.230   4.971  15.576  0.00  0.00    +0.000 A 
ATOM     12  N   UNL     1       7.356   4.467  15.050  0.00  0.00    +0.000 NA
ATOM     13  O   UNL     1       6.934   3.927  13.837  0.00  0.00    +0.000 OA
ENDBRANCH   1  11
BRANCH   6  14
ATOM     14  C   UNL     1       4.489   3.229  17.308  0.00  0.00    +0.000 C 
BRANCH  14  15
ATOM     15  C   UNL     1       3.664   2.037  17.797  0.00  0.00    +0.000 C 
BRANCH  15  16
ATOM     16  C   UNL     1       2.173   2.351  17.879  0.00  0.00    +0.000 C 
BRANCH  16  17
ATOM     17  N   UNL     1       1.825   2.985  19.137  0.00  0.00    +0.000 N 
ATOM     18  C   UNL     1       1.558   4.310  19.333  0.00  0.00    +0.000 A 
ATOM     19  C   UNL     1       1.240   4.439  20.664  0.00  0.00    +0.000 A 
ATOM     20  C   UNL     1       1.353   3.136  21.184  0.00  0.00    +0.000 A 
ATOM     21  N   UNL     1       1.717   2.247  20.257  0.00  0.00    +0.000 NA
ENDBRANCH  16  17
ENDBRANCH  15  16
ENDBRANCH  14  15
ENDBRANCH   6  14
TORSDOF 5
ENDMDL
