MODEL 1
REMARK VINA RESULT:      -6.4      0.000      0.000
REMARK  Name = 
REMARK  7 active torsions:
REMARK  status: ('A' for Active; 'I' for Inactive)
REMARK    1  A    between atoms: C_1  and  O_2
REMARK    2  A    between atoms: O_2  and  C_3
REMARK    3  A    between atoms: C_3  and  C_5
REMARK    4  A    between atoms: C_8  and  S_9
REMARK    5  A    between atoms: S_9  and  N_12
REMARK    6  A    between atoms: C_18  and  O_19
REMARK    7  A    between atoms: O_19  and  C_20
REMARK                            x       y       z     vdW  Elec       q    Type
REMARK                         _______ _______ _______ _____ _____    ______ ____
ROOT
ATOM      1  C   UNL     1       5.743   5.352  17.208  0.00  0.00    +0.000 A 
ATOM      2  C   UNL     1       4.916   4.720  16.298  0.00  0.00    +0.000 A 
ATOM      3  S   UNL     1       3.937   3.536  17.006  0.00  0.00    +0.000 S 
ATOM      4  C   UNL     1       4.610   3.805  18.576  0.00  0.00    +0.000 A 
ATOM      5  C   UNL     1       5.467   4.894  18.554  0.00  0.00    +0.000 A 
ENDROOT
BRANCH   4   6
ATOM      6  S   UNL     1       4.019   2.601  19.740  0.00  0.00    +0.000 S 
ATOM      7  O   UNL     1       3.186   1.721  18.944  0.00  0.00    +0.000 OA
ATOM      8  O   UNL     1       5.223   2.104  20.378  0.00  0.00    +0.000 OA
BRANCH   6   9
ATOM      9  N   UNL     1       3.013   3.207  20.973  0.00  0.00    +0.000 NA
ATOM     10  C   UNL     1       1.691   2.546  21.214  0.00  0.00    +0.000 C 
ATOM     11  C   UNL     1       0.635   2.947  20.184  0.00  0.00    +0.000 C 
ATOM     12  O   UNL     1       0.483   4.371  20.108  0.00  0.00    +0.000 OA
ATOM     13  C   UNL     1       1.727   5.016  19.798  0.00  0.00    +0.000 C 
ATOM     14  C   UNL     1       2.787   4.695  20.862  0.00  0.00    +0.000 C 
ENDBRANCH   6   9
ENDBRANCH   4   6
BRANCH   1  15
ATOM     15  C   UNL     1       6.731   6.322  16.736  0.00  0.00    +0.000 C 
ATOM     16  O   UNL     1       7.690   6.000  16.031  0.00  0.00    +0.000 OA
BRANCH  15  18
ATOM     17  C   UNL     1       7.725   8.273  17.600  0.00  0.00    +0.000 C 
ATOM     18  O   UNL     1       6.534   7.579  17.213  0.00  0.00    +0.000 OA
ENDBRANCH  15  18
ENDBRANCH   1  15
BRANCH   5  19
ATOM     19  O   UNL     1       6.106   5.396  19.642  0.00  0.00    +0.000 OA
ATOM     20  C   UNL     1       7.524   5.233  19.611  0.00  0.00    +0.000 C 
ENDBRANCH   5  19
TORSDOF 5
ENDMDL
MODEL 2
REMARK VINA RESULT:      -6.1      3.344      6.213
REMARK  Name = 
REMARK  7 active torsions:
REMARK  status: ('A' for Active; 'I' for Inactive)
REMARK    1  A    between atoms: C_1  and  O_2
REMARK    2  A    between atoms: O_2  and  C_3
REMARK    3  A    between atoms: C_3  and  C_5
REMARK    4  A    between atoms: C_8  and  S_9
REMARK    5  A    between atoms: S_9  and  N_12
REMARK    6  A    between atoms: C_18  and  O_19
REMARK    7  A    between atoms: O_19  and  C_20
REMARK                            x       y       z     vdW  Elec       q    Type
REMARK                         _______ _______ _______ _____ _____    ______ ____
ROOT
ATOM      1  C   UNL     1       1.660   8.098  19.872  0.00  0.00    +0.000 A 
ATOM      2  C   UNL     1       1.882   8.783  18.691  0.00  0.00    +0.000 A 
ATOM      3  S   UNL     1       2.890   7.946  17.621  0.00  0.00    +0.000 S 
ATOM      4  C   UNL     1       3.097   6.628  18.720  0.00  0.00    +0.000 A 
ATOM      5  C   UNL     1       2.275   6.787  19.825  0.00  0.00    +0.000 A 
ENDROOT
BRANCH   4   6
ATOM      6  S   UNL     1       4.306   5.476  18.118  0.00  0.00    +0.000 S 
ATOM      7  O   UNL     1       4.944   4.974  19.320  0.00  0.00    +0.000 OA
ATOM      8  O   UNL     1       3.551   4.588  17.255  0.00  0.00    +0.000 OA
BRANCH   6   9
ATOM      9  N   UNL     1       5.553   6.150  17.175  0.00  0.00    +0.000 NA
ATOM     10  C   UNL     1       5.765   5.634  15.785  0.00  0.00    +0.000 C 
ATOM     11  C   UNL     1       6.499   4.293  15.760  0.00  0.00    +0.000 C 
ATOM     12  O   UNL     1       7.743   4.356  16.472  0.00  0.00    +0.000 OA
ATOM     13  C   UNL     1       7.548   4.774  17.831  0.00  0.00    +0.000 C 
ATOM     14  C   UNL     1       6.884   6.157  17.887  0.00  0.00    +0.000 C 
ENDBRANCH   6   9
ENDBRANCH   4   6
BRANCH   1  15
ATOM     15  C   UNL     1       0.901   8.736  20.947  0.00  0.00    +0.000 C 
ATOM     16  O   UNL     1       1.219   8.631  22.134  0.00  0.00    +0.000 OA
BRANCH  15  18
ATOM     17  C   UNL     1      -0.584  10.530  21.286  0.00  0.00    +0.000 C 
ATOM     18  O   UNL     1      -0.217   9.377  20.521  0.00  0.00    +0.000 OA
ENDBRANCH  15  18
ENDBRANCH   1  15
BRANCH   5  19
ATOM     19  O   UNL     1       2.162   5.891  20.839  0.00  0.00    +0.000 OA
ATOM     20  C   UNL     1       1.412   4.724  20.504  0.00  0.00    +0.000 C 
ENDBRANCH   5  19
TORSDOF 5
ENDMDL
MODEL 3
REMARK VINA RESULT:      -6.1      2.028      2.817
REMARK  Name = 
REMARK  7 active torsions:
REMARK  status: ('A' for Active; 'I' for Inactive)
REMARK    1  A    between atoms: C_1  and  O_2
REMARK    2  A    between atoms: O_2  and  C_3
REMARK    3  A    between atoms: C_3  and  C_5
REMARK    4  A    between atoms: C_8  and  S_9
REMARK    5  A    between atoms: S_9  and  N_12
REMARK    6  A    between atoms: C_18  and  O_19
REMARK    7  A    between atoms: O_19  and  C_20
REMARK                            x       y       z     vdW  Elec       q    Type
REMARK                         _______ _______ _______ _____ _____    ______ ____
ROOT
ATOM      1  C   UNL     1       5.784   6.218  17.348  0.00  0.00    +0.000 A 
ATOM      2  C   UNL     1       4.838   7.069  16.807  0.00  0.00    +0.000 A 
ATOM      3  S   UNL     1       3.371   7.047  17.649  0.00  0.00    +0.000 S 
ATOM      4  C   UNL     1       3.940   5.860  18.770  0.00  0.00    +0.000 A 
ATOM      5  C   UNL     1       5.288   5.611  18.566  0.00  0.00    +0.000 A 
ENDROOT
BRANCH   4   6
ATOM      6  S   UNL     1       2.630   5.305  19.833  0.00  0.00    +0.000 S 
ATOM      7  O   UNL     1       3.286   4.396  20.754  0.00  0.00    +0.000 OA
ATOM      8  O   UNL     1       2.019   6.530  20.312  0.00  0.00    +0.000 OA
BRANCH   6   9
ATOM      9  N   UNL     1       1.406   4.397  19.074  0.00  0.00    +0.000 NA
ATOM     10  C   UNL     1       0.965   3.113  19.705  0.00  0.00    +0.000 C 
ATOM     11  C   UNL     1       1.942   1.966  19.453  0.00  0.00    +0.000 C 
ATOM     12  O   UNL     1       2.194   1.781  18.054  0.00  0.00    +0.000 OA
ATOM     13  C   UNL     1       2.694   2.983  17.448  0.00  0.00    +0.000 C 
ATOM     14  C   UNL     1       1.694   4.136  17.616  0.00  0.00    +0.000 C 
ENDBRANCH   6   9
ENDBRANCH   4   6
BRANCH   1  15
ATOM     15  C   UNL     1       7.067   6.037  16.670  0.00  0.00    +0.000 C 
ATOM     16  O   UNL     1       7.847   6.971  16.469  0.00  0.00    +0.000 OA
BRANCH  15  18
ATOM     17  C   UNL     1       6.709   4.487  14.936  0.00  0.00    +0.000 C 
ATOM     18  O   UNL     1       7.274   4.773  16.219  0.00  0.00    +0.000 OA
ENDBRANCH  15  18
ENDBRANCH   1  15
BRANCH   5  19
ATOM     19  O   UNL     1       6.041   4.773  19.324  0.00  0.00    +0.000 OA
ATOM     20  C   UNL     1       7.263   5.347  19.787  0.00  0.00    +0.000 C 
ENDBRANCH   5  19
TORSDOF 5
ENDMDL
MODEL 4
REMARK VINA RESULT:      -6.1      0.691      1.053
REMARK  Name = 
REMARK  7 active torsions:
REMARK  status: ('A' for Active; 'I' for Inactive)
REMARK    1  A    between atoms: C_1  and  O_2
REMARK    2  A    between atoms: O_2  and  C_3
REMARK    3  A    between atoms: C_3  and  C_5
REMARK    4  A    between atoms: C_8  and  S_9
REMARK    5  A    between atoms: S_9  and  N_12
REMARK    6  A    between atoms: C_18  and  O_19
REMARK    7  A    between atoms: O_19  and  C_20
REMARK                            x       y       z     vdW  Elec       q    Type
REMARK                         _______ _______ _______ _____ _____    ______ ____
ROOT
ATOM      1  C   UNL     1       5.666   5.261  17.109  0.00  0.00    +0.000 A 
ATOM      2  C   UNL     1       4.981   4.605  16.103  0.00  0.00    +0.000 A 
ATOM      3  S   UNL     1       4.028   3.330  16.675  0.00  0.00    +0.000 S 
ATOM      4  C   UNL     1       4.522   3.588  18.311  0.00  0.00    +0.000 A 
ATOM      5  C   UNL     1       5.294   4.736  18.407  0.00  0.00    +0.000 A 
ENDROOT
BRANCH   4   6
ATOM      6  S   UNL     1       3.911   2.304  19.375  0.00  0.00    +0.000 S 
ATOM      7  O   UNL     1       3.844   1.138  18.515  0.00  0.00    +0.000 OA
ATOM      8  O   UNL     1       4.806   2.333  20.515  0.00  0.00    +0.000 OA
BRANCH   6   9
ATOM      9  N   UNL     1       2.333   2.536  19.970  0.00  0.00    +0.000 NA
ATOM     10  C   UNL     1       1.335   3.246  19.109  0.00  0.00    +0.000 C 
ATOM     11  C   UNL     1       1.532   4.761  19.103  0.00  0.00    +0.000 C 
ATOM     12  O   UNL     1       1.529   5.301  20.432  0.00  0.00    +0.000 OA
ATOM     13  C   UNL     1       2.536   4.686  21.250  0.00  0.00    +0.000 C 
ATOM     14  C   UNL     1       2.314   3.170  21.340  0.00  0.00    +0.000 C 
ENDBRANCH   6   9
ENDBRANCH   4   6
BRANCH   1  15
ATOM     15  C   UNL     1       6.621   6.315  16.767  0.00  0.00    +0.000 C 
ATOM     16  O   UNL     1       7.589   6.117  16.030  0.00  0.00    +0.000 OA
BRANCH  15  18
ATOM     17  C   UNL     1       7.541   8.302  17.629  0.00  0.00    +0.000 C 
ATOM     18  O   UNL     1       6.383   7.494  17.398  0.00  0.00    +0.000 OA
ENDBRANCH  15  18
ENDBRANCH   1  15
BRANCH   5  19
ATOM     19  O   UNL     1       5.784   5.242  19.568  0.00  0.00    +0.000 OA
ATOM     20  C   UNL     1       7.209   5.205  19.663  0.00  0.00    +0.000 C 
ENDBRANCH   5  19
TORSDOF 5
ENDMDL
MODEL 5
REMARK VINA RESULT:      -6.1      1.930      2.826
REMARK  Name = 
REMARK  7 active torsions:
REMARK  status: ('A' for Active; 'I' for Inactive)
REMARK    1  A    between atoms: C_1  and  O_2
REMARK    2  A    between atoms: O_2  and  C_3
REMARK    3  A    between atoms: C_3  and  C_5
REMARK    4  A    between atoms: C_8  and  S_9
REMARK    5  A    between atoms: S_9  and  N_12
REMARK    6  A    between atoms: C_18  and  O_19
REMARK    7  A    between atoms: O_19  and  C_20
REMARK                            x       y       z     vdW  Elec       q    Type
REMARK                         _______ _______ _______ _____ _____    ______ ____
ROOT
ATOM      1  C   UNL     1       5.603   5.678  17.274  0.00  0.00    +0.000 A 
ATOM      2  C   UNL     1       5.658   4.470  16.603  0.00  0.00    +0.000 A 
ATOM      3  S   UNL     1       4.233   3.570  16.744  0.00  0.00    +0.000 S 
ATOM      4  C   UNL     1       3.484   4.763  17.747  0.00  0.00    +0.000 A 
ATOM      5  C   UNL     1       4.284   5.891  17.835  0.00  0.00    +0.000 A 
ENDROOT
BRANCH   4   6
ATOM      6  S   UNL     1       1.927   4.185  18.376  0.00  0.00    +0.000 S 
ATOM      7  O   UNL     1       1.629   5.094  19.466  0.00  0.00    +0.000 OA
ATOM      8  O   UNL     1       1.073   4.126  17.206  0.00  0.00    +0.000 OA
BRANCH   6   9
ATOM      9  N   UNL     1       1.947   2.626  19.061  0.00  0.00    +0.000 NA
ATOM     10  C   UNL     1       1.051   2.339  20.225  0.00  0.00    +0.000 C 
ATOM     11  C   UNL     1       1.592   2.900  21.539  0.00  0.00    +0.000 C 
ATOM     12  O   UNL     1       2.926   2.443  21.802  0.00  0.00    +0.000 OA
ATOM     13  C   UNL     1       3.818   2.780  20.729  0.00  0.00    +0.000 C 
ATOM     14  C   UNL     1       3.341   2.160  19.408  0.00  0.00    +0.000 C 
ENDBRANCH   6   9
ENDBRANCH   4   6
BRANCH   1  15
ATOM     15  C   UNL     1       6.795   6.522  17.343  0.00  0.00    +0.000 C 
ATOM     16  O   UNL     1       6.851   7.632  16.808  0.00  0.00    +0.000 OA
BRANCH  15  18
ATOM     17  C   UNL     1       7.692   5.784  19.390  0.00  0.00    +0.000 C 
ATOM     18  O   UNL     1       7.845   5.937  17.975  0.00  0.00    +0.000 OA
ENDBRANCH  15  18
ENDBRANCH   1  15
BRANCH   5  19
ATOM     19  O   UNL     1       3.949   7.026  18.500  0.00  0.00    +0.000 OA
ATOM     20  C   UNL     1       3.033   7.865  17.795  0.00  0.00    +0.000 C 
ENDBRANCH   5  19
TORSDOF 5
ENDMDL
MODEL 6
REMARK VINA RESULT:      -6.0      1.911      2.895
REMARK  Name = 
REMARK  7 active torsions:
REMARK  status: ('A' for Active; 'I' for Inactive)
REMARK    1  A    between atoms: C_1  and  O_2
REMARK    2  A    between atoms: O_2  and  C_3
REMARK    3  A    between atoms: C_3  and  C_5
REMARK    4  A    between atoms: C_8  and  S_9
REMARK    5  A    between atoms: S_9  and  N_12
REMARK    6  A    between atoms: C_18  and  O_19
REMARK    7  A    between atoms: O_19  and  C_20
REMARK                            x       y       z     vdW  Elec       q    Type
REMARK                         _______ _______ _______ _____ _____    ______ ____
ROOT
ATOM      1  C   UNL     1       5.680   4.957  17.966  0.00  0.00    +0.000 A 
ATOM      2  C   UNL     1       5.049   6.164  17.733  0.00  0.00    +0.000 A 
ATOM      3  S   UNL     1       3.364   6.063  17.850  0.00  0.00    +0.000 S 
ATOM      4  C   UNL     1       3.410   4.369  18.194  0.00  0.00    +0.000 A 
ATOM      5  C   UNL     1       4.719   3.944  18.355  0.00  0.00    +0.000 A 
ENDROOT
BRANCH   4   6
ATOM      6  S   UNL     1       1.775   3.677  18.222  0.00  0.00    +0.000 S 
ATOM      7  O   UNL     1       1.086   4.359  17.143  0.00  0.00    +0.000 OA
ATOM      8  O   UNL     1       1.996   2.245  18.171  0.00  0.00    +0.000 OA
BRANCH   6   9
ATOM      9  N   UNL     1       0.869   3.995  19.629  0.00  0.00    +0.000 NA
ATOM     10  C   UNL     1       1.338   5.070  20.560  0.00  0.00    +0.000 C 
ATOM     11  C   UNL     1       2.505   4.621  21.438  0.00  0.00    +0.000 C 
ATOM     12  O   UNL     1       2.194   3.424  22.163  0.00  0.00    +0.000 OA
ATOM     13  C   UNL     1       1.818   2.358  21.279  0.00  0.00    +0.000 C 
ATOM     14  C   UNL     1       0.595   2.751  20.439  0.00  0.00    +0.000 C 
ENDBRANCH   6   9
ENDBRANCH   4   6
BRANCH   1  15
ATOM     15  C   UNL     1       7.128   4.852  17.792  0.00  0.00    +0.000 C 
ATOM     16  O   UNL     1       7.892   4.612  18.730  0.00  0.00    +0.000 OA
BRANCH  15  18
ATOM     17  C   UNL     1       6.941   4.329  15.505  0.00  0.00    +0.000 C 
ATOM     18  O   UNL     1       7.548   5.123  16.529  0.00  0.00    +0.000 OA
ENDBRANCH  15  18
ENDBRANCH   1  15
BRANCH   5  19
ATOM     19  O   UNL     1       5.086   2.681  18.691  0.00  0.00    +0.000 OA
ATOM     20  C   UNL     1       4.881   2.362  20.068  0.00  0.00    +0.000 C 
ENDBRANCH   5  19
TORSDOF 5
ENDMDL
MODEL 7
REMARK VINA RESULT:      -6.0      2.323      3.281
REMARK  Name = 
REMARK  7 active torsions:
REMARK  status: ('A' for Active; 'I' for Inactive)
REMARK    1  A    between atoms: C_1  and  O_2
REMARK    2  A    between atoms: O_2  and  C_3
REMARK    3  A    between atoms: C_3  and  C_5
REMARK    4  A    between atoms: C_8  and  S_9
REMARK    5  A    between atoms: S_9  and  N_12
REMARK    6  A    between atoms: C_18  and  O_19
REMARK    7  A    between atoms: O_19  and  C_20
REMARK                            x       y       z     vdW  Elec       q    Type
REMARK                         _______ _______ _______ _____ _____    ______ ____
ROOT
ATOM      1  C   UNL     1       6.122   5.372  15.425  0.00  0.00    +0.000 A 
ATOM      2  C   UNL     1       5.163   6.357  15.286  0.00  0.00    +0.000 A 
ATOM      3  S   UNL     1       4.314   6.660  16.718  0.00  0.00    +0.000 S 
ATOM      4  C   UNL     1       5.189   5.447  17.587  0.00  0.00    +0.000 A 
ATOM      5  C   UNL     1       6.211   4.935  16.803  0.00  0.00    +0.000 A 
ENDROOT
BRANCH   4   6
ATOM      6  S   UNL     1       4.510   5.207  19.210  0.00  0.00    +0.000 S 
ATOM      7  O   UNL     1       5.666   5.251  20.085  0.00  0.00    +0.000 OA
ATOM      8  O   UNL     1       3.468   6.210  19.309  0.00  0.00    +0.000 OA
BRANCH   6   9
ATOM      9  N   UNL     1       3.777   3.694  19.481  0.00  0.00    +0.000 NA
ATOM     10  C   UNL     1       3.776   2.685  18.374  0.00  0.00    +0.000 C 
ATOM     11  C   UNL     1       2.723   2.981  17.307  0.00  0.00    +0.000 C 
ATOM     12  O   UNL     1       1.413   3.108  17.876  0.00  0.00    +0.000 OA
ATOM     13  C   UNL     1       1.376   4.129  18.885  0.00  0.00    +0.000 C 
ATOM     14  C   UNL     1       2.369   3.815  20.014  0.00  0.00    +0.000 C 
ENDBRANCH   6   9
ENDBRANCH   4   6
BRANCH   1  15
ATOM     15  C   UNL     1       6.865   4.915  14.251  0.00  0.00    +0.000 C 
ATOM     16  O   UNL     1       7.815   5.547  13.781  0.00  0.00    +0.000 OA
BRANCH  15  18
ATOM     17  C   UNL     1       6.602   3.647  12.285  0.00  0.00    +0.000 C 
ATOM     18  O   UNL     1       6.361   3.786  13.690  0.00  0.00    +0.000 OA
ENDBRANCH  15  18
ENDBRANCH   1  15
BRANCH   5  19
ATOM     19  O   UNL     1       7.113   4.010  17.219  0.00  0.00    +0.000 OA
ATOM     20  C   UNL     1       8.145   4.537  18.054  0.00  0.00    +0.000 C 
ENDBRANCH   5  19
TORSDOF 5
ENDMDL
MODEL 8
REMARK VINA RESULT:      -6.0      1.901      2.558
REMARK  Name = 
REMARK  7 active torsions:
REMARK  status: ('A' for Active; 'I' for Inactive)
REMARK    1  A    between atoms: C_1  and  O_2
REMARK    2  A    between atoms: O_2  and  C_3
REMARK    3  A    between atoms: C_3  and  C_5
REMARK    4  A    between atoms: C_8  and  S_9
REMARK    5  A    between atoms: S_9  and  N_12
REMARK    6  A    between atoms: C_18  and  O_19
REMARK    7  A    between atoms: O_19  and  C_20
REMARK                            x       y       z     vdW  Elec       q    Type
REMARK                         _______ _______ _______ _____ _____    ______ ____
ROOT
ATOM      1  C   UNL     1       6.065   5.945  17.180  0.00  0.00    +0.000 A 
ATOM      2  C   UNL     1       6.413   4.927  16.311  0.00  0.00    +0.000 A 
ATOM      3  S   UNL     1       5.172   3.799  16.085  0.00  0.00    +0.000 S 
ATOM      4  C   UNL     1       4.115   4.624  17.177  0.00  0.00    +0.000 A 
ATOM      5  C   UNL     1       4.679   5.823  17.582  0.00  0.00    +0.000 A 
ENDROOT
BRANCH   4   6
ATOM      6  S   UNL     1       2.635   3.685  17.467  0.00  0.00    +0.000 S 
ATOM      7  O   UNL     1       1.622   4.694  17.711  0.00  0.00    +0.000 OA
ATOM      8  O   UNL     1       2.543   2.807  16.317  0.00  0.00    +0.000 OA
BRANCH   6   9
ATOM      9  N   UNL     1       2.655   2.697  18.853  0.00  0.00    +0.000 NA
ATOM     10  C   UNL     1       1.352   2.325  19.491  0.00  0.00    +0.000 C 
ATOM     11  C   UNL     1       0.763   3.457  20.332  0.00  0.00    +0.000 C 
ATOM     12  O   UNL     1       1.694   3.925  21.317  0.00  0.00    +0.000 OA
ATOM     13  C   UNL     1       2.922   4.361  20.714  0.00  0.00    +0.000 C 
ATOM     14  C   UNL     1       3.579   3.218  19.927  0.00  0.00    +0.000 C 
ENDBRANCH   6   9
ENDBRANCH   4   6
BRANCH   1  15
ATOM     15  C   UNL     1       7.066   6.938  17.567  0.00  0.00    +0.000 C 
ATOM     16  O   UNL     1       7.056   8.093  17.134  0.00  0.00    +0.000 OA
BRANCH  15  18
ATOM     17  C   UNL     1       7.571   5.769  19.547  0.00  0.00    +0.000 C 
ATOM     18  O   UNL     1       8.040   6.446  18.376  0.00  0.00    +0.000 OA
ENDBRANCH  15  18
ENDBRANCH   1  15
BRANCH   5  19
ATOM     19  O   UNL     1       4.071   6.728  18.392  0.00  0.00    +0.000 OA
ATOM     20  C   UNL     1       3.293   7.702  17.696  0.00  0.00    +0.000 C 
ENDBRANCH   5  19
TORSDOF 5
ENDMDL
MODEL 9
REMARK VINA RESULT:      -6.0      1.848      2.687
REMARK  Name = 
REMARK  7 active torsions:
REMARK  status: ('A' for Active; 'I' for Inactive)
REMARK    1  A    between atoms: C_1  and  O_2
REMARK    2  A    between atoms: O_2  and  C_3
REMARK    3  A    between atoms: C_3  and  C_5
REMARK    4  A    between atoms: C_8  and  S_9
REMARK    5  A    between atoms: S_9  and  N_12
REMARK    6  A    between atoms: C_18  and  O_19
REMARK    7  A    between atoms: O_19  and  C_20
REMARK                            x       y       z     vdW  Elec       q    Type
REMARK                         _______ _______ _______ _____ _____    ______ ____
ROOT
ATOM      1  C   UNL     1       5.591   4.979  16.893  0.00  0.00    +0.000 A 
ATOM      2  C   UNL     1       5.349   3.797  16.218  0.00  0.00    +0.000 A 
ATOM      3  S   UNL     1       3.800   3.179  16.503  0.00  0.00    +0.000 S 
ATOM      4  C   UNL     1       3.395   4.471  17.579  0.00  0.00    +0.000 A 
ATOM      5  C   UNL     1       4.400   5.426  17.586  0.00  0.00    +0.000 A 
ENDROOT
BRANCH   4   6
ATOM      6  S   UNL     1       1.828   4.183  18.363  0.00  0.00    +0.000 S 
ATOM      7  O   UNL     1       1.750   5.213  19.382  0.00  0.00    +0.000 OA
ATOM      8  O   UNL     1       0.882   4.155  17.265  0.00  0.00    +0.000 OA
BRANCH   6   9
ATOM      9  N   UNL     1       1.683   2.700  19.187  0.00  0.00    +0.000 NA
ATOM     10  C   UNL     1       1.057   2.690  20.547  0.00  0.00    +0.000 C 
ATOM     11  C   UNL     1       2.008   3.178  21.638  0.00  0.00    +0.000 C 
ATOM     12  O   UNL     1       3.237   2.439  21.641  0.00  0.00    +0.000 OA
ATOM     13  C   UNL     1       3.892   2.504  20.365  0.00  0.00    +0.000 C 
ATOM     14  C   UNL     1       2.987   1.943  19.259  0.00  0.00    +0.000 C 
ENDBRANCH   6   9
ENDBRANCH   4   6
BRANCH   1  15
ATOM     15  C   UNL     1       6.922   5.583  16.840  0.00  0.00    +0.000 C 
ATOM     16  O   UNL     1       7.948   4.946  17.091  0.00  0.00    +0.000 OA
BRANCH  15  18
ATOM     17  C   UNL     1       7.623   7.729  17.506  0.00  0.00    +0.000 C 
ATOM     18  O   UNL     1       6.909   6.914  16.571  0.00  0.00    +0.000 OA
ENDBRANCH  15  18
ENDBRANCH   1  15
BRANCH   5  19
ATOM     19  O   UNL     1       4.353   6.590  18.283  0.00  0.00    +0.000 OA
ATOM     20  C   UNL     1       3.534   7.594  17.684  0.00  0.00    +0.000 C 
ENDBRANCH   5  19
TORSDOF 5
ENDMDL
