MODEL 1
REMARK VINA RESULT:      -7.5      0.000      0.000
REMARK  Name = 
REMARK  4 active torsions:
REMARK  status: ('A' for Active; 'I' for Inactive)
REMARK    1  A    between atoms: C_1  and  C_2
REMARK    2  A    between atoms: N_8  and  C_9
REMARK    3  A    between atoms: C_9  and  N_11
REMARK    4  A    between atoms: N_11  and  C_12
REMARK                            x       y       z     vdW  Elec       q    Type
REMARK                         _______ _______ _______ _____ _____    ______ ____
ROOT
ATOM      1  C   UNL     1      -1.692  11.606  23.082  0.00  0.00    +0.000 C 
ATOM      2  C   UNL     1      -0.755  10.701  22.336  0.00  0.00    +0.000 A 
ATOM      3  C   UNL     1      -0.055   9.697  23.011  0.00  0.00    +0.000 A 
ATOM      4  C   UNL     1       0.822   8.852  22.327  0.00  0.00    +0.000 A 
ATOM      5  C   UNL     1       1.007   9.012  20.941  0.00  0.00    +0.000 A 
ATOM      6  N   UNL     1       1.851   8.260  20.153  0.00  0.00    +0.000 NA
ATOM      7  C   UNL     1       1.782   8.668  18.916  0.00  0.00    +0.000 A 
ATOM      8  N   UNL     1       2.494   8.223  17.832  0.00  0.00    +0.000 N 
ATOM      9  S   UNL     1       0.738   9.977  18.601  0.00  0.00    +0.000 S 
ATOM     10  C   UNL     1       0.302  10.015  20.273  0.00  0.00    +0.000 A 
ATOM     11  C   UNL     1      -0.586  10.868  20.949  0.00  0.00    +0.000 A 
ATOM     12  H   UNL     1       2.348   8.720  16.965  0.00  0.00    +0.000 HD
ENDROOT
BRANCH   8  13
ATOM     13  C   UNL     1       3.251   7.057  17.793  0.00  0.00    +0.000 C 
ATOM     14  S   UNL     1       4.753   6.858  17.062  0.00  0.00    +0.000 S 
BRANCH  13  15
ATOM     15  N   UNL     1       2.535   6.025  18.425  0.00  0.00    +0.000 N 
ATOM     16  H   UNL     1       1.544   6.225  18.492  0.00  0.00    +0.000 HD
BRANCH  15  17
ATOM     17  C   UNL     1       2.881   4.655  18.413  0.00  0.00    +0.000 A 
ATOM     18  C   UNL     1       2.279   3.762  17.520  0.00  0.00    +0.000 A 
ATOM     19  C   UNL     1       2.579   2.400  17.577  0.00  0.00    +0.000 A 
ATOM     20  C   UNL     1       3.501   1.946  18.506  0.00  0.00    +0.000 A 
ATOM     21  F   UNL     1       3.761   0.635  18.588  0.00  0.00    +0.000 F 
ATOM     22  C   UNL     1       4.160   2.831  19.353  0.00  0.00    +0.000 A 
ATOM     23  C   UNL     1       3.865   4.197  19.294  0.00  0.00    +0.000 A 
ENDBRANCH  15  17
ENDBRANCH  13  15
ENDBRANCH   8  13
TORSDOF 3
ENDMDL
MODEL 2
REMARK VINA RESULT:      -7.3      1.999      2.449
REMARK  Name = 
REMARK  4 active torsions:
REMARK  status: ('A' for Active; 'I' for Inactive)
REMARK    1  A    between atoms: C_1  and  C_2
REMARK    2  A    between atoms: N_8  and  C_9
REMARK    3  A    between atoms: C_9  and  N_11
REMARK    4  A    between atoms: N_11  and  C_12
REMARK                            x       y       z     vdW  Elec       q    Type
REMARK                         _______ _______ _______ _____ _____    ______ ____
ROOT
ATOM      1  C   UNL     1      -0.820  11.201  21.427  0.00  0.00    +0.000 C 
ATOM      2  C   UNL     1       0.070  10.078  20.978  0.00  0.00    +0.000 A 
ATOM      3  C   UNL     1       0.450   9.076  21.875  0.00  0.00    +0.000 A 
ATOM      4  C   UNL     1       1.280   8.028  21.469  0.00  0.00    +0.000 A 
ATOM      5  C   UNL     1       1.744   7.980  20.142  0.00  0.00    +0.000 A 
ATOM      6  N   UNL     1       2.578   7.016  19.619  0.00  0.00    +0.000 NA
ATOM      7  C   UNL     1       2.812   7.267  18.361  0.00  0.00    +0.000 A 
ATOM      8  N   UNL     1       3.626   6.586  17.493  0.00  0.00    +0.000 N 
ATOM      9  S   UNL     1       2.085   8.666  17.715  0.00  0.00    +0.000 S 
ATOM     10  C   UNL     1       1.359   8.983  19.250  0.00  0.00    +0.000 A 
ATOM     11  C   UNL     1       0.520  10.038  19.646  0.00  0.00    +0.000 A 
ATOM     12  H   UNL     1       3.730   6.984  16.570  0.00  0.00    +0.000 HD
ENDROOT
BRANCH   8  13
ATOM     13  C   UNL     1       4.165   5.325  17.721  0.00  0.00    +0.000 C 
ATOM     14  S   UNL     1       5.798   4.930  17.806  0.00  0.00    +0.000 S 
BRANCH  13  15
ATOM     15  N   UNL     1       3.118   4.391  17.822  0.00  0.00    +0.000 N 
ATOM     16  H   UNL     1       3.073   3.772  17.020  0.00  0.00    +0.000 HD
BRANCH  15  17
ATOM     17  C   UNL     1       2.590   3.871  19.025  0.00  0.00    +0.000 A 
ATOM     18  C   UNL     1       3.429   3.437  20.058  0.00  0.00    +0.000 A 
ATOM     19  C   UNL     1       2.889   2.857  21.206  0.00  0.00    +0.000 A 
ATOM     20  C   UNL     1       1.513   2.742  21.326  0.00  0.00    +0.000 A 
ATOM     21  F   UNL     1       0.995   2.150  22.410  0.00  0.00    +0.000 F 
ATOM     22  C   UNL     1       0.664   3.232  20.340  0.00  0.00    +0.000 A 
ATOM     23  C   UNL     1       1.203   3.819  19.190  0.00  0.00    +0.000 A 
ENDBRANCH  15  17
ENDBRANCH  13  15
ENDBRANCH   8  13
TORSDOF 3
ENDMDL
MODEL 3
REMARK VINA RESULT:      -7.2      3.317      4.433
REMARK  Name = 
REMARK  4 active torsions:
REMARK  status: ('A' for Active; 'I' for Inactive)
REMARK    1  A    between atoms: C_1  and  C_2
REMARK    2  A    between atoms: N_8  and  C_9
REMARK    3  A    between atoms: C_9  and  N_11
REMARK    4  A    between atoms: N_11  and  C_12
REMARK                            x       y       z     vdW  Elec       q    Type
REMARK                         _______ _______ _______ _____ _____    ______ ____
ROOT
ATOM      1  C   UNL     1       0.732  11.042  19.228  0.00  0.00    +0.000 C 
ATOM      2  C   UNL     1       1.350   9.695  18.984  0.00  0.00    +0.000 A 
ATOM      3  C   UNL     1       1.981   9.417  17.769  0.00  0.00    +0.000 A 
ATOM      4  C   UNL     1       2.556   8.167  17.530  0.00  0.00    +0.000 A 
ATOM      5  C   UNL     1       2.498   7.172  18.523  0.00  0.00    +0.000 A 
ATOM      6  N   UNL     1       3.008   5.896  18.410  0.00  0.00    +0.000 NA
ATOM      7  C   UNL     1       2.785   5.231  19.509  0.00  0.00    +0.000 A 
ATOM      8  N   UNL     1       3.085   3.923  19.788  0.00  0.00    +0.000 N 
ATOM      9  S   UNL     1       1.943   6.054  20.741  0.00  0.00    +0.000 S 
ATOM     10  C   UNL     1       1.868   7.457  19.736  0.00  0.00    +0.000 A 
ATOM     11  C   UNL     1       1.291   8.712  19.989  0.00  0.00    +0.000 A 
ATOM     12  H   UNL     1       2.763   3.570  20.679  0.00  0.00    +0.000 HD
ENDROOT
BRANCH   8  13
ATOM     13  C   UNL     1       3.928   3.114  19.035  0.00  0.00    +0.000 C 
ATOM     14  S   UNL     1       3.610   1.550  18.502  0.00  0.00    +0.000 S 
BRANCH  13  15
ATOM     15  N   UNL     1       5.142   3.792  18.821  0.00  0.00    +0.000 N 
ATOM     16  H   UNL     1       5.830   3.589  19.536  0.00  0.00    +0.000 HD
BRANCH  15  17
ATOM     17  C   UNL     1       5.661   4.175  17.564  0.00  0.00    +0.000 A 
ATOM     18  C   UNL     1       4.959   3.918  16.381  0.00  0.00    +0.000 A 
ATOM     19  C   UNL     1       5.524   4.234  15.145  0.00  0.00    +0.000 A 
ATOM     20  C   UNL     1       6.773   4.833  15.102  0.00  0.00    +0.000 A 
ATOM     21  F   UNL     1       7.333   5.102  13.916  0.00  0.00    +0.000 F 
ATOM     22  C   UNL     1       7.452   5.159  16.272  0.00  0.00    +0.000 A 
ATOM     23  C   UNL     1       6.885   4.847  17.512  0.00  0.00    +0.000 A 
ENDBRANCH  15  17
ENDBRANCH  13  15
ENDBRANCH   8  13
TORSDOF 3
ENDMDL
MODEL 4
REMARK VINA RESULT:      -7.2      3.336      4.528
REMARK  Name = 
REMARK  4 active torsions:
REMARK  status: ('A' for Active; 'I' for Inactive)
REMARK    1  A    between atoms: C_1  and  C_2
REMARK    2  A    between atoms: N_8  and  C_9
REMARK    3  A    between atoms: C_9  and  N_11
REMARK    4  A    between atoms: N_11  and  C_12
REMARK                            x       y       z     vdW  Elec       q    Type
REMARK                         _______ _______ _______ _____ _____    ______ ____
ROOT
ATOM      1  C   UNL     1       0.256  10.952  20.127  0.00  0.00    +0.000 C 
ATOM      2  C   UNL     1       0.959   9.703  19.681  0.00  0.00    +0.000 A 
ATOM      3  C   UNL     1       1.475   9.607  18.386  0.00  0.00    +0.000 A 
ATOM      4  C   UNL     1       2.128   8.448  17.960  0.00  0.00    +0.000 A 
ATOM      5  C   UNL     1       2.267   7.361  18.842  0.00  0.00    +0.000 A 
ATOM      6  N   UNL     1       2.872   6.159  18.544  0.00  0.00    +0.000 NA
ATOM      7  C   UNL     1       2.832   5.373  19.584  0.00  0.00    +0.000 A 
ATOM      8  N   UNL     1       3.274   4.080  19.691  0.00  0.00    +0.000 N 
ATOM      9  S   UNL     1       2.060   5.986  20.974  0.00  0.00    +0.000 S 
ATOM     10  C   UNL     1       1.752   7.465  20.135  0.00  0.00    +0.000 A 
ATOM     11  C   UNL     1       1.097   8.627  20.577  0.00  0.00    +0.000 A 
ATOM     12  H   UNL     1       3.085   3.613  20.568  0.00  0.00    +0.000 HD
ENDROOT
BRANCH   8  13
ATOM     13  C   UNL     1       4.097   3.435  18.776  0.00  0.00    +0.000 C 
ATOM     14  S   UNL     1       3.615   2.368  17.567  0.00  0.00    +0.000 S 
BRANCH  13  15
ATOM     15  N   UNL     1       5.436   3.771  19.046  0.00  0.00    +0.000 N 
ATOM     16  H   UNL     1       6.017   2.956  19.203  0.00  0.00    +0.000 HD
BRANCH  15  17
ATOM     17  C   UNL     1       6.108   4.919  18.571  0.00  0.00    +0.000 A 
ATOM     18  C   UNL     1       5.712   5.555  17.389  0.00  0.00    +0.000 A 
ATOM     19  C   UNL     1       6.437   6.640  16.896  0.00  0.00    +0.000 A 
ATOM     20  C   UNL     1       7.536   7.101  17.604  0.00  0.00    +0.000 A 
ATOM     21  F   UNL     1       8.256   8.117  17.112  0.00  0.00    +0.000 F 
ATOM     22  C   UNL     1       7.901   6.524  18.815  0.00  0.00    +0.000 A 
ATOM     23  C   UNL     1       7.172   5.439  19.314  0.00  0.00    +0.000 A 
ENDBRANCH  15  17
ENDBRANCH  13  15
ENDBRANCH   8  13
TORSDOF 3
ENDMDL
MODEL 5
REMARK VINA RESULT:      -7.2      3.286      4.421
REMARK  Name = 
REMARK  4 active torsions:
REMARK  status: ('A' for Active; 'I' for Inactive)
REMARK    1  A    between atoms: C_1  and  C_2
REMARK    2  A    between atoms: N_8  and  C_9
REMARK    3  A    between atoms: C_9  and  N_11
REMARK    4  A    between atoms: N_11  and  C_12
REMARK                            x       y       z     vdW  Elec       q    Type
REMARK                         _______ _______ _______ _____ _____    ______ ____
ROOT
ATOM      1  C   UNL     1       0.638  11.210  19.519  0.00  0.00    +0.000 C 
ATOM      2  C   UNL     1       1.245   9.868  19.223  0.00  0.00    +0.000 A 
ATOM      3  C   UNL     1       1.816   9.612  17.974  0.00  0.00    +0.000 A 
ATOM      4  C   UNL     1       2.381   8.367  17.686  0.00  0.00    +0.000 A 
ATOM      5  C   UNL     1       2.372   7.355  18.663  0.00  0.00    +0.000 A 
ATOM      6  N   UNL     1       2.877   6.083  18.504  0.00  0.00    +0.000 NA
ATOM      7  C   UNL     1       2.709   5.399  19.601  0.00  0.00    +0.000 A 
ATOM      8  N   UNL     1       3.023   4.086  19.843  0.00  0.00    +0.000 N 
ATOM      9  S   UNL     1       1.926   6.199  20.887  0.00  0.00    +0.000 S 
ATOM     10  C   UNL     1       1.800   7.619  19.910  0.00  0.00    +0.000 A 
ATOM     11  C   UNL     1       1.235   8.868  20.212  0.00  0.00    +0.000 A 
ATOM     12  H   UNL     1       2.746   3.718  20.743  0.00  0.00    +0.000 HD
ENDROOT
BRANCH   8  13
ATOM     13  C   UNL     1       3.830   3.293  19.037  0.00  0.00    +0.000 C 
ATOM     14  S   UNL     1       3.473   1.751  18.465  0.00  0.00    +0.000 S 
BRANCH  13  15
ATOM     15  N   UNL     1       5.044   3.962  18.804  0.00  0.00    +0.000 N 
ATOM     16  H   UNL     1       5.706   3.839  19.561  0.00  0.00    +0.000 HD
BRANCH  15  17
ATOM     17  C   UNL     1       5.609   4.226  17.536  0.00  0.00    +0.000 A 
ATOM     18  C   UNL     1       6.960   4.567  17.400  0.00  0.00    +0.000 A 
ATOM     19  C   UNL     1       7.479   4.898  16.148  0.00  0.00    +0.000 A 
ATOM     20  C   UNL     1       6.652   4.858  15.037  0.00  0.00    +0.000 A 
ATOM     21  F   UNL     1       7.139   5.213  13.841  0.00  0.00    +0.000 F 
ATOM     22  C   UNL     1       5.326   4.453  15.145  0.00  0.00    +0.000 A 
ATOM     23  C   UNL     1       4.804   4.115  16.398  0.00  0.00    +0.000 A 
ENDBRANCH  15  17
ENDBRANCH  13  15
ENDBRANCH   8  13
TORSDOF 3
ENDMDL
MODEL 6
REMARK VINA RESULT:      -7.1      1.566      1.626
REMARK  Name = 
REMARK  4 active torsions:
REMARK  status: ('A' for Active; 'I' for Inactive)
REMARK    1  A    between atoms: C_1  and  C_2
REMARK    2  A    between atoms: N_8  and  C_9
REMARK    3  A    between atoms: C_9  and  N_11
REMARK    4  A    between atoms: N_11  and  C_12
REMARK                            x       y       z     vdW  Elec       q    Type
REMARK                         _______ _______ _______ _____ _____    ______ ____
ROOT
ATOM      1  C   UNL     1      -1.477  12.435  22.802  0.00  0.00    +0.000 C 
ATOM      2  C   UNL     1      -0.714  11.320  22.146  0.00  0.00    +0.000 A 
ATOM      3  C   UNL     1      -0.442  10.143  22.848  0.00  0.00    +0.000 A 
ATOM      4  C   UNL     1       0.270   9.101  22.248  0.00  0.00    +0.000 A 
ATOM      5  C   UNL     1       0.722   9.237  20.923  0.00  0.00    +0.000 A 
ATOM      6  N   UNL     1       1.447   8.297  20.223  0.00  0.00    +0.000 NA
ATOM      7  C   UNL     1       1.703   8.738  19.023  0.00  0.00    +0.000 A 
ATOM      8  N   UNL     1       2.437   8.137  18.033  0.00  0.00    +0.000 N 
ATOM      9  S   UNL     1       1.129  10.298  18.645  0.00  0.00    +0.000 S 
ATOM     10  C   UNL     1       0.445  10.415  20.228  0.00  0.00    +0.000 A 
ATOM     11  C   UNL     1      -0.274  11.467  20.818  0.00  0.00    +0.000 A 
ATOM     12  H   UNL     1       2.582   8.678  17.192  0.00  0.00    +0.000 HD
ENDROOT
BRANCH   8  13
ATOM     13  C   UNL     1       2.838   6.806  18.027  0.00  0.00    +0.000 C 
ATOM     14  S   UNL     1       4.336   6.210  17.547  0.00  0.00    +0.000 S 
BRANCH  13  15
ATOM     15  N   UNL     1       1.763   6.002  18.444  0.00  0.00    +0.000 N 
ATOM     16  H   UNL     1       1.021   5.960  17.756  0.00  0.00    +0.000 HD
BRANCH  15  17
ATOM     17  C   UNL     1       1.853   4.892  19.313  0.00  0.00    +0.000 A 
ATOM     18  C   UNL     1       1.523   3.602  18.880  0.00  0.00    +0.000 A 
ATOM     19  C   UNL     1       1.545   2.532  19.775  0.00  0.00    +0.000 A 
ATOM     20  C   UNL     1       1.925   2.753  21.089  0.00  0.00    +0.000 A 
ATOM     21  F   UNL     1       1.909   1.735  21.959  0.00  0.00    +0.000 F 
ATOM     22  C   UNL     1       2.323   4.016  21.517  0.00  0.00    +0.000 A 
ATOM     23  C   UNL     1       2.307   5.089  20.621  0.00  0.00    +0.000 A 
ENDBRANCH  15  17
ENDBRANCH  13  15
ENDBRANCH   8  13
TORSDOF 3
ENDMDL
MODEL 7
REMARK VINA RESULT:      -7.1      2.412      2.777
REMARK  Name = 
REMARK  4 active torsions:
REMARK  status: ('A' for Active; 'I' for Inactive)
REMARK    1  A    between atoms: C_1  and  C_2
REMARK    2  A    between atoms: N_8  and  C_9
REMARK    3  A    between atoms: C_9  and  N_11
REMARK    4  A    between atoms: N_11  and  C_12
REMARK                            x       y       z     vdW  Elec       q    Type
REMARK                         _______ _______ _______ _____ _____    ______ ____
ROOT
ATOM      1  C   UNL     1      -1.855  12.664  22.520  0.00  0.00    +0.000 C 
ATOM      2  C   UNL     1      -1.057  11.426  22.228  0.00  0.00    +0.000 A 
ATOM      3  C   UNL     1      -0.841  10.474  23.228  0.00  0.00    +0.000 A 
ATOM      4  C   UNL     1      -0.097   9.320  22.968  0.00  0.00    +0.000 A 
ATOM      5  C   UNL     1       0.444   9.112  21.686  0.00  0.00    +0.000 A 
ATOM      6  N   UNL     1       1.207   8.030  21.305  0.00  0.00    +0.000 NA
ATOM      7  C   UNL     1       1.546   8.148  20.051  0.00  0.00    +0.000 A 
ATOM      8  N   UNL     1       2.341   7.319  19.302  0.00  0.00    +0.000 N 
ATOM      9  S   UNL     1       1.010   9.550  19.244  0.00  0.00    +0.000 S 
ATOM     10  C   UNL     1       0.222  10.067  20.692  0.00  0.00    +0.000 A 
ATOM     11  C   UNL     1      -0.528  11.228  20.940  0.00  0.00    +0.000 A 
ATOM     12  H   UNL     1       2.545   7.624  18.360  0.00  0.00    +0.000 HD
ENDROOT
BRANCH   8  13
ATOM     13  C   UNL     1       2.732   6.036  19.669  0.00  0.00    +0.000 C 
ATOM     14  S   UNL     1       1.796   4.889  20.467  0.00  0.00    +0.000 S 
BRANCH  13  15
ATOM     15  N   UNL     1       4.079   5.849  19.312  0.00  0.00    +0.000 N 
ATOM     16  H   UNL     1       4.643   5.517  20.086  0.00  0.00    +0.000 HD
BRANCH  15  17
ATOM     17  C   UNL     1       4.551   5.510  18.023  0.00  0.00    +0.000 A 
ATOM     18  C   UNL     1       5.027   6.490  17.144  0.00  0.00    +0.000 A 
ATOM     19  C   UNL     1       5.416   6.144  15.850  0.00  0.00    +0.000 A 
ATOM     20  C   UNL     1       5.353   4.818  15.453  0.00  0.00    +0.000 A 
ATOM     21  F   UNL     1       5.689   4.490  14.198  0.00  0.00    +0.000 F 
ATOM     22  C   UNL     1       4.948   3.824  16.337  0.00  0.00    +0.000 A 
ATOM     23  C   UNL     1       4.563   4.167  17.637  0.00  0.00    +0.000 A 
ENDBRANCH  15  17
ENDBRANCH  13  15
ENDBRANCH   8  13
TORSDOF 3
ENDMDL
MODEL 8
REMARK VINA RESULT:      -6.8      3.049      3.762
REMARK  Name = 
REMARK  4 active torsions:
REMARK  status: ('A' for Active; 'I' for Inactive)
REMARK    1  A    between atoms: C_1  and  C_2
REMARK    2  A    between atoms: N_8  and  C_9
REMARK    3  A    between atoms: C_9  and  N_11
REMARK    4  A    between atoms: N_11  and  C_12
REMARK                            x       y       z     vdW  Elec       q    Type
REMARK                         _______ _______ _______ _____ _____    ______ ____
ROOT
ATOM      1  C   UNL     1      -0.066  11.894  21.579  0.00  0.00    +0.000 C 
ATOM      2  C   UNL     1       0.517  10.582  21.138  0.00  0.00    +0.000 A 
ATOM      3  C   UNL     1       0.716   9.552  22.061  0.00  0.00    +0.000 A 
ATOM      4  C   UNL     1       1.262   8.329  21.663  0.00  0.00    +0.000 A 
ATOM      5  C   UNL     1       1.618   8.130  20.317  0.00  0.00    +0.000 A 
ATOM      6  N   UNL     1       2.179   6.983  19.798  0.00  0.00    +0.000 NA
ATOM      7  C   UNL     1       2.384   7.130  18.518  0.00  0.00    +0.000 A 
ATOM      8  N   UNL     1       2.966   6.251  17.643  0.00  0.00    +0.000 N 
ATOM      9  S   UNL     1       1.952   8.635  17.845  0.00  0.00    +0.000 S 
ATOM     10  C   UNL     1       1.414   9.162  19.400  0.00  0.00    +0.000 A 
ATOM     11  C   UNL     1       0.862  10.394  19.787  0.00  0.00    +0.000 A 
ATOM     12  H   UNL     1       3.100   6.582  16.697  0.00  0.00    +0.000 HD
ENDROOT
BRANCH   8  13
ATOM     13  C   UNL     1       3.220   4.909  17.903  0.00  0.00    +0.000 C 
ATOM     14  S   UNL     1       2.178   3.813  18.638  0.00  0.00    +0.000 S 
BRANCH  13  15
ATOM     15  N   UNL     1       4.532   4.604  17.498  0.00  0.00    +0.000 N 
ATOM     16  H   UNL     1       4.561   4.129  16.603  0.00  0.00    +0.000 HD
BRANCH  15  17
ATOM     17  C   UNL     1       5.690   5.339  17.837  0.00  0.00    +0.000 A 
ATOM     18  C   UNL     1       6.362   5.117  19.046  0.00  0.00    +0.000 A 
ATOM     19  C   UNL     1       7.458   5.906  19.396  0.00  0.00    +0.000 A 
ATOM     20  C   UNL     1       7.893   6.890  18.524  0.00  0.00    +0.000 A 
ATOM     21  F   UNL     1       8.921   7.674  18.876  0.00  0.00    +0.000 F 
ATOM     22  C   UNL     1       7.280   7.075  17.289  0.00  0.00    +0.000 A 
ATOM     23  C   UNL     1       6.185   6.282  16.933  0.00  0.00    +0.000 A 
ENDBRANCH  15  17
ENDBRANCH  13  15
ENDBRANCH   8  13
TORSDOF 3
ENDMDL
MODEL 9
REMARK VINA RESULT:      -6.8      2.830      3.164
REMARK  Name = 
REMARK  4 active torsions:
REMARK  status: ('A' for Active; 'I' for Inactive)
REMARK    1  A    between atoms: C_1  and  C_2
REMARK    2  A    between atoms: N_8  and  C_9
REMARK    3  A    between atoms: C_9  and  N_11
REMARK    4  A    between atoms: N_11  and  C_12
REMARK                            x       y       z     vdW  Elec       q    Type
REMARK                         _______ _______ _______ _____ _____    ______ ____
ROOT
ATOM      1  C   UNL     1      -1.180  12.743  19.992  0.00  0.00    +0.000 C 
ATOM      2  C   UNL     1      -0.426  11.453  20.141  0.00  0.00    +0.000 A 
ATOM      3  C   UNL     1      -0.374  10.804  21.377  0.00  0.00    +0.000 A 
ATOM      4  C   UNL     1       0.328   9.605  21.527  0.00  0.00    +0.000 A 
ATOM      5  C   UNL     1       0.995   9.044  20.423  0.00  0.00    +0.000 A 
ATOM      6  N   UNL     1       1.735   7.881  20.440  0.00  0.00    +0.000 NA
ATOM      7  C   UNL     1       2.216   7.646  19.251  0.00  0.00    +0.000 A 
ATOM      8  N   UNL     1       3.040   6.625  18.853  0.00  0.00    +0.000 N 
ATOM      9  S   UNL     1       1.850   8.787  18.039  0.00  0.00    +0.000 S 
ATOM     10  C   UNL     1       0.937   9.697  19.190  0.00  0.00    +0.000 A 
ATOM     11  C   UNL     1       0.231  10.900  19.026  0.00  0.00    +0.000 A 
ATOM     12  H   UNL     1       3.364   6.658  17.896  0.00  0.00    +0.000 HD
ENDROOT
BRANCH   8  13
ATOM     13  C   UNL     1       3.317   5.482  19.593  0.00  0.00    +0.000 C 
ATOM     14  S   UNL     1       2.262   4.671  20.623  0.00  0.00    +0.000 S 
BRANCH  13  15
ATOM     15  N   UNL     1       4.661   5.120  19.392  0.00  0.00    +0.000 N 
ATOM     16  H   UNL     1       4.997   4.472  20.095  0.00  0.00    +0.000 HD
BRANCH  15  17
ATOM     17  C   UNL     1       5.322   5.066  18.145  0.00  0.00    +0.000 A 
ATOM     18  C   UNL     1       4.934   4.153  17.157  0.00  0.00    +0.000 A 
ATOM     19  C   UNL     1       5.648   4.063  15.962  0.00  0.00    +0.000 A 
ATOM     20  C   UNL     1       6.727   4.907  15.751  0.00  0.00    +0.000 A 
ATOM     21  F   UNL     1       7.438   4.795  14.621  0.00  0.00    +0.000 F 
ATOM     22  C   UNL     1       7.082   5.866  16.693  0.00  0.00    +0.000 A 
ATOM     23  C   UNL     1       6.364   5.962  17.889  0.00  0.00    +0.000 A 
ENDBRANCH  15  17
ENDBRANCH  13  15
ENDBRANCH   8  13
TORSDOF 3
ENDMDL
