MODEL 1
REMARK VINA RESULT:      -8.4      0.000      0.000
REMARK  Name = 
REMARK  3 active torsions:
REMARK  status: ('A' for Active; 'I' for Inactive)
REMARK    1  A    between atoms: C_1  and  N_2
REMARK    2  A    between atoms: C_8  and  C_9
REMARK    3  A    between atoms: C_17  and  C_18
REMARK                            x       y       z     vdW  Elec       q    Type
REMARK                         _______ _______ _______ _____ _____    ______ ____
ROOT
ATOM      1  C   UNL     1       2.435  17.452  20.404  0.00  0.00    +0.000 C 
ATOM      2  N   UNL     1       1.965  16.457  19.441  0.00  0.00    +0.000 NA
ATOM      3  C   UNL     1       0.508  16.233  19.604  0.00  0.00    +0.000 C 
ATOM      4  C   UNL     1      -0.040  15.113  18.686  0.00  0.00    +0.000 C 
ATOM      5  N   UNL     1       0.732  13.891  18.919  0.00  0.00    +0.000 N 
ATOM      6  C   UNL     1       0.160  12.673  18.628  0.00  0.00    +0.000 A 
ATOM      7  N   UNL     1       0.885  11.560  18.819  0.00  0.00    +0.000 NA
ATOM      8  C   UNL     1       0.291  10.362  18.637  0.00  0.00    +0.000 A 
ATOM      9  C   UNL     1      -1.030  10.260  18.268  0.00  0.00    +0.000 A 
ATOM     10  C   UNL     1      -1.700  11.441  18.077  0.00  0.00    +0.000 A 
ATOM     11  N   UNL     1      -1.122  12.639  18.254  0.00  0.00    +0.000 NA
ATOM     12  C   UNL     1       2.171  14.044  18.716  0.00  0.00    +0.000 C 
ATOM     13  C   UNL     1       2.688  15.176  19.634  0.00  0.00    +0.000 C 
ENDROOT
BRANCH  10  14
ATOM     14  C   UNL     1      -3.098  11.464  17.665  0.00  0.00    +0.000 A 
ATOM     15  C   UNL     1      -3.541  11.117  16.404  0.00  0.00    +0.000 A 
ATOM     16  N   UNL     1      -4.906  11.232  16.377  0.00  0.00    +0.000 N 
ATOM     17  C   UNL     1      -5.370  11.654  17.600  0.00  0.00    +0.000 A 
ATOM     18  C   UNL     1      -6.679  11.899  18.033  0.00  0.00    +0.000 A 
ATOM     19  C   UNL     1      -6.856  12.335  19.351  0.00  0.00    +0.000 A 
ATOM     20  C   UNL     1      -5.769  12.521  20.200  0.00  0.00    +0.000 A 
ATOM     21  C   UNL     1      -4.471  12.268  19.751  0.00  0.00    +0.000 A 
ATOM     22  C   UNL     1      -4.259  11.817  18.429  0.00  0.00    +0.000 A 
ATOM     23  H   UNL     1      -5.495  11.031  15.582  0.00  0.00    +0.000 HD
ENDBRANCH  10  14
BRANCH   8  24
ATOM     24  C   UNL     1       1.136   9.171  18.858  0.00  0.00    +0.000 A 
ATOM     25  C   UNL     1       1.204   8.547  20.117  0.00  0.00    +0.000 A 
ATOM     26  C   UNL     1       2.005   7.418  20.326  0.00  0.00    +0.000 A 
ATOM     27  C   UNL     1       2.754   6.897  19.278  0.00  0.00    +0.000 A 
ATOM     28 CL   UNL     1       3.751   5.518  19.531  0.00  0.00    +0.000 Cl
ATOM     29  C   UNL     1       2.706   7.488  18.019  0.00  0.00    +0.000 A 
ATOM     30  C   UNL     1       1.906   8.617  17.816  0.00  0.00    +0.000 A 
ENDBRANCH   8  24
TORSDOF 2
ENDMDL
MODEL 2
REMARK VINA RESULT:      -7.9      0.981      1.159
REMARK  Name = 
REMARK  3 active torsions:
REMARK  status: ('A' for Active; 'I' for Inactive)
REMARK    1  A    between atoms: C_1  and  N_2
REMARK    2  A    between atoms: C_8  and  C_9
REMARK    3  A    between atoms: C_17  and  C_18
REMARK                            x       y       z     vdW  Elec       q    Type
REMARK                         _______ _______ _______ _____ _____    ______ ____
ROOT
ATOM      1  C   UNL     1       3.996  17.151  19.798  0.00  0.00    +0.000 C 
ATOM      2  N   UNL     1       3.222  16.203  18.998  0.00  0.00    +0.000 NA
ATOM      3  C   UNL     1       1.822  16.142  19.486  0.00  0.00    +0.000 C 
ATOM      4  C   UNL     1       0.970  15.079  18.752  0.00  0.00    +0.000 C 
ATOM      5  N   UNL     1       1.642  13.783  18.853  0.00  0.00    +0.000 N 
ATOM      6  C   UNL     1       0.896  12.632  18.738  0.00  0.00    +0.000 A 
ATOM      7  N   UNL     1       1.525  11.447  18.804  0.00  0.00    +0.000 NA
ATOM      8  C   UNL     1       0.783  10.320  18.801  0.00  0.00    +0.000 A 
ATOM      9  C   UNL     1      -0.590  10.359  18.735  0.00  0.00    +0.000 A 
ATOM     10  C   UNL     1      -1.159  11.604  18.654  0.00  0.00    +0.000 A 
ATOM     11  N   UNL     1      -0.434  12.734  18.657  0.00  0.00    +0.000 NA
ATOM     12  C   UNL     1       3.008  13.774  18.332  0.00  0.00    +0.000 C 
ATOM     13  C   UNL     1       3.832  14.853  19.073  0.00  0.00    +0.000 C 
ENDROOT
BRANCH  10  14
ATOM     14  C   UNL     1      -2.602  11.776  18.560  0.00  0.00    +0.000 A 
ATOM     15  C   UNL     1      -3.345  11.498  17.429  0.00  0.00    +0.000 A 
ATOM     16  N   UNL     1      -4.663  11.751  17.702  0.00  0.00    +0.000 N 
ATOM     17  C   UNL     1      -4.802  12.196  18.996  0.00  0.00    +0.000 A 
ATOM     18  C   UNL     1      -5.951  12.565  19.704  0.00  0.00    +0.000 A 
ATOM     19  C   UNL     1      -5.790  12.992  21.027  0.00  0.00    +0.000 A 
ATOM     20  C   UNL     1      -4.530  13.053  21.615  0.00  0.00    +0.000 A 
ATOM     21  C   UNL     1      -3.395  12.678  20.893  0.00  0.00    +0.000 A 
ATOM     22  C   UNL     1      -3.525  12.232  19.559  0.00  0.00    +0.000 A 
ATOM     23  H   UNL     1      -5.430  11.624  17.057  0.00  0.00    +0.000 HD
ENDBRANCH  10  14
BRANCH   8  24
ATOM     24  C   UNL     1       1.527   9.046  18.871  0.00  0.00    +0.000 A 
ATOM     25  C   UNL     1       1.500   8.249  20.030  0.00  0.00    +0.000 A 
ATOM     26  C   UNL     1       2.204   7.041  20.098  0.00  0.00    +0.000 A 
ATOM     27  C   UNL     1       2.951   6.613  19.006  0.00  0.00    +0.000 A 
ATOM     28 CL   UNL     1       3.831   5.137  19.086  0.00  0.00    +0.000 Cl
ATOM     29  C   UNL     1       2.996   7.377  17.843  0.00  0.00    +0.000 A 
ATOM     30  C   UNL     1       2.292   8.583  17.782  0.00  0.00    +0.000 A 
ENDBRANCH   8  24
TORSDOF 2
ENDMDL
MODEL 3
REMARK VINA RESULT:      -7.9      1.176      1.176
REMARK  Name = 
REMARK  3 active torsions:
REMARK  status: ('A' for Active; 'I' for Inactive)
REMARK    1  A    between atoms: C_1  and  N_2
REMARK    2  A    between atoms: C_8  and  C_9
REMARK    3  A    between atoms: C_17  and  C_18
REMARK                            x       y       z     vdW  Elec       q    Type
REMARK                         _______ _______ _______ _____ _____    ______ ____
ROOT
ATOM      1  C   UNL     1       1.224  16.791  22.985  0.00  0.00    +0.000 C 
ATOM      2  N   UNL     1       0.963  16.092  21.728  0.00  0.00    +0.000 NA
ATOM      3  C   UNL     1      -0.470  15.723  21.633  0.00  0.00    +0.000 C 
ATOM      4  C   UNL     1      -0.799  14.885  20.373  0.00  0.00    +0.000 C 
ATOM      5  N   UNL     1       0.072  13.709  20.347  0.00  0.00    +0.000 N 
ATOM      6  C   UNL     1      -0.332  12.592  19.652  0.00  0.00    +0.000 A 
ATOM      7  N   UNL     1       0.485  11.528  19.610  0.00  0.00    +0.000 NA
ATOM      8  C   UNL     1       0.045  10.396  19.022  0.00  0.00    +0.000 A 
ATOM      9  C   UNL     1      -1.213  10.310  18.473  0.00  0.00    +0.000 A 
ATOM     10  C   UNL     1      -1.984  11.443  18.540  0.00  0.00    +0.000 A 
ATOM     11  N   UNL     1      -1.559  12.576  19.122  0.00  0.00    +0.000 NA
ATOM     12  C   UNL     1       1.500  14.020  20.382  0.00  0.00    +0.000 C 
ATOM     13  C   UNL     1       1.797  14.868  21.641  0.00  0.00    +0.000 C 
ENDROOT
BRANCH  10  14
ATOM     14  C   UNL     1      -3.326  11.484  17.976  0.00  0.00    +0.000 A 
ATOM     15  C   UNL     1      -3.630  11.152  16.669  0.00  0.00    +0.000 A 
ATOM     16  N   UNL     1      -4.982  11.280  16.493  0.00  0.00    +0.000 N 
ATOM     17  C   UNL     1      -5.576  11.696  17.661  0.00  0.00    +0.000 A 
ATOM     18  C   UNL     1      -6.922  11.950  17.949  0.00  0.00    +0.000 A 
ATOM     19  C   UNL     1      -7.241  12.374  19.243  0.00  0.00    +0.000 A 
ATOM     20  C   UNL     1      -6.254  12.542  20.210  0.00  0.00    +0.000 A 
ATOM     21  C   UNL     1      -4.916  12.282  19.905  0.00  0.00    +0.000 A 
ATOM     22  C   UNL     1      -4.562  11.841  18.610  0.00  0.00    +0.000 A 
ATOM     23  H   UNL     1      -5.481  11.092  15.635  0.00  0.00    +0.000 HD
ENDBRANCH  10  14
BRANCH   8  24
ATOM     24  C   UNL     1       0.987   9.259  19.003  0.00  0.00    +0.000 A 
ATOM     25  C   UNL     1       1.187   8.458  20.142  0.00  0.00    +0.000 A 
ATOM     26  C   UNL     1       2.080   7.380  20.124  0.00  0.00    +0.000 A 
ATOM     27  C   UNL     1       2.789   7.087  18.965  0.00  0.00    +0.000 A 
ATOM     28 CL   UNL     1       3.898   5.772  18.939  0.00  0.00    +0.000 Cl
ATOM     29  C   UNL     1       2.610   7.858  17.819  0.00  0.00    +0.000 A 
ATOM     30  C   UNL     1       1.720   8.935  17.844  0.00  0.00    +0.000 A 
ENDBRANCH   8  24
TORSDOF 2
ENDMDL
MODEL 4
REMARK VINA RESULT:      -7.8      1.411      2.185
REMARK  Name = 
REMARK  3 active torsions:
REMARK  status: ('A' for Active; 'I' for Inactive)
REMARK    1  A    between atoms: C_1  and  N_2
REMARK    2  A    between atoms: C_8  and  C_9
REMARK    3  A    between atoms: C_17  and  C_18
REMARK                            x       y       z     vdW  Elec       q    Type
REMARK                         _______ _______ _______ _____ _____    ______ ____
ROOT
ATOM      1  C   UNL     1       4.759  16.997  19.205  0.00  0.00    +0.000 C 
ATOM      2  N   UNL     1       3.741  16.110  18.643  0.00  0.00    +0.000 NA
ATOM      3  C   UNL     1       2.499  16.177  19.451  0.00  0.00    +0.000 C 
ATOM      4  C   UNL     1       1.411  15.183  18.975  0.00  0.00    +0.000 C 
ATOM      5  N   UNL     1       1.980  13.835  18.956  0.00  0.00    +0.000 N 
ATOM      6  C   UNL     1       1.136  12.752  19.059  0.00  0.00    +0.000 A 
ATOM      7  N   UNL     1       1.663  11.518  19.012  0.00  0.00    +0.000 NA
ATOM      8  C   UNL     1       0.853  10.459  19.222  0.00  0.00    +0.000 A 
ATOM      9  C   UNL     1      -0.488  10.617  19.483  0.00  0.00    +0.000 A 
ATOM     10  C   UNL     1      -0.956  11.906  19.499  0.00  0.00    +0.000 A 
ATOM     11  N   UNL     1      -0.161  12.969  19.292  0.00  0.00    +0.000 NA
ATOM     12  C   UNL     1       3.176  13.701  18.126  0.00  0.00    +0.000 C 
ATOM     13  C   UNL     1       4.239  14.713  18.615  0.00  0.00    +0.000 C 
ENDROOT
BRANCH  10  14
ATOM     14  C   UNL     1      -2.361  12.203  19.744  0.00  0.00    +0.000 A 
ATOM     15  C   UNL     1      -2.840  12.797  20.895  0.00  0.00    +0.000 A 
ATOM     16  N   UNL     1      -4.196  12.945  20.775  0.00  0.00    +0.000 N 
ATOM     17  C   UNL     1      -4.621  12.454  19.563  0.00  0.00    +0.000 A 
ATOM     18  C   UNL     1      -5.907  12.402  19.012  0.00  0.00    +0.000 A 
ATOM     19  C   UNL     1      -6.047  11.832  17.742  0.00  0.00    +0.000 A 
ATOM     20  C   UNL     1      -4.946  11.330  17.053  0.00  0.00    +0.000 A 
ATOM     21  C   UNL     1      -3.670  11.393  17.618  0.00  0.00    +0.000 A 
ATOM     22  C   UNL     1      -3.494  11.973  18.895  0.00  0.00    +0.000 A 
ATOM     23  H   UNL     1      -4.804  13.360  21.467  0.00  0.00    +0.000 HD
ENDBRANCH  10  14
BRANCH   8  24
ATOM     24  C   UNL     1       1.486   9.127  19.155  0.00  0.00    +0.000 A 
ATOM     25  C   UNL     1       2.121   8.679  17.983  0.00  0.00    +0.000 A 
ATOM     26  C   UNL     1       2.721   7.415  17.919  0.00  0.00    +0.000 A 
ATOM     27  C   UNL     1       2.692   6.579  19.028  0.00  0.00    +0.000 A 
ATOM     28 CL   UNL     1       3.415   5.019  18.954  0.00  0.00    +0.000 Cl
ATOM     29  C   UNL     1       2.075   6.994  20.205  0.00  0.00    +0.000 A 
ATOM     30  C   UNL     1       1.475   8.255  20.262  0.00  0.00    +0.000 A 
ENDBRANCH   8  24
TORSDOF 2
ENDMDL
MODEL 5
REMARK VINA RESULT:      -7.8      1.080      1.090
REMARK  Name = 
REMARK  3 active torsions:
REMARK  status: ('A' for Active; 'I' for Inactive)
REMARK    1  A    between atoms: C_1  and  N_2
REMARK    2  A    between atoms: C_8  and  C_9
REMARK    3  A    between atoms: C_17  and  C_18
REMARK                            x       y       z     vdW  Elec       q    Type
REMARK                         _______ _______ _______ _____ _____    ______ ____
ROOT
ATOM      1  C   UNL     1       2.336  16.381  22.504  0.00  0.00    +0.000 C 
ATOM      2  N   UNL     1       2.064  15.655  21.265  0.00  0.00    +0.000 NA
ATOM      3  C   UNL     1       0.609  15.397  21.129  0.00  0.00    +0.000 C 
ATOM      4  C   UNL     1       0.258  14.539  19.889  0.00  0.00    +0.000 C 
ATOM      5  N   UNL     1       1.032  13.298  19.940  0.00  0.00    +0.000 N 
ATOM      6  C   UNL     1       0.563  12.189  19.271  0.00  0.00    +0.000 A 
ATOM      7  N   UNL     1       1.293  11.063  19.300  0.00  0.00    +0.000 NA
ATOM      8  C   UNL     1       0.784   9.947  18.738  0.00  0.00    +0.000 A 
ATOM      9  C   UNL     1      -0.458   9.939  18.145  0.00  0.00    +0.000 A 
ATOM     10  C   UNL     1      -1.136  11.131  18.141  0.00  0.00    +0.000 A 
ATOM     11  N   UNL     1      -0.641  12.249  18.696  0.00  0.00    +0.000 NA
ATOM     12  C   UNL     1       2.478  13.495  20.017  0.00  0.00    +0.000 C 
ATOM     13  C   UNL     1       2.798  14.366  21.255  0.00  0.00    +0.000 C 
ENDROOT
BRANCH  10  14
ATOM     14  C   UNL     1      -2.450  11.256  17.525  0.00  0.00    +0.000 A 
ATOM     15  C   UNL     1      -2.722  10.949  16.206  0.00  0.00    +0.000 A 
ATOM     16  N   UNL     1      -4.056  11.160  15.978  0.00  0.00    +0.000 N 
ATOM     17  C   UNL     1      -4.669  11.605  17.125  0.00  0.00    +0.000 A 
ATOM     18  C   UNL     1      -6.008  11.939  17.361  0.00  0.00    +0.000 A 
ATOM     19  C   UNL     1      -6.351  12.377  18.645  0.00  0.00    +0.000 A 
ATOM     20  C   UNL     1      -5.394  12.480  19.651  0.00  0.00    +0.000 A 
ATOM     21  C   UNL     1      -4.063  12.140  19.397  0.00  0.00    +0.000 A 
ATOM     22  C   UNL     1      -3.686  11.684  18.113  0.00  0.00    +0.000 A 
ATOM     23  H   UNL     1      -4.532  11.006  15.100  0.00  0.00    +0.000 HD
ENDBRANCH  10  14
BRANCH   8  24
ATOM     24  C   UNL     1       1.631   8.739  18.796  0.00  0.00    +0.000 A 
ATOM     25  C   UNL     1       1.595   7.876  19.907  0.00  0.00    +0.000 A 
ATOM     26  C   UNL     1       2.398   6.730  19.963  0.00  0.00    +0.000 A 
ATOM     27  C   UNL     1       3.251   6.431  18.907  0.00  0.00    +0.000 A 
ATOM     28 CL   UNL     1       4.251   5.033  18.974  0.00  0.00    +0.000 Cl
ATOM     29  C   UNL     1       3.307   7.262  17.792  0.00  0.00    +0.000 A 
ATOM     30  C   UNL     1       2.505   8.406  17.743  0.00  0.00    +0.000 A 
ENDBRANCH   8  24
TORSDOF 2
ENDMDL
MODEL 6
REMARK VINA RESULT:      -7.6      3.660      6.996
REMARK  Name = 
REMARK  3 active torsions:
REMARK  status: ('A' for Active; 'I' for Inactive)
REMARK    1  A    between atoms: C_1  and  N_2
REMARK    2  A    between atoms: C_8  and  C_9
REMARK    3  A    between atoms: C_17  and  C_18
REMARK                            x       y       z     vdW  Elec       q    Type
REMARK                         _______ _______ _______ _____ _____    ______ ____
ROOT
ATOM      1  C   UNL     1       2.993  16.877  17.303  0.00  0.00    +0.000 C 
ATOM      2  N   UNL     1       2.814  15.964  18.431  0.00  0.00    +0.000 NA
ATOM      3  C   UNL     1       2.933  14.557  17.976  0.00  0.00    +0.000 C 
ATOM      4  C   UNL     1       2.650  13.530  19.100  0.00  0.00    +0.000 C 
ATOM      5  N   UNL     1       1.334  13.811  19.675  0.00  0.00    +0.000 N 
ATOM      6  C   UNL     1       0.650  12.796  20.306  0.00  0.00    +0.000 A 
ATOM      7  N   UNL     1      -0.545  13.069  20.855  0.00  0.00    +0.000 NA
ATOM      8  C   UNL     1      -1.264  12.054  21.378  0.00  0.00    +0.000 A 
ATOM      9  C   UNL     1      -0.804  10.758  21.358  0.00  0.00    +0.000 A 
ATOM     10  C   UNL     1       0.431  10.561  20.795  0.00  0.00    +0.000 A 
ATOM     11  N   UNL     1       1.158  11.561  20.271  0.00  0.00    +0.000 NA
ATOM     12  C   UNL     1       1.182  15.170  20.190  0.00  0.00    +0.000 C 
ATOM     13  C   UNL     1       1.483  16.173  19.052  0.00  0.00    +0.000 C 
ENDROOT
BRANCH  10  14
ATOM     14  C   UNL     1       1.036   9.237  20.733  0.00  0.00    +0.000 A 
ATOM     15  C   UNL     1       1.078   8.351  21.792  0.00  0.00    +0.000 A 
ATOM     16  N   UNL     1       1.694   7.202  21.373  0.00  0.00    +0.000 N 
ATOM     17  C   UNL     1       2.064   7.317  20.053  0.00  0.00    +0.000 A 
ATOM     18  C   UNL     1       2.708   6.400  19.214  0.00  0.00    +0.000 A 
ATOM     19  C   UNL     1       2.969   6.796  17.898  0.00  0.00    +0.000 A 
ATOM     20  C   UNL     1       2.604   8.059  17.441  0.00  0.00    +0.000 A 
ATOM     21  C   UNL     1       1.960   8.960  18.292  0.00  0.00    +0.000 A 
ATOM     22  C   UNL     1       1.673   8.586  19.624  0.00  0.00    +0.000 A 
ATOM     23  H   UNL     1       1.852   6.381  21.940  0.00  0.00    +0.000 HD
ENDBRANCH  10  14
BRANCH   8  24
ATOM     24  C   UNL     1      -2.568  12.412  21.971  0.00  0.00    +0.000 A 
ATOM     25  C   UNL     1      -2.786  12.327  23.358  0.00  0.00    +0.000 A 
ATOM     26  C   UNL     1      -4.022  12.667  23.921  0.00  0.00    +0.000 A 
ATOM     27  C   UNL     1      -5.062  13.095  23.103  0.00  0.00    +0.000 A 
ATOM     28 CL   UNL     1      -6.588  13.500  23.785  0.00  0.00    +0.000 Cl
ATOM     29  C   UNL     1      -4.876  13.194  21.727  0.00  0.00    +0.000 A 
ATOM     30  C   UNL     1      -3.641  12.851  21.170  0.00  0.00    +0.000 A 
ENDBRANCH   8  24
TORSDOF 2
ENDMDL
MODEL 7
REMARK VINA RESULT:      -7.4      2.312      2.989
REMARK  Name = 
REMARK  3 active torsions:
REMARK  status: ('A' for Active; 'I' for Inactive)
REMARK    1  A    between atoms: C_1  and  N_2
REMARK    2  A    between atoms: C_8  and  C_9
REMARK    3  A    between atoms: C_17  and  C_18
REMARK                            x       y       z     vdW  Elec       q    Type
REMARK                         _______ _______ _______ _____ _____    ______ ____
ROOT
ATOM      1  C   UNL     1       4.582  16.779  18.736  0.00  0.00    +0.000 C 
ATOM      2  N   UNL     1       3.412  15.915  18.588  0.00  0.00    +0.000 NA
ATOM      3  C   UNL     1       2.603  15.927  19.831  0.00  0.00    +0.000 C 
ATOM      4  C   UNL     1       1.403  14.950  19.784  0.00  0.00    +0.000 C 
ATOM      5  N   UNL     1       1.898  13.610  19.465  0.00  0.00    +0.000 N 
ATOM      6  C   UNL     1       1.154  12.515  19.843  0.00  0.00    +0.000 A 
ATOM      7  N   UNL     1       1.601  11.290  19.523  0.00  0.00    +0.000 NA
ATOM      8  C   UNL     1       0.931  10.215  19.986  0.00  0.00    +0.000 A 
ATOM      9  C   UNL     1      -0.189  10.346  20.775  0.00  0.00    +0.000 A 
ATOM     10  C   UNL     1      -0.593  11.628  21.046  0.00  0.00    +0.000 A 
ATOM     11  N   UNL     1       0.064  12.707  20.592  0.00  0.00    +0.000 NA
ATOM     12  C   UNL     1       2.655  13.531  18.217  0.00  0.00    +0.000 C 
ATOM     13  C   UNL     1       3.837  14.526  18.287  0.00  0.00    +0.000 C 
ENDROOT
BRANCH  10  14
ATOM     14  C   UNL     1      -1.776  11.897  21.853  0.00  0.00    +0.000 A 
ATOM     15  C   UNL     1      -1.867  11.637  23.207  0.00  0.00    +0.000 A 
ATOM     16  N   UNL     1      -3.103  12.035  23.642  0.00  0.00    +0.000 N 
ATOM     17  C   UNL     1      -3.832  12.550  22.596  0.00  0.00    +0.000 A 
ATOM     18  C   UNL     1      -5.128  13.078  22.572  0.00  0.00    +0.000 A 
ATOM     19  C   UNL     1      -5.623  13.530  21.345  0.00  0.00    +0.000 A 
ATOM     20  C   UNL     1      -4.855  13.453  20.186  0.00  0.00    +0.000 A 
ATOM     21  C   UNL     1      -3.563  12.925  20.229  0.00  0.00    +0.000 A 
ATOM     22  C   UNL     1      -3.029  12.470  21.456  0.00  0.00    +0.000 A 
ATOM     23  H   UNL     1      -3.438  11.970  24.593  0.00  0.00    +0.000 HD
ENDBRANCH  10  14
BRANCH   8  24
ATOM     24  C   UNL     1       1.465   8.893  19.599  0.00  0.00    +0.000 A 
ATOM     25  C   UNL     1       1.504   7.826  20.515  0.00  0.00    +0.000 A 
ATOM     26  C   UNL     1       2.010   6.573  20.149  0.00  0.00    +0.000 A 
ATOM     27  C   UNL     1       2.488   6.369  18.860  0.00  0.00    +0.000 A 
ATOM     28 CL   UNL     1       3.124   4.836  18.407  0.00  0.00    +0.000 Cl
ATOM     29  C   UNL     1       2.460   7.403  17.929  0.00  0.00    +0.000 A 
ATOM     30  C   UNL     1       1.956   8.653  18.300  0.00  0.00    +0.000 A 
ENDBRANCH   8  24
TORSDOF 2
ENDMDL
MODEL 8
REMARK VINA RESULT:      -7.4      3.369      7.004
REMARK  Name = 
REMARK  3 active torsions:
REMARK  status: ('A' for Active; 'I' for Inactive)
REMARK    1  A    between atoms: C_1  and  N_2
REMARK    2  A    between atoms: C_8  and  C_9
REMARK    3  A    between atoms: C_17  and  C_18
REMARK                            x       y       z     vdW  Elec       q    Type
REMARK                         _______ _______ _______ _____ _____    ______ ____
ROOT
ATOM      1  C   UNL     1       2.987  17.085  17.045  0.00  0.00    +0.000 C 
ATOM      2  N   UNL     1       2.692  16.224  18.189  0.00  0.00    +0.000 NA
ATOM      3  C   UNL     1       2.923  14.802  17.835  0.00  0.00    +0.000 C 
ATOM      4  C   UNL     1       2.529  13.823  18.968  0.00  0.00    +0.000 C 
ATOM      5  N   UNL     1       1.138  14.075  19.346  0.00  0.00    +0.000 N 
ATOM      6  C   UNL     1       0.413  13.065  19.938  0.00  0.00    +0.000 A 
ATOM      7  N   UNL     1      -0.854  13.312  20.307  0.00  0.00    +0.000 NA
ATOM      8  C   UNL     1      -1.599  12.295  20.787  0.00  0.00    +0.000 A 
ATOM      9  C   UNL     1      -1.092  11.021  20.902  0.00  0.00    +0.000 A 
ATOM     10  C   UNL     1       0.214  10.850  20.520  0.00  0.00    +0.000 A 
ATOM     11  N   UNL     1       0.966  11.853  20.041  0.00  0.00    +0.000 NA
ATOM     12  C   UNL     1       0.868  15.451  19.759  0.00  0.00    +0.000 C 
ATOM     13  C   UNL     1       1.283  16.406  18.616  0.00  0.00    +0.000 C 
ENDROOT
BRANCH  10  14
ATOM     14  C   UNL     1       0.870   9.552  20.614  0.00  0.00    +0.000 A 
ATOM     15  C   UNL     1       0.935   8.796  21.768  0.00  0.00    +0.000 A 
ATOM     16  N   UNL     1       1.599   7.633  21.487  0.00  0.00    +0.000 N 
ATOM     17  C   UNL     1       1.978   7.610  20.166  0.00  0.00    +0.000 A 
ATOM     18  C   UNL     1       2.666   6.629  19.441  0.00  0.00    +0.000 A 
ATOM     19  C   UNL     1       2.925   6.882  18.090  0.00  0.00    +0.000 A 
ATOM     20  C   UNL     1       2.517   8.069  17.488  0.00  0.00    +0.000 A 
ATOM     21  C   UNL     1       1.829   9.035  18.227  0.00  0.00    +0.000 A 
ATOM     22  C   UNL     1       1.543   8.805  19.591  0.00  0.00    +0.000 A 
ATOM     23  H   UNL     1       1.783   6.889  22.146  0.00  0.00    +0.000 HD
ENDBRANCH  10  14
BRANCH   8  24
ATOM     24  C   UNL     1      -2.983  12.625  21.181  0.00  0.00    +0.000 A 
ATOM     25  C   UNL     1      -4.024  12.649  20.235  0.00  0.00    +0.000 A 
ATOM     26  C   UNL     1      -5.337  12.961  20.607  0.00  0.00    +0.000 A 
ATOM     27  C   UNL     1      -5.629  13.258  21.933  0.00  0.00    +0.000 A 
ATOM     28 CL   UNL     1      -7.237  13.657  22.396  0.00  0.00    +0.000 Cl
ATOM     29  C   UNL     1      -4.622  13.239  22.894  0.00  0.00    +0.000 A 
ATOM     30  C   UNL     1      -3.312  12.929  22.517  0.00  0.00    +0.000 A 
ENDBRANCH   8  24
TORSDOF 2
ENDMDL
MODEL 9
REMARK VINA RESULT:      -7.3      3.312      5.742
REMARK  Name = 
REMARK  3 active torsions:
REMARK  status: ('A' for Active; 'I' for Inactive)
REMARK    1  A    between atoms: C_1  and  N_2
REMARK    2  A    between atoms: C_8  and  C_9
REMARK    3  A    between atoms: C_17  and  C_18
REMARK                            x       y       z     vdW  Elec       q    Type
REMARK                         _______ _______ _______ _____ _____    ______ ____
ROOT
ATOM      1  C   UNL     1      -4.720  13.195  24.244  0.00  0.00    +0.000 C 
ATOM      2  N   UNL     1      -3.310  13.279  23.867  0.00  0.00    +0.000 NA
ATOM      3  C   UNL     1      -3.129  14.261  22.771  0.00  0.00    +0.000 C 
ATOM      4  C   UNL     1      -1.673  14.325  22.249  0.00  0.00    +0.000 C 
ATOM      5  N   UNL     1      -1.254  12.980  21.853  0.00  0.00    +0.000 N 
ATOM      6  C   UNL     1      -0.244  12.839  20.928  0.00  0.00    +0.000 A 
ATOM      7  N   UNL     1       0.153  11.601  20.591  0.00  0.00    +0.000 NA
ATOM      8  C   UNL     1       1.065  11.459  19.607  0.00  0.00    +0.000 A 
ATOM      9  C   UNL     1       1.589  12.546  18.946  0.00  0.00    +0.000 A 
ATOM     10  C   UNL     1       1.147  13.778  19.357  0.00  0.00    +0.000 A 
ATOM     11  N   UNL     1       0.240  13.934  20.334  0.00  0.00    +0.000 NA
ATOM     12  C   UNL     1      -1.360  11.982  22.916  0.00  0.00    +0.000 C 
ATOM     13  C   UNL     1      -2.819  11.950  23.428  0.00  0.00    +0.000 C 
ENDROOT
BRANCH  10  14
ATOM     14  C   UNL     1       1.642  15.005  18.748  0.00  0.00    +0.000 A 
ATOM     15  C   UNL     1       2.972  15.250  18.466  0.00  0.00    +0.000 A 
ATOM     16  N   UNL     1       3.070  16.484  17.880  0.00  0.00    +0.000 N 
ATOM     17  C   UNL     1       1.827  17.059  17.773  0.00  0.00    +0.000 A 
ATOM     18  C   UNL     1       1.447  18.296  17.239  0.00  0.00    +0.000 A 
ATOM     19  C   UNL     1       0.089  18.629  17.271  0.00  0.00    +0.000 A 
ATOM     20  C   UNL     1      -0.852  17.761  17.818  0.00  0.00    +0.000 A 
ATOM     21  C   UNL     1      -0.455  16.530  18.344  0.00  0.00    +0.000 A 
ATOM     22  C   UNL     1       0.908  16.160  18.317  0.00  0.00    +0.000 A 
ATOM     23  H   UNL     1       3.927  16.914  17.560  0.00  0.00    +0.000 HD
ENDBRANCH  10  14
BRANCH   8  24
ATOM     24  C   UNL     1       1.467  10.076  19.281  0.00  0.00    +0.000 A 
ATOM     25  C   UNL     1       1.389   9.049  20.239  0.00  0.00    +0.000 A 
ATOM     26  C   UNL     1       1.770   7.738  19.930  0.00  0.00    +0.000 A 
ATOM     27  C   UNL     1       2.238   7.434  18.657  0.00  0.00    +0.000 A 
ATOM     28 CL   UNL     1       2.721   5.828  18.274  0.00  0.00    +0.000 Cl
ATOM     29  C   UNL     1       2.324   8.427  17.685  0.00  0.00    +0.000 A 
ATOM     30  C   UNL     1       1.945   9.735  17.999  0.00  0.00    +0.000 A 
ENDBRANCH   8  24
TORSDOF 2
ENDMDL
