MODEL 1
REMARK VINA RESULT:      -9.2      0.000      0.000
REMARK  Name = 
REMARK  8 active torsions:
REMARK  status: ('A' for Active; 'I' for Inactive)
REMARK    1  A    between atoms: C_1  and  O_2
REMARK    2  A    between atoms: O_2  and  C_3
REMARK    3  A    between atoms: C_12  and  O_13
REMARK    4  A    between atoms: O_13  and  C_14
REMARK    5  A    between atoms: C_14  and  C_15
REMARK    6  A    between atoms: C_15  and  C_16
REMARK    7  A    between atoms: C_16  and  N_17
REMARK    8  A    between atoms: C_21  and  C_22
REMARK                            x       y       z     vdW  Elec       q    Type
REMARK                         _______ _______ _______ _____ _____    ______ ____
ROOT
ATOM      1  C   UNL     1       3.317   3.811  19.387  0.00  0.00    +0.000 A 
ATOM      2  C   UNL     1       2.777   3.881  20.673  0.00  0.00    +0.000 A 
ATOM      3  C   UNL     1       2.178   5.045  21.135  0.00  0.00    +0.000 A 
ATOM      4  C   UNL     1       2.083   6.164  20.320  0.00  0.00    +0.000 A 
ATOM      5  C   UNL     1       1.495   7.321  20.817  0.00  0.00    +0.000 A 
ATOM      6  C   UNL     1       1.350   8.459  20.019  0.00  0.00    +0.000 A 
ATOM      7  N   UNL     1       1.811   8.416  18.736  0.00  0.00    +0.000 N 
ATOM      8  C   UNL     1       2.404   7.293  18.243  0.00  0.00    +0.000 A 
ATOM      9  C   UNL     1       2.572   6.124  18.999  0.00  0.00    +0.000 A 
ATOM     10  C   UNL     1       3.181   4.920  18.521  0.00  0.00    +0.000 A 
ATOM     11  C   UNL     1       1.576   9.550  17.803  0.00  0.00    +0.000 C 
ATOM     12  C   UNL     1       1.731  10.888  18.498  0.00  0.00    +0.000 C 
ATOM     13  C   UNL     1       0.902  10.921  19.749  0.00  0.00    +0.000 A 
ATOM     14  C   UNL     1       0.374  12.145  20.202  0.00  0.00    +0.000 A 
ATOM     15  C   UNL     1      -0.293  12.157  21.403  0.00  0.00    +0.000 A 
ATOM     16  C   UNL     1      -0.458  11.014  22.137  0.00  0.00    +0.000 A 
ATOM     17  C   UNL     1       0.028   9.795  21.709  0.00  0.00    +0.000 A 
ATOM     18  C   UNL     1       0.744   9.721  20.494  0.00  0.00    +0.000 A 
ATOM     19  O   UNL     1      -1.115  11.233  23.305  0.00  0.00    +0.000 OA
ATOM     20  C   UNL     1      -1.283  12.668  23.258  0.00  0.00    +0.000 C 
ATOM     21  O   UNL     1      -0.834  13.243  22.011  0.00  0.00    +0.000 OA
ENDROOT
BRANCH   1  23
ATOM     22  C   UNL     1       3.153   1.760  18.189  0.00  0.00    +0.000 C 
ATOM     23  O   UNL     1       3.943   2.674  18.954  0.00  0.00    +0.000 OA
ENDBRANCH   1  23
BRANCH  10  24
ATOM     24  O   UNL     1       3.677   4.996  17.226  0.00  0.00    +0.000 OA
BRANCH  24  25
ATOM     25  C   UNL     1       5.039   5.413  17.066  0.00  0.00    +0.000 C 
BRANCH  25  26
ATOM     26  C   UNL     1       5.840   4.277  16.429  0.00  0.00    +0.000 C 
BRANCH  26  27
ATOM     27  C   UNL     1       7.162   4.792  15.860  0.00  0.00    +0.000 C 
BRANCH  27  28
ATOM     28  N   UNL     1       7.158   4.631  14.385  0.00  0.00    +0.000 N 
ATOM     29  C   UNL     1       7.941   5.424  13.618  0.00  0.00    +0.000 A 
ATOM     30  C   UNL     1       7.907   5.328  12.234  0.00  0.00    +0.000 A 
ATOM     31  C   UNL     1       7.044   4.419  11.636  0.00  0.00    +0.000 A 
ATOM     32  C   UNL     1       6.246   3.599  12.432  0.00  0.00    +0.000 A 
ATOM     33  C   UNL     1       5.268   2.635  11.826  0.00  0.00    +0.000 C 
ATOM     34  C   UNL     1       6.350   3.703  13.818  0.00  0.00    +0.000 A 
ENDBRANCH  27  28
ENDBRANCH  26  27
ENDBRANCH  25  26
ENDBRANCH  24  25
ENDBRANCH  10  24
TORSDOF 6
ENDMDL
MODEL 2
REMARK VINA RESULT:      -9.1      1.602      2.869
REMARK  Name = 
REMARK  8 active torsions:
REMARK  status: ('A' for Active; 'I' for Inactive)
REMARK    1  A    between atoms: C_1  and  O_2
REMARK    2  A    between atoms: O_2  and  C_3
REMARK    3  A    between atoms: C_12  and  O_13
REMARK    4  A    between atoms: O_13  and  C_14
REMARK    5  A    between atoms: C_14  and  C_15
REMARK    6  A    between atoms: C_15  and  C_16
REMARK    7  A    between atoms: C_16  and  N_17
REMARK    8  A    between atoms: C_21  and  C_22
REMARK                            x       y       z     vdW  Elec       q    Type
REMARK                         _______ _______ _______ _____ _____    ______ ____
ROOT
ATOM      1  C   UNL     1       3.204   4.073  19.322  0.00  0.00    +0.000 A 
ATOM      2  C   UNL     1       2.550   4.074  20.555  0.00  0.00    +0.000 A 
ATOM      3  C   UNL     1       1.923   5.217  21.031  0.00  0.00    +0.000 A 
ATOM      4  C   UNL     1       1.913   6.384  20.281  0.00  0.00    +0.000 A 
ATOM      5  C   UNL     1       1.295   7.518  20.793  0.00  0.00    +0.000 A 
ATOM      6  C   UNL     1       1.234   8.704  20.056  0.00  0.00    +0.000 A 
ATOM      7  N   UNL     1       1.809   8.731  18.820  0.00  0.00    +0.000 N 
ATOM      8  C   UNL     1       2.434   7.631  18.315  0.00  0.00    +0.000 A 
ATOM      9  C   UNL     1       2.521   6.416  19.010  0.00  0.00    +0.000 A 
ATOM     10  C   UNL     1       3.159   5.234  18.516  0.00  0.00    +0.000 A 
ATOM     11  C   UNL     1       1.671   9.922  17.941  0.00  0.00    +0.000 C 
ATOM     12  C   UNL     1       1.775  11.214  18.727  0.00  0.00    +0.000 C 
ATOM     13  C   UNL     1       0.836  11.184  19.898  0.00  0.00    +0.000 A 
ATOM     14  C   UNL     1       0.281  12.387  20.375  0.00  0.00    +0.000 A 
ATOM     15  C   UNL     1      -0.493  12.336  21.510  0.00  0.00    +0.000 A 
ATOM     16  C   UNL     1      -0.735  11.154  22.155  0.00  0.00    +0.000 A 
ATOM     17  C   UNL     1      -0.224   9.956  21.698  0.00  0.00    +0.000 A 
ATOM     18  C   UNL     1       0.599   9.944  20.551  0.00  0.00    +0.000 A 
ATOM     19  O   UNL     1      -1.494  11.313  23.270  0.00  0.00    +0.000 OA
ATOM     20  C   UNL     1      -1.643  12.751  23.296  0.00  0.00    +0.000 C 
ATOM     21  O   UNL     1      -1.076  13.393  22.131  0.00  0.00    +0.000 OA
ENDROOT
BRANCH   1  23
ATOM     22  C   UNL     1       4.590   2.212  19.855  0.00  0.00    +0.000 C 
ATOM     23  O   UNL     1       3.856   2.954  18.878  0.00  0.00    +0.000 OA
ENDBRANCH   1  23
BRANCH  10  24
ATOM     24  O   UNL     1       3.771   5.380  17.278  0.00  0.00    +0.000 OA
BRANCH  24  25
ATOM     25  C   UNL     1       4.356   4.210  16.692  0.00  0.00    +0.000 C 
BRANCH  25  26
ATOM     26  C   UNL     1       5.169   4.618  15.463  0.00  0.00    +0.000 C 
BRANCH  26  27
ATOM     27  C   UNL     1       6.653   4.308  15.661  0.00  0.00    +0.000 C 
BRANCH  27  28
ATOM     28  N   UNL     1       7.175   5.110  16.794  0.00  0.00    +0.000 N 
ATOM     29  C   UNL     1       7.499   4.502  17.959  0.00  0.00    +0.000 A 
ATOM     30  C   UNL     1       7.933   5.243  19.050  0.00  0.00    +0.000 A 
ATOM     31  C   UNL     1       8.014   6.625  18.943  0.00  0.00    +0.000 A 
ATOM     32  C   UNL     1       7.686   7.246  17.739  0.00  0.00    +0.000 A 
ATOM     33  C   UNL     1       7.717   8.739  17.597  0.00  0.00    +0.000 C 
ATOM     34  C   UNL     1       7.299   6.453  16.660  0.00  0.00    +0.000 A 
ENDBRANCH  27  28
ENDBRANCH  26  27
ENDBRANCH  25  26
ENDBRANCH  24  25
ENDBRANCH  10  24
TORSDOF 6
ENDMDL
MODEL 3
REMARK VINA RESULT:      -9.1      0.506      1.269
REMARK  Name = 
REMARK  8 active torsions:
REMARK  status: ('A' for Active; 'I' for Inactive)
REMARK    1  A    between atoms: C_1  and  O_2
REMARK    2  A    between atoms: O_2  and  C_3
REMARK    3  A    between atoms: C_12  and  O_13
REMARK    4  A    between atoms: O_13  and  C_14
REMARK    5  A    between atoms: C_14  and  C_15
REMARK    6  A    between atoms: C_15  and  C_16
REMARK    7  A    between atoms: C_16  and  N_17
REMARK    8  A    between atoms: C_21  and  C_22
REMARK                            x       y       z     vdW  Elec       q    Type
REMARK                         _______ _______ _______ _____ _____    ______ ____
ROOT
ATOM      1  C   UNL     1       3.414   3.906  19.251  0.00  0.00    +0.000 A 
ATOM      2  C   UNL     1       2.779   3.900  20.494  0.00  0.00    +0.000 A 
ATOM      3  C   UNL     1       2.136   5.032  20.974  0.00  0.00    +0.000 A 
ATOM      4  C   UNL     1       2.091   6.196  20.219  0.00  0.00    +0.000 A 
ATOM      5  C   UNL     1       1.457   7.319  20.735  0.00  0.00    +0.000 A 
ATOM      6  C   UNL     1       1.362   8.500  19.993  0.00  0.00    +0.000 A 
ATOM      7  N   UNL     1       1.918   8.532  18.748  0.00  0.00    +0.000 N 
ATOM      8  C   UNL     1       2.557   7.442  18.240  0.00  0.00    +0.000 A 
ATOM      9  C   UNL     1       2.679   6.233  18.939  0.00  0.00    +0.000 A 
ATOM     10  C   UNL     1       3.334   5.062  18.441  0.00  0.00    +0.000 A 
ATOM     11  C   UNL     1       1.744   9.717  17.866  0.00  0.00    +0.000 C 
ATOM     12  C   UNL     1       1.833  11.014  18.645  0.00  0.00    +0.000 C 
ATOM     13  C   UNL     1       0.912  10.971  19.829  0.00  0.00    +0.000 A 
ATOM     14  C   UNL     1       0.340  12.165  20.309  0.00  0.00    +0.000 A 
ATOM     15  C   UNL     1      -0.416  12.104  21.456  0.00  0.00    +0.000 A 
ATOM     16  C   UNL     1      -0.625  10.920  22.109  0.00  0.00    +0.000 A 
ATOM     17  C   UNL     1      -0.097   9.730  21.651  0.00  0.00    +0.000 A 
ATOM     18  C   UNL     1       0.709   9.730  20.492  0.00  0.00    +0.000 A 
ATOM     19  O   UNL     1      -1.370  11.069  23.235  0.00  0.00    +0.000 OA
ATOM     20  C   UNL     1      -1.548  12.504  23.256  0.00  0.00    +0.000 C 
ATOM     21  O   UNL     1      -1.011  13.152  22.081  0.00  0.00    +0.000 OA
ENDROOT
BRANCH   1  23
ATOM     22  C   UNL     1       3.278   1.704  18.355  0.00  0.00    +0.000 C 
ATOM     23  O   UNL     1       4.082   2.798  18.803  0.00  0.00    +0.000 OA
ENDBRANCH   1  23
BRANCH  10  24
ATOM     24  O   UNL     1       3.924   5.214  17.193  0.00  0.00    +0.000 OA
BRANCH  24  25
ATOM     25  C   UNL     1       5.215   5.836  17.148  0.00  0.00    +0.000 C 
BRANCH  25  26
ATOM     26  C   UNL     1       6.264   4.789  16.769  0.00  0.00    +0.000 C 
BRANCH  26  27
ATOM     27  C   UNL     1       5.668   3.730  15.842  0.00  0.00    +0.000 C 
BRANCH  27  28
ATOM     28  N   UNL     1       6.117   3.986  14.451  0.00  0.00    +0.000 N 
ATOM     29  C   UNL     1       5.546   3.314  13.424  0.00  0.00    +0.000 A 
ATOM     30  C   UNL     1       5.993   3.497  12.123  0.00  0.00    +0.000 A 
ATOM     31  C   UNL     1       7.050   4.365  11.882  0.00  0.00    +0.000 A 
ATOM     32  C   UNL     1       7.628   5.060  12.943  0.00  0.00    +0.000 A 
ATOM     33  C   UNL     1       8.801   5.972  12.732  0.00  0.00    +0.000 C 
ATOM     34  C   UNL     1       7.114   4.875  14.225  0.00  0.00    +0.000 A 
ENDBRANCH  27  28
ENDBRANCH  26  27
ENDBRANCH  25  26
ENDBRANCH  24  25
ENDBRANCH  10  24
TORSDOF 6
ENDMDL
MODEL 4
REMARK VINA RESULT:      -8.5      3.428     10.429
REMARK  Name = 
REMARK  8 active torsions:
REMARK  status: ('A' for Active; 'I' for Inactive)
REMARK    1  A    between atoms: C_1  and  O_2
REMARK    2  A    between atoms: O_2  and  C_3
REMARK    3  A    between atoms: C_12  and  O_13
REMARK    4  A    between atoms: O_13  and  C_14
REMARK    5  A    between atoms: C_14  and  C_15
REMARK    6  A    between atoms: C_15  and  C_16
REMARK    7  A    between atoms: C_16  and  N_17
REMARK    8  A    between atoms: C_21  and  C_22
REMARK                            x       y       z     vdW  Elec       q    Type
REMARK                         _______ _______ _______ _____ _____    ______ ____
ROOT
ATOM      1  C   UNL     1      -1.071  11.594  22.361  0.00  0.00    +0.000 A 
ATOM      2  C   UNL     1      -1.042  10.492  23.218  0.00  0.00    +0.000 A 
ATOM      3  C   UNL     1      -0.395   9.320  22.853  0.00  0.00    +0.000 A 
ATOM      4  C   UNL     1       0.258   9.220  21.633  0.00  0.00    +0.000 A 
ATOM      5  C   UNL     1       0.880   8.027  21.287  0.00  0.00    +0.000 A 
ATOM      6  C   UNL     1       1.576   7.896  20.083  0.00  0.00    +0.000 A 
ATOM      7  N   UNL     1       1.623   8.968  19.240  0.00  0.00    +0.000 N 
ATOM      8  C   UNL     1       1.003  10.137  19.560  0.00  0.00    +0.000 A 
ATOM      9  C   UNL     1       0.294  10.323  20.756  0.00  0.00    +0.000 A 
ATOM     10  C   UNL     1      -0.366  11.534  21.137  0.00  0.00    +0.000 A 
ATOM     11  C   UNL     1       2.449   8.929  18.003  0.00  0.00    +0.000 C 
ATOM     12  C   UNL     1       2.375   7.577  17.322  0.00  0.00    +0.000 C 
ATOM     13  C   UNL     1       2.667   6.484  18.308  0.00  0.00    +0.000 A 
ATOM     14  C   UNL     1       3.269   5.290  17.865  0.00  0.00    +0.000 A 
ATOM     15  C   UNL     1       3.430   4.271  18.773  0.00  0.00    +0.000 A 
ATOM     16  C   UNL     1       3.034   4.410  20.076  0.00  0.00    +0.000 A 
ATOM     17  C   UNL     1       2.464   5.576  20.546  0.00  0.00    +0.000 A 
ATOM     18  C   UNL     1       2.249   6.650  19.656  0.00  0.00    +0.000 A 
ATOM     19  O   UNL     1       3.249   3.287  20.809  0.00  0.00    +0.000 OA
ATOM     20  C   UNL     1       3.760   2.392  19.795  0.00  0.00    +0.000 C 
ATOM     21  O   UNL     1       3.952   3.045  18.519  0.00  0.00    +0.000 OA
ENDROOT
BRANCH   1  23
ATOM     22  C   UNL     1      -0.969  13.792  23.270  0.00  0.00    +0.000 C 
ATOM     23  O   UNL     1      -1.747  12.732  22.709  0.00  0.00    +0.000 OA
ENDBRANCH   1  23
BRANCH  10  24
ATOM     24  O   UNL     1      -0.317  12.545  20.185  0.00  0.00    +0.000 OA
BRANCH  24  25
ATOM     25  C   UNL     1      -1.547  12.904  19.543  0.00  0.00    +0.000 C 
BRANCH  25  26
ATOM     26  C   UNL     1      -2.298  11.630  19.150  0.00  0.00    +0.000 C 
BRANCH  26  27
ATOM     27  C   UNL     1      -3.421  11.941  18.162  0.00  0.00    +0.000 C 
BRANCH  27  28
ATOM     28  N   UNL     1      -4.729  11.639  18.795  0.00  0.00    +0.000 N 
ATOM     29  C   UNL     1      -5.565  10.743  18.221  0.00  0.00    +0.000 A 
ATOM     30  C   UNL     1      -6.817  10.491  18.765  0.00  0.00    +0.000 A 
ATOM     31  C   UNL     1      -7.217  11.185  19.900  0.00  0.00    +0.000 A 
ATOM     32  C   UNL     1      -6.348  12.101  20.491  0.00  0.00    +0.000 A 
ATOM     33  C   UNL     1      -6.759  12.904  21.691  0.00  0.00    +0.000 C 
ATOM     34  C   UNL     1      -5.085  12.285  19.932  0.00  0.00    +0.000 A 
ENDBRANCH  27  28
ENDBRANCH  26  27
ENDBRANCH  25  26
ENDBRANCH  24  25
ENDBRANCH  10  24
TORSDOF 6
ENDMDL
MODEL 5
REMARK VINA RESULT:      -8.5      0.757      1.201
REMARK  Name = 
REMARK  8 active torsions:
REMARK  status: ('A' for Active; 'I' for Inactive)
REMARK    1  A    between atoms: C_1  and  O_2
REMARK    2  A    between atoms: O_2  and  C_3
REMARK    3  A    between atoms: C_12  and  O_13
REMARK    4  A    between atoms: O_13  and  C_14
REMARK    5  A    between atoms: C_14  and  C_15
REMARK    6  A    between atoms: C_15  and  C_16
REMARK    7  A    between atoms: C_16  and  N_17
REMARK    8  A    between atoms: C_21  and  C_22
REMARK                            x       y       z     vdW  Elec       q    Type
REMARK                         _______ _______ _______ _____ _____    ______ ____
ROOT
ATOM      1  C   UNL     1       3.322   3.793  19.204  0.00  0.00    +0.000 A 
ATOM      2  C   UNL     1       2.771   3.842  20.486  0.00  0.00    +0.000 A 
ATOM      3  C   UNL     1       2.180   5.002  20.967  0.00  0.00    +0.000 A 
ATOM      4  C   UNL     1       2.106   6.140  20.177  0.00  0.00    +0.000 A 
ATOM      5  C   UNL     1       1.527   7.293  20.694  0.00  0.00    +0.000 A 
ATOM      6  C   UNL     1       1.403   8.449  19.920  0.00  0.00    +0.000 A 
ATOM      7  N   UNL     1       1.876   8.429  18.640  0.00  0.00    +0.000 N 
ATOM      8  C   UNL     1       2.461   7.310  18.129  0.00  0.00    +0.000 A 
ATOM      9  C   UNL     1       2.608   6.123  18.860  0.00  0.00    +0.000 A 
ATOM     10  C   UNL     1       3.208   4.923  18.361  0.00  0.00    +0.000 A 
ATOM     11  C   UNL     1       1.663   9.586  17.731  0.00  0.00    +0.000 C 
ATOM     12  C   UNL     1       1.826  10.907  18.456  0.00  0.00    +0.000 C 
ATOM     13  C   UNL     1       0.986  10.921  19.700  0.00  0.00    +0.000 A 
ATOM     14  C   UNL     1       0.467  12.141  20.174  0.00  0.00    +0.000 A 
ATOM     15  C   UNL     1      -0.212  12.134  21.370  0.00  0.00    +0.000 A 
ATOM     16  C   UNL     1      -0.397  10.977  22.076  0.00  0.00    +0.000 A 
ATOM     17  C   UNL     1       0.079   9.763  21.626  0.00  0.00    +0.000 A 
ATOM     18  C   UNL     1       0.806   9.707  20.417  0.00  0.00    +0.000 A 
ATOM     19  O   UNL     1      -1.063  11.178  23.243  0.00  0.00    +0.000 OA
ATOM     20  C   UNL     1      -1.214  12.616  23.226  0.00  0.00    +0.000 C 
ATOM     21  O   UNL     1      -0.746  13.214  21.996  0.00  0.00    +0.000 OA
ENDROOT
BRANCH   1  23
ATOM     22  C   UNL     1       3.119   1.718  18.055  0.00  0.00    +0.000 C 
ATOM     23  O   UNL     1       3.939   2.659  18.752  0.00  0.00    +0.000 OA
ENDBRANCH   1  23
BRANCH  10  24
ATOM     24  O   UNL     1       3.717   5.022  17.073  0.00  0.00    +0.000 OA
BRANCH  24  25
ATOM     25  C   UNL     1       5.143   5.065  16.931  0.00  0.00    +0.000 C 
BRANCH  25  26
ATOM     26  C   UNL     1       5.491   5.560  15.526  0.00  0.00    +0.000 C 
BRANCH  26  27
ATOM     27  C   UNL     1       6.623   4.731  14.920  0.00  0.00    +0.000 C 
BRANCH  27  28
ATOM     28  N   UNL     1       6.142   4.080  13.676  0.00  0.00    +0.000 N 
ATOM     29  C   UNL     1       4.829   4.128  13.353  0.00  0.00    +0.000 A 
ATOM     30  C   UNL     1       4.351   3.475  12.225  0.00  0.00    +0.000 A 
ATOM     31  C   UNL     1       5.234   2.751  11.434  0.00  0.00    +0.000 A 
ATOM     32  C   UNL     1       6.587   2.712  11.767  0.00  0.00    +0.000 A 
ATOM     33  C   UNL     1       7.565   1.904  10.965  0.00  0.00    +0.000 C 
ATOM     34  C   UNL     1       7.023   3.421  12.885  0.00  0.00    +0.000 A 
ENDBRANCH  27  28
ENDBRANCH  26  27
ENDBRANCH  25  26
ENDBRANCH  24  25
ENDBRANCH  10  24
TORSDOF 6
ENDMDL
MODEL 6
REMARK VINA RESULT:      -8.4      3.465     10.141
REMARK  Name = 
REMARK  8 active torsions:
REMARK  status: ('A' for Active; 'I' for Inactive)
REMARK    1  A    between atoms: C_1  and  O_2
REMARK    2  A    between atoms: O_2  and  C_3
REMARK    3  A    between atoms: C_12  and  O_13
REMARK    4  A    between atoms: O_13  and  C_14
REMARK    5  A    between atoms: C_14  and  C_15
REMARK    6  A    between atoms: C_15  and  C_16
REMARK    7  A    between atoms: C_16  and  N_17
REMARK    8  A    between atoms: C_21  and  C_22
REMARK                            x       y       z     vdW  Elec       q    Type
REMARK                         _______ _______ _______ _____ _____    ______ ____
ROOT
ATOM      1  C   UNL     1      -1.071  11.669  22.428  0.00  0.00    +0.000 A 
ATOM      2  C   UNL     1      -1.050  10.563  23.280  0.00  0.00    +0.000 A 
ATOM      3  C   UNL     1      -0.415   9.386  22.909  0.00  0.00    +0.000 A 
ATOM      4  C   UNL     1       0.233   9.286  21.686  0.00  0.00    +0.000 A 
ATOM      5  C   UNL     1       0.842   8.088  21.333  0.00  0.00    +0.000 A 
ATOM      6  C   UNL     1       1.533   7.957  20.126  0.00  0.00    +0.000 A 
ATOM      7  N   UNL     1       1.588   9.032  19.287  0.00  0.00    +0.000 N 
ATOM      8  C   UNL     1       0.980  10.205  19.615  0.00  0.00    +0.000 A 
ATOM      9  C   UNL     1       0.277  10.393  20.813  0.00  0.00    +0.000 A 
ATOM     10  C   UNL     1      -0.370  11.609  21.202  0.00  0.00    +0.000 A 
ATOM     11  C   UNL     1       2.409   8.991  18.048  0.00  0.00    +0.000 C 
ATOM     12  C   UNL     1       2.320   7.642  17.361  0.00  0.00    +0.000 C 
ATOM     13  C   UNL     1       2.605   6.542  18.341  0.00  0.00    +0.000 A 
ATOM     14  C   UNL     1       3.193   5.345  17.890  0.00  0.00    +0.000 A 
ATOM     15  C   UNL     1       3.347   4.320  18.794  0.00  0.00    +0.000 A 
ATOM     16  C   UNL     1       2.957   4.456  20.098  0.00  0.00    +0.000 A 
ATOM     17  C   UNL     1       2.400   5.625  20.575  0.00  0.00    +0.000 A 
ATOM     18  C   UNL     1       2.192   6.706  19.691  0.00  0.00    +0.000 A 
ATOM     19  O   UNL     1       3.163   3.328  20.825  0.00  0.00    +0.000 OA
ATOM     20  C   UNL     1       3.663   2.433  19.805  0.00  0.00    +0.000 C 
ATOM     21  O   UNL     1       3.857   3.090  18.532  0.00  0.00    +0.000 OA
ENDROOT
BRANCH   1  23
ATOM     22  C   UNL     1      -3.149  12.822  22.576  0.00  0.00    +0.000 C 
ATOM     23  O   UNL     1      -1.734  12.812  22.784  0.00  0.00    +0.000 OA
ENDBRANCH   1  23
BRANCH  10  24
ATOM     24  O   UNL     1      -0.314  12.623  20.255  0.00  0.00    +0.000 OA
BRANCH  24  25
ATOM     25  C   UNL     1       0.537  13.741  20.538  0.00  0.00    +0.000 C 
BRANCH  25  26
ATOM     26  C   UNL     1       1.265  14.155  19.258  0.00  0.00    +0.000 C 
BRANCH  26  27
ATOM     27  C   UNL     1       1.943  15.513  19.430  0.00  0.00    +0.000 C 
BRANCH  27  28
ATOM     28  N   UNL     1       1.239  16.522  18.601  0.00  0.00    +0.000 N 
ATOM     29  C   UNL     1       1.913  17.196  17.640  0.00  0.00    +0.000 A 
ATOM     30  C   UNL     1       1.287  18.185  16.895  0.00  0.00    +0.000 A 
ATOM     31  C   UNL     1      -0.042  18.495  17.156  0.00  0.00    +0.000 A 
ATOM     32  C   UNL     1      -0.734  17.792  18.141  0.00  0.00    +0.000 A 
ATOM     33  C   UNL     1      -2.156  18.126  18.485  0.00  0.00    +0.000 C 
ATOM     34  C   UNL     1      -0.072  16.777  18.831  0.00  0.00    +0.000 A 
ENDBRANCH  27  28
ENDBRANCH  26  27
ENDBRANCH  25  26
ENDBRANCH  24  25
ENDBRANCH  10  24
TORSDOF 6
ENDMDL
MODEL 7
REMARK VINA RESULT:      -8.2      1.621      2.858
REMARK  Name = 
REMARK  8 active torsions:
REMARK  status: ('A' for Active; 'I' for Inactive)
REMARK    1  A    between atoms: C_1  and  O_2
REMARK    2  A    between atoms: O_2  and  C_3
REMARK    3  A    between atoms: C_12  and  O_13
REMARK    4  A    between atoms: O_13  and  C_14
REMARK    5  A    between atoms: C_14  and  C_15
REMARK    6  A    between atoms: C_15  and  C_16
REMARK    7  A    between atoms: C_16  and  N_17
REMARK    8  A    between atoms: C_21  and  C_22
REMARK                            x       y       z     vdW  Elec       q    Type
REMARK                         _______ _______ _______ _____ _____    ______ ____
ROOT
ATOM      1  C   UNL     1       3.016   3.218  19.690  0.00  0.00    +0.000 A 
ATOM      2  C   UNL     1       2.466   3.421  20.957  0.00  0.00    +0.000 A 
ATOM      3  C   UNL     1       1.956   4.658  21.325  0.00  0.00    +0.000 A 
ATOM      4  C   UNL     1       1.961   5.721  20.433  0.00  0.00    +0.000 A 
ATOM      5  C   UNL     1       1.462   6.953  20.836  0.00  0.00    +0.000 A 
ATOM      6  C   UNL     1       1.418   8.039  19.958  0.00  0.00    +0.000 A 
ATOM      7  N   UNL     1       1.892   7.869  18.690  0.00  0.00    +0.000 N 
ATOM      8  C   UNL     1       2.400   6.671  18.289  0.00  0.00    +0.000 A 
ATOM      9  C   UNL     1       2.464   5.548  19.127  0.00  0.00    +0.000 A 
ATOM     10  C   UNL     1       2.981   4.270  18.746  0.00  0.00    +0.000 A 
ATOM     11  C   UNL     1       1.761   8.949  17.676  0.00  0.00    +0.000 C 
ATOM     12  C   UNL     1       2.012  10.317  18.279  0.00  0.00    +0.000 C 
ATOM     13  C   UNL     1       1.172  10.503  19.508  0.00  0.00    +0.000 A 
ATOM     14  C   UNL     1       0.738  11.794  19.864  0.00  0.00    +0.000 A 
ATOM     15  C   UNL     1       0.057  11.944  21.049  0.00  0.00    +0.000 A 
ATOM     16  C   UNL     1      -0.208  10.872  21.858  0.00  0.00    +0.000 A 
ATOM     17  C   UNL     1       0.184   9.591  21.525  0.00  0.00    +0.000 A 
ATOM     18  C   UNL     1       0.908   9.375  20.333  0.00  0.00    +0.000 A 
ATOM     19  O   UNL     1      -0.862  11.225  22.995  0.00  0.00    +0.000 OA
ATOM     20  C   UNL     1      -0.914  12.662  22.845  0.00  0.00    +0.000 C 
ATOM     21  O   UNL     1      -0.403  13.110  21.569  0.00  0.00    +0.000 OA
ENDROOT
BRANCH   1  23
ATOM     22  C   UNL     1       4.706   1.588  20.088  0.00  0.00    +0.000 C 
ATOM     23  O   UNL     1       3.555   2.007  19.349  0.00  0.00    +0.000 OA
ENDBRANCH   1  23
BRANCH  10  24
ATOM     24  O   UNL     1       3.499   4.214  17.459  0.00  0.00    +0.000 OA
BRANCH  24  25
ATOM     25  C   UNL     1       4.926   4.213  17.322  0.00  0.00    +0.000 C 
BRANCH  25  26
ATOM     26  C   UNL     1       5.288   4.103  15.841  0.00  0.00    +0.000 C 
BRANCH  26  27
ATOM     27  C   UNL     1       6.734   4.534  15.598  0.00  0.00    +0.000 C 
BRANCH  27  28
ATOM     28  N   UNL     1       7.144   5.494  16.653  0.00  0.00    +0.000 N 
ATOM     29  C   UNL     1       7.176   6.819  16.383  0.00  0.00    +0.000 A 
ATOM     30  C   UNL     1       7.613   7.727  17.338  0.00  0.00    +0.000 A 
ATOM     31  C   UNL     1       8.039   7.261  18.574  0.00  0.00    +0.000 A 
ATOM     32  C   UNL     1       7.996   5.895  18.849  0.00  0.00    +0.000 A 
ATOM     33  C   UNL     1       8.489   5.346  20.156  0.00  0.00    +0.000 C 
ATOM     34  C   UNL     1       7.507   5.029  17.873  0.00  0.00    +0.000 A 
ENDBRANCH  27  28
ENDBRANCH  26  27
ENDBRANCH  25  26
ENDBRANCH  24  25
ENDBRANCH  10  24
TORSDOF 6
ENDMDL
MODEL 8
REMARK VINA RESULT:      -8.1      3.387      9.747
REMARK  Name = 
REMARK  8 active torsions:
REMARK  status: ('A' for Active; 'I' for Inactive)
REMARK    1  A    between atoms: C_1  and  O_2
REMARK    2  A    between atoms: O_2  and  C_3
REMARK    3  A    between atoms: C_12  and  O_13
REMARK    4  A    between atoms: O_13  and  C_14
REMARK    5  A    between atoms: C_14  and  C_15
REMARK    6  A    between atoms: C_15  and  C_16
REMARK    7  A    between atoms: C_16  and  N_17
REMARK    8  A    between atoms: C_21  and  C_22
REMARK                            x       y       z     vdW  Elec       q    Type
REMARK                         _______ _______ _______ _____ _____    ______ ____
ROOT
ATOM      1  C   UNL     1      -0.850  11.598  22.443  0.00  0.00    +0.000 A 
ATOM      2  C   UNL     1      -0.911  10.456  23.243  0.00  0.00    +0.000 A 
ATOM      3  C   UNL     1      -0.321   9.267  22.838  0.00  0.00    +0.000 A 
ATOM      4  C   UNL     1       0.364   9.190  21.634  0.00  0.00    +0.000 A 
ATOM      5  C   UNL     1       0.927   7.980  21.246  0.00  0.00    +0.000 A 
ATOM      6  C   UNL     1       1.652   7.868  20.057  0.00  0.00    +0.000 A 
ATOM      7  N   UNL     1       1.787   8.976  19.271  0.00  0.00    +0.000 N 
ATOM      8  C   UNL     1       1.225  10.162  19.633  0.00  0.00    +0.000 A 
ATOM      9  C   UNL     1       0.490  10.330  20.816  0.00  0.00    +0.000 A 
ATOM     10  C   UNL     1      -0.111  11.558  21.239  0.00  0.00    +0.000 A 
ATOM     11  C   UNL     1       2.647   8.949  18.058  0.00  0.00    +0.000 C 
ATOM     12  C   UNL     1       2.518   7.639  17.307  0.00  0.00    +0.000 C 
ATOM     13  C   UNL     1       2.716   6.484  18.244  0.00  0.00    +0.000 A 
ATOM     14  C   UNL     1       3.261   5.280  17.758  0.00  0.00    +0.000 A 
ATOM     15  C   UNL     1       3.335   4.210  18.617  0.00  0.00    +0.000 A 
ATOM     16  C   UNL     1       2.907   4.307  19.913  0.00  0.00    +0.000 A 
ATOM     17  C   UNL     1       2.390   5.479  20.425  0.00  0.00    +0.000 A 
ATOM     18  C   UNL     1       2.265   6.607  19.586  0.00  0.00    +0.000 A 
ATOM     19  O   UNL     1       3.033   3.138  20.594  0.00  0.00    +0.000 OA
ATOM     20  C   UNL     1       3.524   2.266  19.550  0.00  0.00    +0.000 C 
ATOM     21  O   UNL     1       3.794   2.968  18.316  0.00  0.00    +0.000 OA
ENDROOT
BRANCH   1  23
ATOM     22  C   UNL     1      -2.816  12.635  23.296  0.00  0.00    +0.000 C 
ATOM     23  O   UNL     1      -1.470  12.755  22.830  0.00  0.00    +0.000 OA
ENDBRANCH   1  23
BRANCH  10  24
ATOM     24  O   UNL     1       0.026  12.610  20.342  0.00  0.00    +0.000 OA
BRANCH  24  25
ATOM     25  C   UNL     1      -1.155  13.049  19.659  0.00  0.00    +0.000 C 
BRANCH  25  26
ATOM     26  C   UNL     1      -1.194  14.578  19.658  0.00  0.00    +0.000 C 
BRANCH  26  27
ATOM     27  C   UNL     1       0.032  15.157  20.364  0.00  0.00    +0.000 C 
BRANCH  27  28
ATOM     28  N   UNL     1       0.882  15.861  19.373  0.00  0.00    +0.000 N 
ATOM     29  C   UNL     1       0.430  16.989  18.777  0.00  0.00    +0.000 A 
ATOM     30  C   UNL     1       1.186  17.629  17.804  0.00  0.00    +0.000 A 
ATOM     31  C   UNL     1       2.410  17.089  17.431  0.00  0.00    +0.000 A 
ATOM     32  C   UNL     1       2.874  15.933  18.055  0.00  0.00    +0.000 A 
ATOM     33  C   UNL     1       4.170  15.293  17.649  0.00  0.00    +0.000 C 
ATOM     34  C   UNL     1       2.098  15.353  19.056  0.00  0.00    +0.000 A 
ENDBRANCH  27  28
ENDBRANCH  26  27
ENDBRANCH  25  26
ENDBRANCH  24  25
ENDBRANCH  10  24
TORSDOF 6
ENDMDL
MODEL 9
REMARK VINA RESULT:      -8.1      3.372      9.219
REMARK  Name = 
REMARK  8 active torsions:
REMARK  status: ('A' for Active; 'I' for Inactive)
REMARK    1  A    between atoms: C_1  and  O_2
REMARK    2  A    between atoms: O_2  and  C_3
REMARK    3  A    between atoms: C_12  and  O_13
REMARK    4  A    between atoms: O_13  and  C_14
REMARK    5  A    between atoms: C_14  and  C_15
REMARK    6  A    between atoms: C_15  and  C_16
REMARK    7  A    between atoms: C_16  and  N_17
REMARK    8  A    between atoms: C_21  and  C_22
REMARK                            x       y       z     vdW  Elec       q    Type
REMARK                         _______ _______ _______ _____ _____    ______ ____
ROOT
ATOM      1  C   UNL     1      -0.787  11.505  22.565  0.00  0.00    +0.000 A 
ATOM      2  C   UNL     1      -0.836  10.349  23.346  0.00  0.00    +0.000 A 
ATOM      3  C   UNL     1      -0.248   9.168  22.913  0.00  0.00    +0.000 A 
ATOM      4  C   UNL     1       0.422   9.114  21.699  0.00  0.00    +0.000 A 
ATOM      5  C   UNL     1       0.983   7.913  21.283  0.00  0.00    +0.000 A 
ATOM      6  C   UNL     1       1.693   7.823  20.083  0.00  0.00    +0.000 A 
ATOM      7  N   UNL     1       1.816   8.944  19.315  0.00  0.00    +0.000 N 
ATOM      8  C   UNL     1       1.255  10.123  19.705  0.00  0.00    +0.000 A 
ATOM      9  C   UNL     1       0.535  10.269  20.899  0.00  0.00    +0.000 A 
ATOM     10  C   UNL     1      -0.063  11.487  21.351  0.00  0.00    +0.000 A 
ATOM     11  C   UNL     1       2.661   8.941  18.092  0.00  0.00    +0.000 C 
ATOM     12  C   UNL     1       2.525   7.644  17.320  0.00  0.00    +0.000 C 
ATOM     13  C   UNL     1       2.738   6.473  18.234  0.00  0.00    +0.000 A 
ATOM     14  C   UNL     1       3.280   5.279  17.720  0.00  0.00    +0.000 A 
ATOM     15  C   UNL     1       3.366   4.194  18.560  0.00  0.00    +0.000 A 
ATOM     16  C   UNL     1       2.954   4.268  19.862  0.00  0.00    +0.000 A 
ATOM     17  C   UNL     1       2.441   5.430  20.401  0.00  0.00    +0.000 A 
ATOM     18  C   UNL     1       2.303   6.572  19.584  0.00  0.00    +0.000 A 
ATOM     19  O   UNL     1       3.092   3.088  20.521  0.00  0.00    +0.000 OA
ATOM     20  C   UNL     1       3.572   2.236  19.456  0.00  0.00    +0.000 C 
ATOM     21  O   UNL     1       3.824   2.960  18.231  0.00  0.00    +0.000 OA
ENDROOT
BRANCH   1  23
ATOM     22  C   UNL     1      -2.798  12.556  23.288  0.00  0.00    +0.000 C 
ATOM     23  O   UNL     1      -1.405  12.654  22.980  0.00  0.00    +0.000 OA
ENDBRANCH   1  23
BRANCH  10  24
ATOM     24  O   UNL     1       0.060  12.555  20.471  0.00  0.00    +0.000 OA
BRANCH  24  25
ATOM     25  C   UNL     1      -1.144  13.229  20.082  0.00  0.00    +0.000 C 
BRANCH  25  26
ATOM     26  C   UNL     1      -2.109  12.215  19.465  0.00  0.00    +0.000 C 
BRANCH  26  27
ATOM     27  C   UNL     1      -1.527  11.614  18.186  0.00  0.00    +0.000 C 
BRANCH  27  28
ATOM     28  N   UNL     1      -2.623  11.358  17.221  0.00  0.00    +0.000 N 
ATOM     29  C   UNL     1      -3.907  11.589  17.581  0.00  0.00    +0.000 A 
ATOM     30  C   UNL     1      -4.951  11.299  16.712  0.00  0.00    +0.000 A 
ATOM     31  C   UNL     1      -4.668  10.747  15.470  0.00  0.00    +0.000 A 
ATOM     32  C   UNL     1      -3.343  10.518  15.101  0.00  0.00    +0.000 A 
ATOM     33  C   UNL     1      -2.997   9.882  13.787  0.00  0.00    +0.000 C 
ATOM     34  C   UNL     1      -2.329  10.868  15.992  0.00  0.00    +0.000 A 
ENDBRANCH  27  28
ENDBRANCH  26  27
ENDBRANCH  25  26
ENDBRANCH  24  25
ENDBRANCH  10  24
TORSDOF 6
ENDMDL
