MODEL 1
REMARK VINA RESULT:      -8.2      0.000      0.000
REMARK  Name = 
REMARK  7 active torsions:
REMARK  status: ('A' for Active; 'I' for Inactive)
REMARK    1  A    between atoms: C_1  and  N_2
REMARK    2  A    between atoms: C_6  and  C_8
REMARK    3  A    between atoms: C_8  and  C_9
REMARK    4  A    between atoms: C_8  and  C_15
REMARK    5  A    between atoms: C_9  and  C_10
REMARK    6  A    between atoms: C_19  and  S_20
REMARK    7  A    between atoms: S_20  and  C_23
REMARK                            x       y       z     vdW  Elec       q    Type
REMARK                         _______ _______ _______ _____ _____    ______ ____
ROOT
ATOM      1  C   UNL     1       6.403   6.320  16.818  0.00  0.00    +0.000 C 
ENDROOT
BRANCH   1   7
ATOM      2  C   UNL     1       9.465  10.108  19.883  0.00  0.00    +0.000 C 
ATOM      3  N   UNL     1       8.669   9.195  19.104  0.00  0.00    +0.000 N 
ATOM      4  C   UNL     1       8.129   9.517  17.896  0.00  0.00    +0.000 C 
ATOM      5  O   UNL     1       8.177  10.636  17.395  0.00  0.00    +0.000 OA
ATOM      6  N   UNL     1       7.473   8.498  17.245  0.00  0.00    +0.000 N 
ATOM      7  C   UNL     1       7.402   7.164  17.619  0.00  0.00    +0.000 C 
ATOM      8  O   UNL     1       8.030   6.706  18.576  0.00  0.00    +0.000 OA
ATOM      9  H   UNL     1       8.646   8.213  19.373  0.00  0.00    +0.000 HD
ATOM     10  H   UNL     1       7.013   8.804  16.401  0.00  0.00    +0.000 HD
ENDBRANCH   1   7
BRANCH   1  11
ATOM     11  C   UNL     1       5.011   6.315  17.475  0.00  0.00    +0.000 A 
ATOM     12  C   UNL     1       4.146   7.424  17.424  0.00  0.00    +0.000 A 
ATOM     13  C   UNL     1       2.938   7.436  18.127  0.00  0.00    +0.000 A 
ATOM     14  C   UNL     1       2.573   6.351  18.916  0.00  0.00    +0.000 A 
ATOM     15  C   UNL     1       3.412   5.239  18.962  0.00  0.00    +0.000 A 
ATOM     16  C   UNL     1       4.588   5.191  18.204  0.00  0.00    +0.000 A 
BRANCH  15  17
ATOM     17  S   UNL     1       3.002   3.858  20.021  0.00  0.00    +0.000 S 
ATOM     18  O   UNL     1       4.169   2.989  20.014  0.00  0.00    +0.000 OA
ATOM     19  O   UNL     1       2.556   4.443  21.278  0.00  0.00    +0.000 OA
BRANCH  17  20
ATOM     20  C   UNL     1       1.599   3.084  19.128  0.00  0.00    +0.000 C 
ATOM     21  F   UNL     1       1.511   3.483  17.826  0.00  0.00    +0.000 F 
ATOM     22  F   UNL     1       1.684   1.723  19.102  0.00  0.00    +0.000 F 
ATOM     23  F   UNL     1       0.395   3.383  19.695  0.00  0.00    +0.000 F 
ENDBRANCH  17  20
ENDBRANCH  15  17
ENDBRANCH   1  11
BRANCH   1  24
ATOM     24  C   UNL     1       6.938   4.861  16.724  0.00  0.00    +0.000 C 
BRANCH  24  25
ATOM     25  C   UNL     1       6.942   4.253  15.322  0.00  0.00    +0.000 C 
ATOM     26  C   UNL     1       5.529   3.982  14.800  0.00  0.00    +0.000 C 
ATOM     27  C   UNL     1       5.772   3.683  13.328  0.00  0.00    +0.000 C 
ATOM     28  C   UNL     1       6.971   4.549  12.932  0.00  0.00    +0.000 C 
ATOM     29  C   UNL     1       7.500   5.161  14.230  0.00  0.00    +0.000 C 
ENDBRANCH  24  25
ENDBRANCH   1  24
TORSDOF 6
ENDMDL
MODEL 2
REMARK VINA RESULT:      -8.2      4.096      6.443
REMARK  Name = 
REMARK  7 active torsions:
REMARK  status: ('A' for Active; 'I' for Inactive)
REMARK    1  A    between atoms: C_1  and  N_2
REMARK    2  A    between atoms: C_6  and  C_8
REMARK    3  A    between atoms: C_8  and  C_9
REMARK    4  A    between atoms: C_8  and  C_15
REMARK    5  A    between atoms: C_9  and  C_10
REMARK    6  A    between atoms: C_19  and  S_20
REMARK    7  A    between atoms: S_20  and  C_23
REMARK                            x       y       z     vdW  Elec       q    Type
REMARK                         _______ _______ _______ _____ _____    ______ ____
ROOT
ATOM      1  C   UNL     1       2.306   6.487  18.853  0.00  0.00    +0.000 C 
ENDROOT
BRANCH   1   7
ATOM      2  C   UNL     1       7.523   4.650  17.266  0.00  0.00    +0.000 C 
ATOM      3  N   UNL     1       6.221   5.082  17.702  0.00  0.00    +0.000 N 
ATOM      4  C   UNL     1       5.919   5.353  19.003  0.00  0.00    +0.000 C 
ATOM      5  O   UNL     1       6.684   5.163  19.942  0.00  0.00    +0.000 OA
ATOM      6  N   UNL     1       4.654   5.842  19.231  0.00  0.00    +0.000 N 
ATOM      7  C   UNL     1       3.702   6.199  18.287  0.00  0.00    +0.000 C 
ATOM      8  O   UNL     1       3.934   6.204  17.077  0.00  0.00    +0.000 OA
ATOM      9  H   UNL     1       5.539   5.367  17.001  0.00  0.00    +0.000 HD
ATOM     10  H   UNL     1       4.444   5.942  20.213  0.00  0.00    +0.000 HD
ENDBRANCH   1   7
BRANCH   1  11
ATOM     11  C   UNL     1       1.950   7.980  18.749  0.00  0.00    +0.000 A 
ATOM     12  C   UNL     1       2.404   8.796  17.695  0.00  0.00    +0.000 A 
ATOM     13  C   UNL     1       2.165  10.173  17.686  0.00  0.00    +0.000 A 
ATOM     14  C   UNL     1       1.485  10.775  18.739  0.00  0.00    +0.000 A 
ATOM     15  C   UNL     1       1.015   9.977  19.782  0.00  0.00    +0.000 A 
ATOM     16  C   UNL     1       1.189   8.589  19.762  0.00  0.00    +0.000 A 
BRANCH  15  17
ATOM     17  S   UNL     1       0.198  10.732  21.182  0.00  0.00    +0.000 S 
ATOM     18  O   UNL     1       1.087  11.789  21.641  0.00  0.00    +0.000 OA
ATOM     19  O   UNL     1      -1.139  11.075  20.720  0.00  0.00    +0.000 OA
BRANCH  17  20
ATOM     20  C   UNL     1       0.137   9.353  22.388  0.00  0.00    +0.000 C 
ATOM     21  F   UNL     1       1.347   8.747  22.568  0.00  0.00    +0.000 F 
ATOM     22  F   UNL     1      -0.269   9.759  23.625  0.00  0.00    +0.000 F 
ATOM     23  F   UNL     1      -0.724   8.367  22.007  0.00  0.00    +0.000 F 
ENDBRANCH  17  20
ENDBRANCH  15  17
ENDBRANCH   1  11
BRANCH   1  24
ATOM     24  C   UNL     1       2.268   6.047  20.346  0.00  0.00    +0.000 C 
BRANCH  24  25
ATOM     25  C   UNL     1       1.501   4.756  20.629  0.00  0.00    +0.000 C 
ATOM     26  C   UNL     1       1.312   3.902  19.373  0.00  0.00    +0.000 C 
ATOM     27  C   UNL     1       0.818   2.580  19.941  0.00  0.00    +0.000 C 
ATOM     28  C   UNL     1       1.508   2.443  21.301  0.00  0.00    +0.000 C 
ATOM     29  C   UNL     1       2.214   3.775  21.556  0.00  0.00    +0.000 C 
ENDBRANCH  24  25
ENDBRANCH   1  24
TORSDOF 6
ENDMDL
MODEL 3
REMARK VINA RESULT:      -8.0      0.842      1.338
REMARK  Name = 
REMARK  7 active torsions:
REMARK  status: ('A' for Active; 'I' for Inactive)
REMARK    1  A    between atoms: C_1  and  N_2
REMARK    2  A    between atoms: C_6  and  C_8
REMARK    3  A    between atoms: C_8  and  C_9
REMARK    4  A    between atoms: C_8  and  C_15
REMARK    5  A    between atoms: C_9  and  C_10
REMARK    6  A    between atoms: C_19  and  S_20
REMARK    7  A    between atoms: S_20  and  C_23
REMARK                            x       y       z     vdW  Elec       q    Type
REMARK                         _______ _______ _______ _____ _____    ______ ____
ROOT
ATOM      1  C   UNL     1       6.196   6.676  16.582  0.00  0.00    +0.000 C 
ENDROOT
BRANCH   1   7
ATOM      2  C   UNL     1       9.512  10.000  19.910  0.00  0.00    +0.000 C 
ATOM      3  N   UNL     1       8.655   9.206  19.069  0.00  0.00    +0.000 N 
ATOM      4  C   UNL     1       8.121   9.661  17.901  0.00  0.00    +0.000 C 
ATOM      5  O   UNL     1       8.231  10.814  17.497  0.00  0.00    +0.000 OA
ATOM      6  N   UNL     1       7.399   8.743  17.177  0.00  0.00    +0.000 N 
ATOM      7  C   UNL     1       7.252   7.388  17.437  0.00  0.00    +0.000 C 
ATOM      8  O   UNL     1       7.861   6.813  18.340  0.00  0.00    +0.000 OA
ATOM      9  H   UNL     1       8.575   8.207  19.254  0.00  0.00    +0.000 HD
ATOM     10  H   UNL     1       6.950   9.147  16.368  0.00  0.00    +0.000 HD
ENDBRANCH   1   7
BRANCH   1  11
ATOM     11  C   UNL     1       4.939   6.338  17.402  0.00  0.00    +0.000 A 
ATOM     12  C   UNL     1       3.932   7.283  17.670  0.00  0.00    +0.000 A 
ATOM     13  C   UNL     1       2.859   6.983  18.515  0.00  0.00    +0.000 A 
ATOM     14  C   UNL     1       2.776   5.739  19.130  0.00  0.00    +0.000 A 
ATOM     15  C   UNL     1       3.757   4.786  18.860  0.00  0.00    +0.000 A 
ATOM     16  C   UNL     1       4.795   5.055  17.960  0.00  0.00    +0.000 A 
BRANCH  15  17
ATOM     17  S   UNL     1       3.713   3.203  19.689  0.00  0.00    +0.000 S 
ATOM     18  O   UNL     1       5.100   2.793  19.842  0.00  0.00    +0.000 OA
ATOM     19  O   UNL     1       2.892   3.402  20.875  0.00  0.00    +0.000 OA
BRANCH  17  20
ATOM     20  C   UNL     1       2.845   2.146  18.466  0.00  0.00    +0.000 C 
ATOM     21  F   UNL     1       3.596   1.086  18.049  0.00  0.00    +0.000 F 
ATOM     22  F   UNL     1       1.688   1.620  18.960  0.00  0.00    +0.000 F 
ATOM     23  F   UNL     1       2.503   2.832  17.337  0.00  0.00    +0.000 F 
ENDBRANCH  17  20
ENDBRANCH  15  17
ENDBRANCH   1  11
BRANCH   1  24
ATOM     24  C   UNL     1       6.812   5.366  16.009  0.00  0.00    +0.000 C 
BRANCH  24  25
ATOM     25  C   UNL     1       6.451   5.052  14.558  0.00  0.00    +0.000 C 
ATOM     26  C   UNL     1       7.672   5.076  13.635  0.00  0.00    +0.000 C 
ATOM     27  C   UNL     1       7.133   4.452  12.356  0.00  0.00    +0.000 C 
ATOM     28  C   UNL     1       6.089   3.431  12.814  0.00  0.00    +0.000 C 
ATOM     29  C   UNL     1       5.919   3.642  14.319  0.00  0.00    +0.000 C 
ENDBRANCH  24  25
ENDBRANCH   1  24
TORSDOF 6
ENDMDL
MODEL 4
REMARK VINA RESULT:      -7.9      1.086      1.386
REMARK  Name = 
REMARK  7 active torsions:
REMARK  status: ('A' for Active; 'I' for Inactive)
REMARK    1  A    between atoms: C_1  and  N_2
REMARK    2  A    between atoms: C_6  and  C_8
REMARK    3  A    between atoms: C_8  and  C_9
REMARK    4  A    between atoms: C_8  and  C_15
REMARK    5  A    between atoms: C_9  and  C_10
REMARK    6  A    between atoms: C_19  and  S_20
REMARK    7  A    between atoms: S_20  and  C_23
REMARK                            x       y       z     vdW  Elec       q    Type
REMARK                         _______ _______ _______ _____ _____    ______ ____
ROOT
ATOM      1  C   UNL     1       6.419   6.210  16.726  0.00  0.00    +0.000 C 
ENDROOT
BRANCH   1   7
ATOM      2  C   UNL     1       9.359  10.012  19.892  0.00  0.00    +0.000 C 
ATOM      3  N   UNL     1       8.594   9.096  19.087  0.00  0.00    +0.000 N 
ATOM      4  C   UNL     1       8.094   9.415  17.860  0.00  0.00    +0.000 C 
ATOM      5  O   UNL     1       8.155  10.533  17.361  0.00  0.00    +0.000 OA
ATOM      6  N   UNL     1       7.465   8.393  17.188  0.00  0.00    +0.000 N 
ATOM      7  C   UNL     1       7.387   7.059  17.560  0.00  0.00    +0.000 C 
ATOM      8  O   UNL     1       7.983   6.604  18.538  0.00  0.00    +0.000 OA
ATOM      9  H   UNL     1       8.566   8.113  19.355  0.00  0.00    +0.000 HD
ATOM     10  H   UNL     1       7.034   8.697  16.328  0.00  0.00    +0.000 HD
ENDBRANCH   1   7
BRANCH   1  11
ATOM     11  C   UNL     1       5.028   6.133  17.377  0.00  0.00    +0.000 A 
ATOM     12  C   UNL     1       4.187   7.255  17.503  0.00  0.00    +0.000 A 
ATOM     13  C   UNL     1       2.979   7.183  18.203  0.00  0.00    +0.000 A 
ATOM     14  C   UNL     1       2.590   5.995  18.813  0.00  0.00    +0.000 A 
ATOM     15  C   UNL     1       3.404   4.872  18.681  0.00  0.00    +0.000 A 
ATOM     16  C   UNL     1       4.579   4.918  17.922  0.00  0.00    +0.000 A 
BRANCH  15  17
ATOM     17  S   UNL     1       2.963   3.351  19.512  0.00  0.00    +0.000 S 
ATOM     18  O   UNL     1       2.177   2.587  18.555  0.00  0.00    +0.000 OA
ATOM     19  O   UNL     1       4.214   2.797  20.010  0.00  0.00    +0.000 OA
BRANCH  17  20
ATOM     20  C   UNL     1       1.919   3.950  20.895  0.00  0.00    +0.000 C 
ATOM     21  F   UNL     1       2.399   5.091  21.471  0.00  0.00    +0.000 F 
ATOM     22  F   UNL     1       0.644   4.232  20.501  0.00  0.00    +0.000 F 
ATOM     23  F   UNL     1       1.815   3.035  21.901  0.00  0.00    +0.000 F 
ENDBRANCH  17  20
ENDBRANCH  15  17
ENDBRANCH   1  11
BRANCH   1  24
ATOM     24  C   UNL     1       7.006   4.776  16.580  0.00  0.00    +0.000 C 
BRANCH  24  25
ATOM     25  C   UNL     1       7.045   4.225  15.155  0.00  0.00    +0.000 C 
ATOM     26  C   UNL     1       5.655   3.852  14.635  0.00  0.00    +0.000 C 
ATOM     27  C   UNL     1       5.904   3.632  13.151  0.00  0.00    +0.000 C 
ATOM     28  C   UNL     1       7.018   4.613  12.779  0.00  0.00    +0.000 C 
ATOM     29  C   UNL     1       7.508   5.220  14.095  0.00  0.00    +0.000 C 
ENDBRANCH  24  25
ENDBRANCH   1  24
TORSDOF 6
ENDMDL
MODEL 5
REMARK VINA RESULT:      -7.7      4.101      6.590
REMARK  Name = 
REMARK  7 active torsions:
REMARK  status: ('A' for Active; 'I' for Inactive)
REMARK    1  A    between atoms: C_1  and  N_2
REMARK    2  A    between atoms: C_6  and  C_8
REMARK    3  A    between atoms: C_8  and  C_9
REMARK    4  A    between atoms: C_8  and  C_15
REMARK    5  A    between atoms: C_9  and  C_10
REMARK    6  A    between atoms: C_19  and  S_20
REMARK    7  A    between atoms: S_20  and  C_23
REMARK                            x       y       z     vdW  Elec       q    Type
REMARK                         _______ _______ _______ _____ _____    ______ ____
ROOT
ATOM      1  C   UNL     1       2.230   6.158  20.250  0.00  0.00    +0.000 C 
ENDROOT
BRANCH   1   7
ATOM      2  C   UNL     1       0.306  11.436  18.998  0.00  0.00    +0.000 C 
ATOM      3  N   UNL     1       0.783  10.104  19.265  0.00  0.00    +0.000 N 
ATOM      4  C   UNL     1       1.638   9.436  18.441  0.00  0.00    +0.000 C 
ATOM      5  O   UNL     1       2.008   9.852  17.349  0.00  0.00    +0.000 OA
ATOM      6  N   UNL     1       2.064   8.209  18.892  0.00  0.00    +0.000 N 
ATOM      7  C   UNL     1       1.820   7.632  20.131  0.00  0.00    +0.000 C 
ATOM      8  O   UNL     1       1.243   8.228  21.041  0.00  0.00    +0.000 OA
ATOM      9  H   UNL     1       0.621   9.701  20.187  0.00  0.00    +0.000 HD
ATOM     10  H   UNL     1       2.622   7.713  18.212  0.00  0.00    +0.000 HD
ENDBRANCH   1   7
BRANCH   1  11
ATOM     11  C   UNL     1       3.182   5.743  19.115  0.00  0.00    +0.000 A 
ATOM     12  C   UNL     1       2.729   5.127  17.933  0.00  0.00    +0.000 A 
ATOM     13  C   UNL     1       3.625   4.653  16.970  0.00  0.00    +0.000 A 
ATOM     14  C   UNL     1       4.997   4.763  17.173  0.00  0.00    +0.000 A 
ATOM     15  C   UNL     1       5.459   5.385  18.331  0.00  0.00    +0.000 A 
ATOM     16  C   UNL     1       4.568   5.925  19.265  0.00  0.00    +0.000 A 
BRANCH  15  17
ATOM     17  S   UNL     1       7.216   5.479  18.651  0.00  0.00    +0.000 S 
ATOM     18  O   UNL     1       7.359   5.498  20.098  0.00  0.00    +0.000 OA
ATOM     19  O   UNL     1       7.814   4.391  17.889  0.00  0.00    +0.000 OA
BRANCH  17  20
ATOM     20  C   UNL     1       7.659   7.103  17.923  0.00  0.00    +0.000 C 
ATOM     21  F   UNL     1       8.625   7.759  18.631  0.00  0.00    +0.000 F 
ATOM     22  F   UNL     1       8.133   6.992  16.649  0.00  0.00    +0.000 F 
ATOM     23  F   UNL     1       6.594   7.953  17.864  0.00  0.00    +0.000 F 
ENDBRANCH  17  20
ENDBRANCH  15  17
ENDBRANCH   1  11
BRANCH   1  24
ATOM     24  C   UNL     1       0.949   5.275  20.204  0.00  0.00    +0.000 C 
BRANCH  24  25
ATOM     25  C   UNL     1       1.118   3.849  20.726  0.00  0.00    +0.000 C 
ATOM     26  C   UNL     1       1.408   2.848  19.606  0.00  0.00    +0.000 C 
ATOM     27  C   UNL     1       1.830   1.603  20.374  0.00  0.00    +0.000 C 
ATOM     28  C   UNL     1       2.535   2.123  21.629  0.00  0.00    +0.000 C 
ATOM     29  C   UNL     1       2.322   3.638  21.640  0.00  0.00    +0.000 C 
ENDBRANCH  24  25
ENDBRANCH   1  24
TORSDOF 6
ENDMDL
MODEL 6
REMARK VINA RESULT:      -7.6      2.132      3.305
REMARK  Name = 
REMARK  7 active torsions:
REMARK  status: ('A' for Active; 'I' for Inactive)
REMARK    1  A    between atoms: C_1  and  N_2
REMARK    2  A    between atoms: C_6  and  C_8
REMARK    3  A    between atoms: C_8  and  C_9
REMARK    4  A    between atoms: C_8  and  C_15
REMARK    5  A    between atoms: C_9  and  C_10
REMARK    6  A    between atoms: C_19  and  S_20
REMARK    7  A    between atoms: S_20  and  C_23
REMARK                            x       y       z     vdW  Elec       q    Type
REMARK                         _______ _______ _______ _____ _____    ______ ____
ROOT
ATOM      1  C   UNL     1       4.671   4.573  16.064  0.00  0.00    +0.000 C 
ENDROOT
BRANCH   1   7
ATOM      2  C   UNL     1       8.131   8.824  17.820  0.00  0.00    +0.000 C 
ATOM      3  N   UNL     1       7.300   7.730  17.388  0.00  0.00    +0.000 N 
ATOM      4  C   UNL     1       7.284   6.514  18.004  0.00  0.00    +0.000 C 
ATOM      5  O   UNL     1       8.039   6.194  18.916  0.00  0.00    +0.000 OA
ATOM      6  N   UNL     1       6.367   5.612  17.519  0.00  0.00    +0.000 N 
ATOM      7  C   UNL     1       5.385   5.835  16.565  0.00  0.00    +0.000 C 
ATOM      8  O   UNL     1       5.157   6.949  16.091  0.00  0.00    +0.000 OA
ATOM      9  H   UNL     1       6.565   7.911  16.707  0.00  0.00    +0.000 HD
ATOM     10  H   UNL     1       6.452   4.700  17.943  0.00  0.00    +0.000 HD
ENDBRANCH   1   7
BRANCH   1  11
ATOM     11  C   UNL     1       4.125   3.732  17.230  0.00  0.00    +0.000 A 
ATOM     12  C   UNL     1       4.212   2.327  17.258  0.00  0.00    +0.000 A 
ATOM     13  C   UNL     1       3.604   1.580  18.271  0.00  0.00    +0.000 A 
ATOM     14  C   UNL     1       2.876   2.215  19.271  0.00  0.00    +0.000 A 
ATOM     15  C   UNL     1       2.795   3.607  19.266  0.00  0.00    +0.000 A 
ATOM     16  C   UNL     1       3.461   4.364  18.295  0.00  0.00    +0.000 A 
BRANCH  15  17
ATOM     17  S   UNL     1       1.810   4.445  20.500  0.00  0.00    +0.000 S 
ATOM     18  O   UNL     1       0.429   4.076  20.227  0.00  0.00    +0.000 OA
ATOM     19  O   UNL     1       2.402   4.094  21.783  0.00  0.00    +0.000 OA
BRANCH  17  20
ATOM     20  C   UNL     1       2.110   6.211  20.105  0.00  0.00    +0.000 C 
ATOM     21  F   UNL     1       1.682   6.559  18.856  0.00  0.00    +0.000 F 
ATOM     22  F   UNL     1       1.477   7.054  20.970  0.00  0.00    +0.000 F 
ATOM     23  F   UNL     1       3.434   6.536  20.152  0.00  0.00    +0.000 F 
ENDBRANCH  17  20
ENDBRANCH  15  17
ENDBRANCH   1  11
BRANCH   1  24
ATOM     24  C   UNL     1       5.676   3.722  15.235  0.00  0.00    +0.000 C 
BRANCH  24  25
ATOM     25  C   UNL     1       6.059   4.302  13.874  0.00  0.00    +0.000 C 
ATOM     26  C   UNL     1       7.453   4.933  13.879  0.00  0.00    +0.000 C 
ATOM     27  C   UNL     1       7.725   5.151  12.398  0.00  0.00    +0.000 C 
ATOM     28  C   UNL     1       7.014   3.999  11.683  0.00  0.00    +0.000 C 
ATOM     29  C   UNL     1       6.197   3.274  12.753  0.00  0.00    +0.000 C 
ENDBRANCH  24  25
ENDBRANCH   1  24
TORSDOF 6
ENDMDL
MODEL 7
REMARK VINA RESULT:      -7.6      3.451      4.878
REMARK  Name = 
REMARK  7 active torsions:
REMARK  status: ('A' for Active; 'I' for Inactive)
REMARK    1  A    between atoms: C_1  and  N_2
REMARK    2  A    between atoms: C_6  and  C_8
REMARK    3  A    between atoms: C_8  and  C_9
REMARK    4  A    between atoms: C_8  and  C_15
REMARK    5  A    between atoms: C_9  and  C_10
REMARK    6  A    between atoms: C_19  and  S_20
REMARK    7  A    between atoms: S_20  and  C_23
REMARK                            x       y       z     vdW  Elec       q    Type
REMARK                         _______ _______ _______ _____ _____    ______ ____
ROOT
ATOM      1  C   UNL     1       2.564   7.571  17.453  0.00  0.00    +0.000 C 
ENDROOT
BRANCH   1   7
ATOM      2  C   UNL     1       0.057  12.552  18.874  0.00  0.00    +0.000 C 
ATOM      3  N   UNL     1       0.645  11.284  18.534  0.00  0.00    +0.000 N 
ATOM      4  C   UNL     1      -0.055  10.261  17.968  0.00  0.00    +0.000 C 
ATOM      5  O   UNL     1      -1.268  10.276  17.784  0.00  0.00    +0.000 OA
ATOM      6  N   UNL     1       0.681   9.152  17.625  0.00  0.00    +0.000 N 
ATOM      7  C   UNL     1       2.060   9.002  17.679  0.00  0.00    +0.000 C 
ATOM      8  O   UNL     1       2.819   9.929  17.967  0.00  0.00    +0.000 OA
ATOM      9  H   UNL     1       1.660  11.193  18.552  0.00  0.00    +0.000 HD
ATOM     10  H   UNL     1       0.109   8.389  17.294  0.00  0.00    +0.000 HD
ENDBRANCH   1   7
BRANCH   1  11
ATOM     11  C   UNL     1       2.189   6.648  18.625  0.00  0.00    +0.000 A 
ATOM     12  C   UNL     1       2.057   7.115  19.946  0.00  0.00    +0.000 A 
ATOM     13  C   UNL     1       1.830   6.236  21.009  0.00  0.00    +0.000 A 
ATOM     14  C   UNL     1       1.751   4.866  20.783  0.00  0.00    +0.000 A 
ATOM     15  C   UNL     1       1.862   4.391  19.478  0.00  0.00    +0.000 A 
ATOM     16  C   UNL     1       2.018   5.271  18.401  0.00  0.00    +0.000 A 
BRANCH  15  17
ATOM     17  S   UNL     1       1.833   2.630  19.166  0.00  0.00    +0.000 S 
ATOM     18  O   UNL     1       1.801   1.993  20.473  0.00  0.00    +0.000 OA
ATOM     19  O   UNL     1       0.730   2.413  18.239  0.00  0.00    +0.000 OA
BRANCH  17  20
ATOM     20  C   UNL     1       3.445   2.353  18.337  0.00  0.00    +0.000 C 
ATOM     21  F   UNL     1       3.481   2.843  17.063  0.00  0.00    +0.000 F 
ATOM     22  F   UNL     1       4.480   2.945  18.999  0.00  0.00    +0.000 F 
ATOM     23  F   UNL     1       3.758   1.030  18.239  0.00  0.00    +0.000 F 
ENDBRANCH  17  20
ENDBRANCH  15  17
ENDBRANCH   1  11
BRANCH   1  24
ATOM     24  C   UNL     1       4.112   7.604  17.292  0.00  0.00    +0.000 C 
BRANCH  24  25
ATOM     25  C   UNL     1       4.782   6.240  17.125  0.00  0.00    +0.000 C 
ATOM     26  C   UNL     1       5.265   5.999  15.693  0.00  0.00    +0.000 C 
ATOM     27  C   UNL     1       6.139   4.763  15.842  0.00  0.00    +0.000 C 
ATOM     28  C   UNL     1       6.763   4.874  17.235  0.00  0.00    +0.000 C 
ATOM     29  C   UNL     1       6.076   6.060  17.915  0.00  0.00    +0.000 C 
ENDBRANCH  24  25
ENDBRANCH   1  24
TORSDOF 6
ENDMDL
MODEL 8
REMARK VINA RESULT:      -7.6      4.280      6.761
REMARK  Name = 
REMARK  7 active torsions:
REMARK  status: ('A' for Active; 'I' for Inactive)
REMARK    1  A    between atoms: C_1  and  N_2
REMARK    2  A    between atoms: C_6  and  C_8
REMARK    3  A    between atoms: C_8  and  C_9
REMARK    4  A    between atoms: C_8  and  C_15
REMARK    5  A    between atoms: C_9  and  C_10
REMARK    6  A    between atoms: C_19  and  S_20
REMARK    7  A    between atoms: S_20  and  C_23
REMARK                            x       y       z     vdW  Elec       q    Type
REMARK                         _______ _______ _______ _____ _____    ______ ____
ROOT
ATOM      1  C   UNL     1       2.208   6.210  20.295  0.00  0.00    +0.000 C 
ENDROOT
BRANCH   1   7
ATOM      2  C   UNL     1       1.062  11.833  20.723  0.00  0.00    +0.000 C 
ATOM      3  N   UNL     1       1.362  10.427  20.661  0.00  0.00    +0.000 N 
ATOM      4  C   UNL     1       1.074   9.555  21.668  0.00  0.00    +0.000 C 
ATOM      5  O   UNL     1       0.627   9.888  22.760  0.00  0.00    +0.000 OA
ATOM      6  N   UNL     1       1.346   8.232  21.408  0.00  0.00    +0.000 N 
ATOM      7  C   UNL     1       1.763   7.675  20.208  0.00  0.00    +0.000 C 
ATOM      8  O   UNL     1       1.851   8.327  19.166  0.00  0.00    +0.000 OA
ATOM      9  H   UNL     1       1.643  10.024  19.768  0.00  0.00    +0.000 HD
ATOM     10  H   UNL     1       1.202   7.638  22.210  0.00  0.00    +0.000 HD
ENDBRANCH   1   7
BRANCH   1  11
ATOM     11  C   UNL     1       3.155   5.836  19.141  0.00  0.00    +0.000 A 
ATOM     12  C   UNL     1       2.694   5.290  17.929  0.00  0.00    +0.000 A 
ATOM     13  C   UNL     1       3.583   4.851  16.944  0.00  0.00    +0.000 A 
ATOM     14  C   UNL     1       4.956   4.926  17.153  0.00  0.00    +0.000 A 
ATOM     15  C   UNL     1       5.427   5.481  18.342  0.00  0.00    +0.000 A 
ATOM     16  C   UNL     1       4.543   5.988  19.301  0.00  0.00    +0.000 A 
BRANCH  15  17
ATOM     17  S   UNL     1       7.185   5.529  18.667  0.00  0.00    +0.000 S 
ATOM     18  O   UNL     1       7.323   5.547  20.115  0.00  0.00    +0.000 OA
ATOM     19  O   UNL     1       7.756   4.424  17.910  0.00  0.00    +0.000 OA
BRANCH  17  20
ATOM     20  C   UNL     1       7.673   7.140  17.938  0.00  0.00    +0.000 C 
ATOM     21  F   UNL     1       8.133   7.028  16.658  0.00  0.00    +0.000 F 
ATOM     22  F   UNL     1       6.638   8.027  17.893  0.00  0.00    +0.000 F 
ATOM     23  F   UNL     1       8.669   7.748  18.644  0.00  0.00    +0.000 F 
ENDBRANCH  17  20
ENDBRANCH  15  17
ENDBRANCH   1  11
BRANCH   1  24
ATOM     24  C   UNL     1       0.947   5.298  20.249  0.00  0.00    +0.000 C 
BRANCH  24  25
ATOM     25  C   UNL     1       1.151   3.871  20.756  0.00  0.00    +0.000 C 
ATOM     26  C   UNL     1       1.422   2.882  19.621  0.00  0.00    +0.000 C 
ATOM     27  C   UNL     1       1.884   1.639  20.367  0.00  0.00    +0.000 C 
ATOM     28  C   UNL     1       2.619   2.160  21.604  0.00  0.00    +0.000 C 
ATOM     29  C   UNL     1       2.385   3.672  21.633  0.00  0.00    +0.000 C 
ENDBRANCH  24  25
ENDBRANCH   1  24
TORSDOF 6
ENDMDL
MODEL 9
REMARK VINA RESULT:      -7.6      4.460      6.737
REMARK  Name = 
REMARK  7 active torsions:
REMARK  status: ('A' for Active; 'I' for Inactive)
REMARK    1  A    between atoms: C_1  and  N_2
REMARK    2  A    between atoms: C_6  and  C_8
REMARK    3  A    between atoms: C_8  and  C_9
REMARK    4  A    between atoms: C_8  and  C_15
REMARK    5  A    between atoms: C_9  and  C_10
REMARK    6  A    between atoms: C_19  and  S_20
REMARK    7  A    between atoms: S_20  and  C_23
REMARK                            x       y       z     vdW  Elec       q    Type
REMARK                         _______ _______ _______ _____ _____    ______ ____
ROOT
ATOM      1  C   UNL     1       2.382   6.421  18.889  0.00  0.00    +0.000 C 
ENDROOT
BRANCH   1   7
ATOM      2  C   UNL     1       7.599   4.547  17.343  0.00  0.00    +0.000 C 
ATOM      3  N   UNL     1       6.298   4.991  17.770  0.00  0.00    +0.000 N 
ATOM      4  C   UNL     1       6.016   5.359  19.051  0.00  0.00    +0.000 C 
ATOM      5  O   UNL     1       6.803   5.257  19.986  0.00  0.00    +0.000 OA
ATOM      6  N   UNL     1       4.748   5.844  19.267  0.00  0.00    +0.000 N 
ATOM      7  C   UNL     1       3.772   6.111  18.318  0.00  0.00    +0.000 C 
ATOM      8  O   UNL     1       3.980   6.024  17.107  0.00  0.00    +0.000 OA
ATOM      9  H   UNL     1       5.598   5.209  17.063  0.00  0.00    +0.000 HD
ATOM     10  H   UNL     1       4.556   6.018  20.243  0.00  0.00    +0.000 HD
ENDBRANCH   1   7
BRANCH   1  11
ATOM     11  C   UNL     1       2.027   7.910  18.737  0.00  0.00    +0.000 A 
ATOM     12  C   UNL     1       2.465   8.686  17.648  0.00  0.00    +0.000 A 
ATOM     13  C   UNL     1       2.228  10.063  17.594  0.00  0.00    +0.000 A 
ATOM     14  C   UNL     1       1.567  10.703  18.636  0.00  0.00    +0.000 A 
ATOM     15  C   UNL     1       1.113   9.944  19.714  0.00  0.00    +0.000 A 
ATOM     16  C   UNL     1       1.284   8.555  19.741  0.00  0.00    +0.000 A 
BRANCH  15  17
ATOM     17  S   UNL     1       0.321  10.751  21.100  0.00  0.00    +0.000 S 
ATOM     18  O   UNL     1      -0.058   9.687  22.018  0.00  0.00    +0.000 OA
ATOM     19  O   UNL     1       1.254  11.777  21.544  0.00  0.00    +0.000 OA
BRANCH  17  20
ATOM     20  C   UNL     1      -1.156  11.506  20.319  0.00  0.00    +0.000 C 
ATOM     21  F   UNL     1      -1.691  10.733  19.330  0.00  0.00    +0.000 F 
ATOM     22  F   UNL     1      -2.163  11.727  21.213  0.00  0.00    +0.000 F 
ATOM     23  F   UNL     1      -0.881  12.713  19.746  0.00  0.00    +0.000 F 
ENDBRANCH  17  20
ENDBRANCH  15  17
ENDBRANCH   1  11
BRANCH   1  24
ATOM     24  C   UNL     1       2.359   6.031  20.396  0.00  0.00    +0.000 C 
BRANCH  24  25
ATOM     25  C   UNL     1       1.564   4.771  20.735  0.00  0.00    +0.000 C 
ATOM     26  C   UNL     1       1.283   3.909  19.503  0.00  0.00    +0.000 C 
ATOM     27  C   UNL     1       0.774   2.612  20.114  0.00  0.00    +0.000 C 
ATOM     28  C   UNL     1       1.527   2.468  21.440  0.00  0.00    +0.000 C 
ATOM     29  C   UNL     1       2.290   3.778  21.640  0.00  0.00    +0.000 C 
ENDBRANCH  24  25
ENDBRANCH   1  24
TORSDOF 6
ENDMDL
