MODEL 1
REMARK VINA RESULT:      -6.5      0.000      0.000
REMARK  Name = 
REMARK  3 active torsions:
REMARK  status: ('A' for Active; 'I' for Inactive)
REMARK    1  A    between atoms: C_2  and  C_3
REMARK    2  A    between atoms: C_3  and  S_4
REMARK    3  A    between atoms: S_4  and  C_5
REMARK                            x       y       z     vdW  Elec       q    Type
REMARK                         _______ _______ _______ _____ _____    ______ ____
ROOT
ATOM      1  O   UNL     1       7.656   5.801  17.130  0.00  0.00    +0.000 OA
ATOM      2  C   UNL     1       6.589   5.198  17.056  0.00  0.00    +0.000 C 
ATOM      3  N   UNL     1       6.016   4.657  15.929  0.00  0.00    +0.000 N 
ATOM      4  C   UNL     1       6.606   4.732  14.701  0.00  0.00    +0.000 A 
ATOM      5  N   UNL     1       7.635   5.443  14.318  0.00  0.00    +0.000 NA
ATOM      6  C   UNL     1       7.895   5.188  12.987  0.00  0.00    +0.000 A 
ATOM      7  C   UNL     1       7.058   4.272  12.383  0.00  0.00    +0.000 A 
ATOM      8  S   UNL     1       5.879   3.744  13.514  0.00  0.00    +0.000 S 
ATOM      9  H   UNL     1       5.211   4.053  16.020  0.00  0.00    +0.000 HD
ENDROOT
BRANCH   2  10
ATOM     10  C   UNL     1       5.741   4.995  18.303  0.00  0.00    +0.000 C 
BRANCH  10  11
ATOM     11  S   UNL     1       4.383   3.806  18.016  0.00  0.00    +0.000 S 
BRANCH  11  12
ATOM     12  C   UNL     1       2.915   4.931  18.073  0.00  0.00    +0.000 C 
ATOM     13  C   UNL     1       1.591   4.224  17.759  0.00  0.00    +0.000 C 
ATOM     14  C   UNL     1       1.140   3.268  18.862  0.00  0.00    +0.000 C 
ATOM     15  C   UNL     1       1.058   3.975  20.212  0.00  0.00    +0.000 C 
ATOM     16  C   UNL     1       2.368   4.671  20.570  0.00  0.00    +0.000 C 
ATOM     17  C   UNL     1       2.839   5.607  19.455  0.00  0.00    +0.000 C 
ENDBRANCH  11  12
ENDBRANCH  10  11
ENDBRANCH   2  10
TORSDOF 3
ENDMDL
MODEL 2
REMARK VINA RESULT:      -6.4      1.089      1.378
REMARK  Name = 
REMARK  3 active torsions:
REMARK  status: ('A' for Active; 'I' for Inactive)
REMARK    1  A    between atoms: C_2  and  C_3
REMARK    2  A    between atoms: C_3  and  S_4
REMARK    3  A    between atoms: S_4  and  C_5
REMARK                            x       y       z     vdW  Elec       q    Type
REMARK                         _______ _______ _______ _____ _____    ______ ____
ROOT
ATOM      1  O   UNL     1       7.555   5.561  17.056  0.00  0.00    +0.000 OA
ATOM      2  C   UNL     1       6.580   4.832  16.891  0.00  0.00    +0.000 C 
ATOM      3  N   UNL     1       6.102   4.339  15.700  0.00  0.00    +0.000 N 
ATOM      4  C   UNL     1       6.694   4.618  14.503  0.00  0.00    +0.000 A 
ATOM      5  N   UNL     1       7.622   5.495  14.222  0.00  0.00    +0.000 NA
ATOM      6  C   UNL     1       7.934   5.417  12.880  0.00  0.00    +0.000 A 
ATOM      7  C   UNL     1       7.238   4.465  12.164  0.00  0.00    +0.000 A 
ATOM      8  S   UNL     1       6.125   3.670  13.202  0.00  0.00    +0.000 S 
ATOM      9  H   UNL     1       5.385   3.626  15.706  0.00  0.00    +0.000 HD
ENDROOT
BRANCH   2  10
ATOM     10  C   UNL     1       5.750   4.390  18.087  0.00  0.00    +0.000 C 
BRANCH  10  11
ATOM     11  S   UNL     1       4.102   5.181  18.100  0.00  0.00    +0.000 S 
BRANCH  11  12
ATOM     12  C   UNL     1       3.052   3.812  17.431  0.00  0.00    +0.000 C 
ATOM     13  C   UNL     1       3.454   2.425  17.948  0.00  0.00    +0.000 C 
ATOM     14  C   UNL     1       3.127   2.211  19.424  0.00  0.00    +0.000 C 
ATOM     15  C   UNL     1       1.652   2.476  19.711  0.00  0.00    +0.000 C 
ATOM     16  C   UNL     1       1.220   3.860  19.233  0.00  0.00    +0.000 C 
ATOM     17  C   UNL     1       1.574   4.090  17.762  0.00  0.00    +0.000 C 
ENDBRANCH  11  12
ENDBRANCH  10  11
ENDBRANCH   2  10
TORSDOF 3
ENDMDL
MODEL 3
REMARK VINA RESULT:      -6.4      0.991      1.721
REMARK  Name = 
REMARK  3 active torsions:
REMARK  status: ('A' for Active; 'I' for Inactive)
REMARK    1  A    between atoms: C_2  and  C_3
REMARK    2  A    between atoms: C_3  and  S_4
REMARK    3  A    between atoms: S_4  and  C_5
REMARK                            x       y       z     vdW  Elec       q    Type
REMARK                         _______ _______ _______ _____ _____    ______ ____
ROOT
ATOM      1  O   UNL     1       7.526   5.359  17.009  0.00  0.00    +0.000 OA
ATOM      2  C   UNL     1       6.494   4.725  16.807  0.00  0.00    +0.000 C 
ATOM      3  N   UNL     1       6.002   4.301  15.596  0.00  0.00    +0.000 N 
ATOM      4  C   UNL     1       6.645   4.550  14.419  0.00  0.00    +0.000 A 
ATOM      5  N   UNL     1       7.655   5.345  14.177  0.00  0.00    +0.000 NA
ATOM      6  C   UNL     1       7.989   5.265  12.841  0.00  0.00    +0.000 A 
ATOM      7  C   UNL     1       7.228   4.395  12.089  0.00  0.00    +0.000 A 
ATOM      8  S   UNL     1       6.024   3.683  13.085  0.00  0.00    +0.000 S 
ATOM      9  H   UNL     1       5.223   3.657  15.571  0.00  0.00    +0.000 HD
ENDROOT
BRANCH   2  10
ATOM     10  C   UNL     1       5.599   4.336  17.976  0.00  0.00    +0.000 C 
BRANCH  10  11
ATOM     11  S   UNL     1       3.953   3.775  17.413  0.00  0.00    +0.000 S 
BRANCH  11  12
ATOM     12  C   UNL     1       3.517   2.575  18.752  0.00  0.00    +0.000 C 
ATOM     13  C   UNL     1       3.549   3.189  20.157  0.00  0.00    +0.000 C 
ATOM     14  C   UNL     1       2.413   4.178  20.411  0.00  0.00    +0.000 C 
ATOM     15  C   UNL     1       1.052   3.544  20.140  0.00  0.00    +0.000 C 
ATOM     16  C   UNL     1       0.973   2.943  18.739  0.00  0.00    +0.000 C 
ATOM     17  C   UNL     1       2.127   1.974  18.470  0.00  0.00    +0.000 C 
ENDBRANCH  11  12
ENDBRANCH  10  11
ENDBRANCH   2  10
TORSDOF 3
ENDMDL
MODEL 4
REMARK VINA RESULT:      -6.2      1.354      1.884
REMARK  Name = 
REMARK  3 active torsions:
REMARK  status: ('A' for Active; 'I' for Inactive)
REMARK    1  A    between atoms: C_2  and  C_3
REMARK    2  A    between atoms: C_3  and  S_4
REMARK    3  A    between atoms: S_4  and  C_5
REMARK                            x       y       z     vdW  Elec       q    Type
REMARK                         _______ _______ _______ _____ _____    ______ ____
ROOT
ATOM      1  O   UNL     1       7.647   5.841  17.987  0.00  0.00    +0.000 OA
ATOM      2  C   UNL     1       6.551   5.289  18.032  0.00  0.00    +0.000 C 
ATOM      3  N   UNL     1       5.857   4.733  16.984  0.00  0.00    +0.000 N 
ATOM      4  C   UNL     1       6.339   4.730  15.707  0.00  0.00    +0.000 A 
ATOM      5  N   UNL     1       7.360   5.373  15.206  0.00  0.00    +0.000 NA
ATOM      6  C   UNL     1       7.489   5.054  13.869  0.00  0.00    +0.000 A 
ATOM      7  C   UNL     1       6.562   4.157  13.381  0.00  0.00    +0.000 A 
ATOM      8  S   UNL     1       5.465   3.732  14.631  0.00  0.00    +0.000 S 
ATOM      9  H   UNL     1       5.036   4.173  17.170  0.00  0.00    +0.000 HD
ENDROOT
BRANCH   2  10
ATOM     10  C   UNL     1       5.809   5.178  19.356  0.00  0.00    +0.000 C 
BRANCH  10  11
ATOM     11  S   UNL     1       4.000   5.077  19.114  0.00  0.00    +0.000 S 
BRANCH  11  12
ATOM     12  C   UNL     1       3.647   3.399  19.809  0.00  0.00    +0.000 C 
ATOM     13  C   UNL     1       2.439   3.371  20.753  0.00  0.00    +0.000 C 
ATOM     14  C   UNL     1       1.105   3.563  20.035  0.00  0.00    +0.000 C 
ATOM     15  C   UNL     1       0.925   2.544  18.913  0.00  0.00    +0.000 C 
ATOM     16  C   UNL     1       2.098   2.561  17.937  0.00  0.00    +0.000 C 
ATOM     17  C   UNL     1       3.439   2.400  18.656  0.00  0.00    +0.000 C 
ENDBRANCH  11  12
ENDBRANCH  10  11
ENDBRANCH   2  10
TORSDOF 3
ENDMDL
MODEL 5
REMARK VINA RESULT:      -6.2      2.910      3.593
REMARK  Name = 
REMARK  3 active torsions:
REMARK  status: ('A' for Active; 'I' for Inactive)
REMARK    1  A    between atoms: C_2  and  C_3
REMARK    2  A    between atoms: C_3  and  S_4
REMARK    3  A    between atoms: S_4  and  C_5
REMARK                            x       y       z     vdW  Elec       q    Type
REMARK                         _______ _______ _______ _____ _____    ______ ____
ROOT
ATOM      1  O   UNL     1       4.395   4.031  15.984  0.00  0.00    +0.000 OA
ATOM      2  C   UNL     1       4.597   3.508  17.076  0.00  0.00    +0.000 C 
ATOM      3  N   UNL     1       5.495   3.908  18.037  0.00  0.00    +0.000 N 
ATOM      4  C   UNL     1       6.304   4.995  17.874  0.00  0.00    +0.000 A 
ATOM      5  N   UNL     1       6.537   5.700  16.798  0.00  0.00    +0.000 NA
ATOM      6  C   UNL     1       7.411   6.724  17.104  0.00  0.00    +0.000 A 
ATOM      7  C   UNL     1       7.818   6.783  18.420  0.00  0.00    +0.000 A 
ATOM      8  S   UNL     1       7.114   5.485  19.295  0.00  0.00    +0.000 S 
ATOM      9  H   UNL     1       5.463   3.490  18.957  0.00  0.00    +0.000 HD
ENDROOT
BRANCH   2  10
ATOM     10  C   UNL     1       3.814   2.267  17.482  0.00  0.00    +0.000 C 
BRANCH  10  11
ATOM     11  S   UNL     1       3.764   2.059  19.298  0.00  0.00    +0.000 S 
BRANCH  11  12
ATOM     12  C   UNL     1       1.958   2.285  19.626  0.00  0.00    +0.000 C 
ATOM     13  C   UNL     1       1.640   2.621  21.089  0.00  0.00    +0.000 C 
ATOM     14  C   UNL     1       2.084   4.025  21.497  0.00  0.00    +0.000 C 
ATOM     15  C   UNL     1       1.498   5.085  20.569  0.00  0.00    +0.000 C 
ATOM     16  C   UNL     1       1.816   4.797  19.105  0.00  0.00    +0.000 C 
ATOM     17  C   UNL     1       1.401   3.381  18.699  0.00  0.00    +0.000 C 
ENDBRANCH  11  12
ENDBRANCH  10  11
ENDBRANCH   2  10
TORSDOF 3
ENDMDL
MODEL 6
REMARK VINA RESULT:      -5.9      2.406      3.246
REMARK  Name = 
REMARK  3 active torsions:
REMARK  status: ('A' for Active; 'I' for Inactive)
REMARK    1  A    between atoms: C_2  and  C_3
REMARK    2  A    between atoms: C_3  and  S_4
REMARK    3  A    between atoms: S_4  and  C_5
REMARK                            x       y       z     vdW  Elec       q    Type
REMARK                         _______ _______ _______ _____ _____    ______ ____
ROOT
ATOM      1  O   UNL     1       5.048   5.799  15.588  0.00  0.00    +0.000 OA
ATOM      2  C   UNL     1       5.412   4.924  16.368  0.00  0.00    +0.000 C 
ATOM      3  N   UNL     1       6.361   5.032  17.357  0.00  0.00    +0.000 N 
ATOM      4  C   UNL     1       7.038   6.193  17.596  0.00  0.00    +0.000 A 
ATOM      5  N   UNL     1       7.088   7.286  16.880  0.00  0.00    +0.000 NA
ATOM      6  C   UNL     1       7.884   8.214  17.519  0.00  0.00    +0.000 A 
ATOM      7  C   UNL     1       8.417   7.809  18.725  0.00  0.00    +0.000 A 
ATOM      8  S   UNL     1       7.938   6.193  19.047  0.00  0.00    +0.000 S 
ATOM      9  H   UNL     1       6.465   4.289  18.034  0.00  0.00    +0.000 HD
ENDROOT
BRANCH   2  10
ATOM     10  C   UNL     1       4.801   3.532  16.289  0.00  0.00    +0.000 C 
BRANCH  10  11
ATOM     11  S   UNL     1       3.976   3.062  17.850  0.00  0.00    +0.000 S 
BRANCH  11  12
ATOM     12  C   UNL     1       2.699   4.394  17.986  0.00  0.00    +0.000 C 
ATOM     13  C   UNL     1       1.260   3.865  17.973  0.00  0.00    +0.000 C 
ATOM     14  C   UNL     1       0.881   3.109  19.245  0.00  0.00    +0.000 C 
ATOM     15  C   UNL     1       1.123   3.959  20.489  0.00  0.00    +0.000 C 
ATOM     16  C   UNL     1       2.554   4.483  20.551  0.00  0.00    +0.000 C 
ATOM     17  C   UNL     1       2.948   5.215  19.265  0.00  0.00    +0.000 C 
ENDBRANCH  11  12
ENDBRANCH  10  11
ENDBRANCH   2  10
TORSDOF 3
ENDMDL
MODEL 7
REMARK VINA RESULT:      -5.9      1.093      1.512
REMARK  Name = 
REMARK  3 active torsions:
REMARK  status: ('A' for Active; 'I' for Inactive)
REMARK    1  A    between atoms: C_2  and  C_3
REMARK    2  A    between atoms: C_3  and  S_4
REMARK    3  A    between atoms: S_4  and  C_5
REMARK                            x       y       z     vdW  Elec       q    Type
REMARK                         _______ _______ _______ _____ _____    ______ ____
ROOT
ATOM      1  O   UNL     1       7.598   5.226  16.899  0.00  0.00    +0.000 OA
ATOM      2  C   UNL     1       6.616   4.516  16.699  0.00  0.00    +0.000 C 
ATOM      3  N   UNL     1       6.121   4.104  15.484  0.00  0.00    +0.000 N 
ATOM      4  C   UNL     1       6.703   4.456  14.301  0.00  0.00    +0.000 A 
ATOM      5  N   UNL     1       7.635   5.342  14.066  0.00  0.00    +0.000 NA
ATOM      6  C   UNL     1       7.931   5.348  12.719  0.00  0.00    +0.000 A 
ATOM      7  C   UNL     1       7.220   4.449  11.951  0.00  0.00    +0.000 A 
ATOM      8  S   UNL     1       6.113   3.596  12.948  0.00  0.00    +0.000 S 
ATOM      9  H   UNL     1       5.399   3.398  15.453  0.00  0.00    +0.000 HD
ENDROOT
BRANCH   2  10
ATOM     10  C   UNL     1       5.795   4.004  17.873  0.00  0.00    +0.000 C 
BRANCH  10  11
ATOM     11  S   UNL     1       4.262   4.972  18.105  0.00  0.00    +0.000 S 
BRANCH  11  12
ATOM     12  C   UNL     1       3.746   4.413  19.791  0.00  0.00    +0.000 C 
ATOM     13  C   UNL     1       2.330   4.861  20.176  0.00  0.00    +0.000 C 
ATOM     14  C   UNL     1       1.234   4.141  19.394  0.00  0.00    +0.000 C 
ATOM     15  C   UNL     1       1.364   2.626  19.520  0.00  0.00    +0.000 C 
ATOM     16  C   UNL     1       2.753   2.139  19.120  0.00  0.00    +0.000 C 
ATOM     17  C   UNL     1       3.857   2.879  19.879  0.00  0.00    +0.000 C 
ENDBRANCH  11  12
ENDBRANCH  10  11
ENDBRANCH   2  10
TORSDOF 3
ENDMDL
MODEL 8
REMARK VINA RESULT:      -5.8      1.506      1.699
REMARK  Name = 
REMARK  3 active torsions:
REMARK  status: ('A' for Active; 'I' for Inactive)
REMARK    1  A    between atoms: C_2  and  C_3
REMARK    2  A    between atoms: C_3  and  S_4
REMARK    3  A    between atoms: S_4  and  C_5
REMARK                            x       y       z     vdW  Elec       q    Type
REMARK                         _______ _______ _______ _____ _____    ______ ____
ROOT
ATOM      1  O   UNL     1       4.429   3.866  16.190  0.00  0.00    +0.000 OA
ATOM      2  C   UNL     1       5.382   4.592  16.459  0.00  0.00    +0.000 C 
ATOM      3  N   UNL     1       6.425   4.935  15.632  0.00  0.00    +0.000 N 
ATOM      4  C   UNL     1       6.518   4.484  14.347  0.00  0.00    +0.000 A 
ATOM      5  N   UNL     1       5.827   3.554  13.743  0.00  0.00    +0.000 NA
ATOM      6  C   UNL     1       6.252   3.445  12.435  0.00  0.00    +0.000 A 
ATOM      7  C   UNL     1       7.259   4.312  12.065  0.00  0.00    +0.000 A 
ATOM      8  S   UNL     1       7.717   5.267  13.416  0.00  0.00    +0.000 S 
ATOM      9  H   UNL     1       7.069   5.661  15.916  0.00  0.00    +0.000 HD
ENDROOT
BRANCH   2  10
ATOM     10  C   UNL     1       5.501   5.210  17.845  0.00  0.00    +0.000 C 
BRANCH  10  11
ATOM     11  S   UNL     1       4.642   4.210  19.111  0.00  0.00    +0.000 S 
BRANCH  11  12
ATOM     12  C   UNL     1       3.073   5.171  19.311  0.00  0.00    +0.000 C 
ATOM     13  C   UNL     1       2.034   4.877  18.221  0.00  0.00    +0.000 C 
ATOM     14  C   UNL     1       1.418   3.484  18.332  0.00  0.00    +0.000 C 
ATOM     15  C   UNL     1       0.818   3.249  19.715  0.00  0.00    +0.000 C 
ATOM     16  C   UNL     1       1.832   3.507  20.826  0.00  0.00    +0.000 C 
ATOM     17  C   UNL     1       2.474   4.890  20.702  0.00  0.00    +0.000 C 
ENDBRANCH  11  12
ENDBRANCH  10  11
ENDBRANCH   2  10
TORSDOF 3
ENDMDL
MODEL 9
REMARK VINA RESULT:      -5.7      3.309      5.016
REMARK  Name = 
REMARK  3 active torsions:
REMARK  status: ('A' for Active; 'I' for Inactive)
REMARK    1  A    between atoms: C_2  and  C_3
REMARK    2  A    between atoms: C_3  and  S_4
REMARK    3  A    between atoms: S_4  and  C_5
REMARK                            x       y       z     vdW  Elec       q    Type
REMARK                         _______ _______ _______ _____ _____    ______ ____
ROOT
ATOM      1  O   UNL     1       4.581   6.839  16.125  0.00  0.00    +0.000 OA
ATOM      2  C   UNL     1       4.533   6.256  17.205  0.00  0.00    +0.000 C 
ATOM      3  N   UNL     1       3.780   6.600  18.303  0.00  0.00    +0.000 N 
ATOM      4  C   UNL     1       2.954   7.686  18.312  0.00  0.00    +0.000 A 
ATOM      5  N   UNL     1       2.861   8.663  17.449  0.00  0.00    +0.000 NA
ATOM      6  C   UNL     1       1.871   9.536  17.853  0.00  0.00    +0.000 A 
ATOM      7  C   UNL     1       1.219   9.195  19.019  0.00  0.00    +0.000 A 
ATOM      8  S   UNL     1       1.899   7.752  19.653  0.00  0.00    +0.000 S 
ATOM      9  H   UNL     1       3.708   5.958  19.081  0.00  0.00    +0.000 HD
ENDROOT
BRANCH   2  10
ATOM     10  C   UNL     1       5.380   5.013  17.438  0.00  0.00    +0.000 C 
BRANCH  10  11
ATOM     11  S   UNL     1       4.723   3.988  18.801  0.00  0.00    +0.000 S 
BRANCH  11  12
ATOM     12  C   UNL     1       3.752   2.729  17.856  0.00  0.00    +0.000 C 
ATOM     13  C   UNL     1       3.180   1.611  18.737  0.00  0.00    +0.000 C 
ATOM     14  C   UNL     1       2.047   2.079  19.648  0.00  0.00    +0.000 C 
ATOM     15  C   UNL     1       0.933   2.748  18.851  0.00  0.00    +0.000 C 
ATOM     16  C   UNL     1       1.460   3.885  17.980  0.00  0.00    +0.000 C 
ATOM     17  C   UNL     1       2.616   3.428  17.087  0.00  0.00    +0.000 C 
ENDBRANCH  11  12
ENDBRANCH  10  11
ENDBRANCH   2  10
TORSDOF 3
ENDMDL
