MODEL 1
REMARK VINA RESULT:      -8.5      0.000      0.000
REMARK  Name = 
REMARK  10 active torsions:
REMARK  status: ('A' for Active; 'I' for Inactive)
REMARK    1  A    between atoms: C_1  and  O_2
REMARK    2  A    between atoms: O_2  and  C_3
REMARK    3  A    between atoms: C_6  and  C_7
REMARK    4  A    between atoms: N_9  and  C_10
REMARK    5  A    between atoms: C_10  and  C_11
REMARK    6  A    between atoms: C_10  and  C_15
REMARK    7  A    between atoms: C_11  and  C_12
REMARK    8  A    between atoms: C_12  and  O_14
REMARK    9  A    between atoms: C_23  and  C_24
REMARK   10  A    between atoms: C_28  and  C_29
REMARK                            x       y       z     vdW  Elec       q    Type
REMARK                         _______ _______ _______ _____ _____    ______ ____
ROOT
ATOM      1  C   UNL     1       2.788   4.172  19.623  0.00  0.00    +0.000 A 
ATOM      2  C   UNL     1       1.551   4.363  20.244  0.00  0.00    +0.000 A 
ATOM      3  C   UNL     1       1.113   5.649  20.536  0.00  0.00    +0.000 A 
ATOM      4  C   UNL     1       1.939   6.713  20.216  0.00  0.00    +0.000 A 
ATOM      5  N   UNL     1       3.145   6.574  19.603  0.00  0.00    +0.000 NA
ATOM      6  C   UNL     1       3.564   5.307  19.300  0.00  0.00    +0.000 A 
ENDROOT
BRANCH   6   7
ATOM      7  C   UNL     1       4.871   5.254  18.586  0.00  0.00    +0.000 A 
ATOM      8  C   UNL     1       6.079   5.485  19.273  0.00  0.00    +0.000 A 
ATOM      9  C   UNL     1       7.315   5.453  18.618  0.00  0.00    +0.000 A 
ATOM     10  C   UNL     1       7.380   5.185  17.253  0.00  0.00    +0.000 A 
ATOM     11  C   UNL     1       6.205   4.961  16.528  0.00  0.00    +0.000 A 
ATOM     12  C   UNL     1       4.970   5.013  17.202  0.00  0.00    +0.000 A 
BRANCH  11  13
ATOM     13  C   UNL     1       6.234   4.667  15.049  0.00  0.00    +0.000 C 
ATOM     14  F   UNL     1       6.124   3.343  14.748  0.00  0.00    +0.000 F 
ATOM     15  F   UNL     1       5.225   5.287  14.374  0.00  0.00    +0.000 F 
ATOM     16  F   UNL     1       7.387   5.088  14.457  0.00  0.00    +0.000 F 
ENDBRANCH  11  13
ENDBRANCH   6   7
BRANCH   4  17
ATOM     17  C   UNL     1       1.506   8.108  20.562  0.00  0.00    +0.000 C 
ATOM     18  O   UNL     1       1.566   8.519  21.718  0.00  0.00    +0.000 OA
ATOM     19  N   UNL     1       1.059   8.863  19.504  0.00  0.00    +0.000 N 
ATOM     20  H   UNL     1       1.069   8.425  18.582  0.00  0.00    +0.000 HD
BRANCH  19  21
ATOM     21  C   UNL     1       0.504  10.207  19.634  0.00  0.00    +0.000 C 
BRANCH  21  22
ATOM     22  C   UNL     1      -0.760  10.411  18.811  0.00  0.00    +0.000 A 
ATOM     23  C   UNL     1      -1.029   9.680  17.641  0.00  0.00    +0.000 A 
ATOM     24  C   UNL     1      -2.197   9.903  16.904  0.00  0.00    +0.000 A 
ATOM     25  C   UNL     1      -3.122  10.856  17.322  0.00  0.00    +0.000 A 
ATOM     26  C   UNL     1      -2.885  11.580  18.486  0.00  0.00    +0.000 A 
ATOM     27  C   UNL     1      -1.721  11.348  19.219  0.00  0.00    +0.000 A 
ATOM     28  F   UNL     1      -1.533  12.056  20.343  0.00  0.00    +0.000 F 
ENDBRANCH  21  22
BRANCH  21  29
ATOM     29  C   UNL     1       1.594  11.261  19.375  0.00  0.00    +0.000 C 
BRANCH  29  30
ATOM     30  C   UNL     1       2.210  11.138  18.004  0.00  0.00    +0.000 C 
ATOM     31  O   UNL     1       2.480  10.085  17.447  0.00  0.00    +0.000 OA
BRANCH  30  32
ATOM     32  O   UNL     1       2.515  12.336  17.452  0.00  0.00    +0.000 OA
ATOM     33  H   UNL     1       3.397  12.374  17.034  0.00  0.00    +0.000 HD
ENDBRANCH  30  32
ENDBRANCH  29  30
ENDBRANCH  21  29
ENDBRANCH  19  21
ENDBRANCH   4  17
BRANCH   1  35
ATOM     34  C   UNL     1       4.001   2.317  20.485  0.00  0.00    +0.000 C 
ATOM     35  O   UNL     1       3.307   2.922  19.398  0.00  0.00    +0.000 OA
ENDBRANCH   1  35
TORSDOF 9
ENDMDL
MODEL 2
REMARK VINA RESULT:      -8.4      0.851      1.148
REMARK  Name = 
REMARK  10 active torsions:
REMARK  status: ('A' for Active; 'I' for Inactive)
REMARK    1  A    between atoms: C_1  and  O_2
REMARK    2  A    between atoms: O_2  and  C_3
REMARK    3  A    between atoms: C_6  and  C_7
REMARK    4  A    between atoms: N_9  and  C_10
REMARK    5  A    between atoms: C_10  and  C_11
REMARK    6  A    between atoms: C_10  and  C_15
REMARK    7  A    between atoms: C_11  and  C_12
REMARK    8  A    between atoms: C_12  and  O_14
REMARK    9  A    between atoms: C_23  and  C_24
REMARK   10  A    between atoms: C_28  and  C_29
REMARK                            x       y       z     vdW  Elec       q    Type
REMARK                         _______ _______ _______ _____ _____    ______ ____
ROOT
ATOM      1  C   UNL     1       2.915   4.218  19.721  0.00  0.00    +0.000 A 
ATOM      2  C   UNL     1       1.692   4.500  20.337  0.00  0.00    +0.000 A 
ATOM      3  C   UNL     1       1.270   5.817  20.470  0.00  0.00    +0.000 A 
ATOM      4  C   UNL     1       2.097   6.823  19.999  0.00  0.00    +0.000 A 
ATOM      5  N   UNL     1       3.289   6.594  19.385  0.00  0.00    +0.000 NA
ATOM      6  C   UNL     1       3.692   5.295  19.239  0.00  0.00    +0.000 A 
ENDROOT
BRANCH   6   7
ATOM      7  C   UNL     1       4.983   5.137  18.512  0.00  0.00    +0.000 A 
ATOM      8  C   UNL     1       6.212   5.226  19.195  0.00  0.00    +0.000 A 
ATOM      9  C   UNL     1       7.435   5.095  18.528  0.00  0.00    +0.000 A 
ATOM     10  C   UNL     1       7.465   4.867  17.155  0.00  0.00    +0.000 A 
ATOM     11  C   UNL     1       6.270   4.782  16.434  0.00  0.00    +0.000 A 
ATOM     12  C   UNL     1       5.050   4.933  17.120  0.00  0.00    +0.000 A 
BRANCH  11  13
ATOM     13  C   UNL     1       6.261   4.535  14.946  0.00  0.00    +0.000 C 
ATOM     14  F   UNL     1       7.366   5.004  14.302  0.00  0.00    +0.000 F 
ATOM     15  F   UNL     1       6.185   3.210  14.638  0.00  0.00    +0.000 F 
ATOM     16  F   UNL     1       5.195   5.119  14.328  0.00  0.00    +0.000 F 
ENDBRANCH  11  13
ENDBRANCH   6   7
BRANCH   4  17
ATOM     17  C   UNL     1       1.682   8.255  20.171  0.00  0.00    +0.000 C 
ATOM     18  O   UNL     1       1.441   8.713  21.285  0.00  0.00    +0.000 OA
ATOM     19  N   UNL     1       1.606   8.988  19.010  0.00  0.00    +0.000 N 
ATOM     20  H   UNL     1       1.846   8.509  18.141  0.00  0.00    +0.000 HD
BRANCH  19  21
ATOM     21  C   UNL     1       1.131  10.367  18.942  0.00  0.00    +0.000 C 
BRANCH  21  22
ATOM     22  C   UNL     1      -0.338  10.472  18.554  0.00  0.00    +0.000 A 
ATOM     23  C   UNL     1      -0.897   9.734  17.497  0.00  0.00    +0.000 A 
ATOM     24  C   UNL     1      -2.248   9.865  17.162  0.00  0.00    +0.000 A 
ATOM     25  C   UNL     1      -3.070  10.732  17.878  0.00  0.00    +0.000 A 
ATOM     26  C   UNL     1      -2.542  11.459  18.940  0.00  0.00    +0.000 A 
ATOM     27  C   UNL     1      -1.195  11.319  19.272  0.00  0.00    +0.000 A 
ATOM     28  F   UNL     1      -0.725  12.028  20.309  0.00  0.00    +0.000 F 
ENDBRANCH  21  22
BRANCH  21  29
ATOM     29  C   UNL     1       2.070  11.211  18.064  0.00  0.00    +0.000 C 
BRANCH  29  30
ATOM     30  C   UNL     1       2.289  12.599  18.612  0.00  0.00    +0.000 C 
ATOM     31  O   UNL     1       2.154  12.922  19.782  0.00  0.00    +0.000 OA
BRANCH  30  32
ATOM     32  O   UNL     1       2.589  13.505  17.651  0.00  0.00    +0.000 OA
ATOM     33  H   UNL     1       2.544  13.155  16.740  0.00  0.00    +0.000 HD
ENDBRANCH  30  32
ENDBRANCH  29  30
ENDBRANCH  21  29
ENDBRANCH  19  21
ENDBRANCH   4  17
BRANCH   1  35
ATOM     34  C   UNL     1       2.819   2.077  18.691  0.00  0.00    +0.000 C 
ATOM     35  O   UNL     1       3.420   2.945  19.648  0.00  0.00    +0.000 OA
ENDBRANCH   1  35
TORSDOF 9
ENDMDL
MODEL 3
REMARK VINA RESULT:      -8.1      2.427      9.464
REMARK  Name = 
REMARK  10 active torsions:
REMARK  status: ('A' for Active; 'I' for Inactive)
REMARK    1  A    between atoms: C_1  and  O_2
REMARK    2  A    between atoms: O_2  and  C_3
REMARK    3  A    between atoms: C_6  and  C_7
REMARK    4  A    between atoms: N_9  and  C_10
REMARK    5  A    between atoms: C_10  and  C_11
REMARK    6  A    between atoms: C_10  and  C_15
REMARK    7  A    between atoms: C_11  and  C_12
REMARK    8  A    between atoms: C_12  and  O_14
REMARK    9  A    between atoms: C_23  and  C_24
REMARK   10  A    between atoms: C_28  and  C_29
REMARK                            x       y       z     vdW  Elec       q    Type
REMARK                         _______ _______ _______ _____ _____    ______ ____
ROOT
ATOM      1  C   UNL     1       1.240  10.628  18.775  0.00  0.00    +0.000 A 
ATOM      2  C   UNL     1       2.013   9.996  17.796  0.00  0.00    +0.000 A 
ATOM      3  C   UNL     1       2.382   8.665  17.956  0.00  0.00    +0.000 A 
ATOM      4  C   UNL     1       1.983   8.007  19.107  0.00  0.00    +0.000 A 
ATOM      5  N   UNL     1       1.224   8.580  20.080  0.00  0.00    +0.000 NA
ATOM      6  C   UNL     1       0.846   9.884  19.909  0.00  0.00    +0.000 A 
ENDROOT
BRANCH   6   7
ATOM      7  C   UNL     1      -0.023  10.412  20.997  0.00  0.00    +0.000 A 
ATOM      8  C   UNL     1       0.035   9.871  22.296  0.00  0.00    +0.000 A 
ATOM      9  C   UNL     1      -0.783  10.344  23.328  0.00  0.00    +0.000 A 
ATOM     10  C   UNL     1      -1.685  11.378  23.091  0.00  0.00    +0.000 A 
ATOM     11  C   UNL     1      -1.786  11.939  21.814  0.00  0.00    +0.000 A 
ATOM     12  C   UNL     1      -0.964  11.438  20.785  0.00  0.00    +0.000 A 
BRANCH  11  13
ATOM     13  C   UNL     1      -2.749  13.061  21.517  0.00  0.00    +0.000 C 
ATOM     14  F   UNL     1      -2.632  14.124  22.361  0.00  0.00    +0.000 F 
ATOM     15  F   UNL     1      -2.592  13.565  20.261  0.00  0.00    +0.000 F 
ATOM     16  F   UNL     1      -4.050  12.664  21.597  0.00  0.00    +0.000 F 
ENDBRANCH  11  13
ENDBRANCH   6   7
BRANCH   4  17
ATOM     17  C   UNL     1       2.407   6.583  19.322  0.00  0.00    +0.000 C 
ATOM     18  O   UNL     1       2.225   6.027  20.402  0.00  0.00    +0.000 OA
ATOM     19  N   UNL     1       2.990   5.974  18.236  0.00  0.00    +0.000 N 
ATOM     20  H   UNL     1       3.075   6.527  17.382  0.00  0.00    +0.000 HD
BRANCH  19  21
ATOM     21  C   UNL     1       3.558   4.630  18.259  0.00  0.00    +0.000 C 
BRANCH  21  22
ATOM     22  C   UNL     1       4.863   4.522  17.481  0.00  0.00    +0.000 A 
ATOM     23  C   UNL     1       4.908   4.171  16.121  0.00  0.00    +0.000 A 
ATOM     24  C   UNL     1       6.127   4.071  15.442  0.00  0.00    +0.000 A 
ATOM     25  C   UNL     1       7.325   4.324  16.106  0.00  0.00    +0.000 A 
ATOM     26  C   UNL     1       7.303   4.691  17.447  0.00  0.00    +0.000 A 
ATOM     27  C   UNL     1       6.084   4.795  18.116  0.00  0.00    +0.000 A 
ATOM     28  F   UNL     1       6.102   5.163  19.406  0.00  0.00    +0.000 F 
ENDBRANCH  21  22
BRANCH  21  29
ATOM     29  C   UNL     1       2.498   3.596  17.843  0.00  0.00    +0.000 C 
BRANCH  29  30
ATOM     30  C   UNL     1       2.215   2.583  18.925  0.00  0.00    +0.000 C 
ATOM     31  O   UNL     1       2.650   2.635  20.066  0.00  0.00    +0.000 OA
BRANCH  30  32
ATOM     32  O   UNL     1       1.472   1.539  18.490  0.00  0.00    +0.000 OA
ATOM     33  H   UNL     1       1.022   1.042  19.201  0.00  0.00    +0.000 HD
ENDBRANCH  30  32
ENDBRANCH  29  30
ENDBRANCH  21  29
ENDBRANCH  19  21
ENDBRANCH   4  17
BRANCH   1  35
ATOM     34  C   UNL     1       2.024  12.872  18.728  0.00  0.00    +0.000 C 
ATOM     35  O   UNL     1       0.929  11.962  18.710  0.00  0.00    +0.000 OA
ENDBRANCH   1  35
TORSDOF 9
ENDMDL
MODEL 4
REMARK VINA RESULT:      -8.0      3.510      5.077
REMARK  Name = 
REMARK  10 active torsions:
REMARK  status: ('A' for Active; 'I' for Inactive)
REMARK    1  A    between atoms: C_1  and  O_2
REMARK    2  A    between atoms: O_2  and  C_3
REMARK    3  A    between atoms: C_6  and  C_7
REMARK    4  A    between atoms: N_9  and  C_10
REMARK    5  A    between atoms: C_10  and  C_11
REMARK    6  A    between atoms: C_10  and  C_15
REMARK    7  A    between atoms: C_11  and  C_12
REMARK    8  A    between atoms: C_12  and  O_14
REMARK    9  A    between atoms: C_23  and  C_24
REMARK   10  A    between atoms: C_28  and  C_29
REMARK                            x       y       z     vdW  Elec       q    Type
REMARK                         _______ _______ _______ _____ _____    ______ ____
ROOT
ATOM      1  C   UNL     1       4.259   5.886  17.319  0.00  0.00    +0.000 A 
ATOM      2  C   UNL     1       4.769   7.119  16.903  0.00  0.00    +0.000 A 
ATOM      3  C   UNL     1       4.041   8.282  17.129  0.00  0.00    +0.000 A 
ATOM      4  C   UNL     1       2.807   8.175  17.749  0.00  0.00    +0.000 A 
ATOM      5  N   UNL     1       2.278   6.997  18.178  0.00  0.00    +0.000 NA
ATOM      6  C   UNL     1       3.007   5.858  17.971  0.00  0.00    +0.000 A 
ENDROOT
BRANCH   6   7
ATOM      7  C   UNL     1       2.373   4.624  18.517  0.00  0.00    +0.000 A 
ATOM      8  C   UNL     1       1.638   3.760  17.683  0.00  0.00    +0.000 A 
ATOM      9  C   UNL     1       1.024   2.605  18.179  0.00  0.00    +0.000 A 
ATOM     10  C   UNL     1       1.131   2.277  19.528  0.00  0.00    +0.000 A 
ATOM     11  C   UNL     1       1.842   3.111  20.396  0.00  0.00    +0.000 A 
ATOM     12  C   UNL     1       2.439   4.278  19.880  0.00  0.00    +0.000 A 
BRANCH  11  13
ATOM     13  C   UNL     1       1.981   2.790  21.863  0.00  0.00    +0.000 C 
ATOM     14  F   UNL     1       2.335   3.860  22.630  0.00  0.00    +0.000 F 
ATOM     15  F   UNL     1       0.827   2.310  22.405  0.00  0.00    +0.000 F 
ATOM     16  F   UNL     1       2.925   1.836  22.099  0.00  0.00    +0.000 F 
ENDBRANCH  11  13
ENDBRANCH   6   7
BRANCH   4  17
ATOM     17  C   UNL     1       1.985   9.411  17.964  0.00  0.00    +0.000 C 
ATOM     18  O   UNL     1       2.406  10.515  17.629  0.00  0.00    +0.000 OA
ATOM     19  N   UNL     1       0.754   9.204  18.541  0.00  0.00    +0.000 N 
ATOM     20  H   UNL     1       0.499   8.241  18.762  0.00  0.00    +0.000 HD
BRANCH  19  21
ATOM     21  C   UNL     1      -0.161  10.276  18.923  0.00  0.00    +0.000 C 
BRANCH  21  22
ATOM     22  C   UNL     1      -0.380  10.363  20.428  0.00  0.00    +0.000 A 
ATOM     23  C   UNL     1      -0.371   9.231  21.261  0.00  0.00    +0.000 A 
ATOM     24  C   UNL     1      -0.586   9.348  22.638  0.00  0.00    +0.000 A 
ATOM     25  C   UNL     1      -0.811  10.598  23.212  0.00  0.00    +0.000 A 
ATOM     26  C   UNL     1      -0.807  11.733  22.408  0.00  0.00    +0.000 A 
ATOM     27  C   UNL     1      -0.585  11.609  21.037  0.00  0.00    +0.000 A 
ATOM     28  F   UNL     1      -0.576  12.728  20.297  0.00  0.00    +0.000 F 
ENDBRANCH  21  22
BRANCH  21  29
ATOM     29  C   UNL     1      -1.462  10.181  18.109  0.00  0.00    +0.000 C 
BRANCH  29  30
ATOM     30  C   UNL     1      -2.138  11.518  17.932  0.00  0.00    +0.000 C 
ATOM     31  O   UNL     1      -3.278  11.782  18.284  0.00  0.00    +0.000 OA
BRANCH  30  32
ATOM     32  O   UNL     1      -1.373  12.412  17.261  0.00  0.00    +0.000 OA
ATOM     33  H   UNL     1      -1.793  12.779  16.459  0.00  0.00    +0.000 HD
ENDBRANCH  30  32
ENDBRANCH  29  30
ENDBRANCH  21  29
ENDBRANCH  19  21
ENDBRANCH   4  17
BRANCH   1  35
ATOM     34  C   UNL     1       5.965   4.334  17.901  0.00  0.00    +0.000 C 
ATOM     35  O   UNL     1       4.893   4.702  17.038  0.00  0.00    +0.000 OA
ENDBRANCH   1  35
TORSDOF 9
ENDMDL
MODEL 5
REMARK VINA RESULT:      -8.0      0.892      1.382
REMARK  Name = 
REMARK  10 active torsions:
REMARK  status: ('A' for Active; 'I' for Inactive)
REMARK    1  A    between atoms: C_1  and  O_2
REMARK    2  A    between atoms: O_2  and  C_3
REMARK    3  A    between atoms: C_6  and  C_7
REMARK    4  A    between atoms: N_9  and  C_10
REMARK    5  A    between atoms: C_10  and  C_11
REMARK    6  A    between atoms: C_10  and  C_15
REMARK    7  A    between atoms: C_11  and  C_12
REMARK    8  A    between atoms: C_12  and  O_14
REMARK    9  A    between atoms: C_23  and  C_24
REMARK   10  A    between atoms: C_28  and  C_29
REMARK                            x       y       z     vdW  Elec       q    Type
REMARK                         _______ _______ _______ _____ _____    ______ ____
ROOT
ATOM      1  C   UNL     1       2.680   4.265  19.567  0.00  0.00    +0.000 A 
ATOM      2  C   UNL     1       1.439   4.482  20.173  0.00  0.00    +0.000 A 
ATOM      3  C   UNL     1       1.042   5.773  20.498  0.00  0.00    +0.000 A 
ATOM      4  C   UNL     1       1.911   6.816  20.225  0.00  0.00    +0.000 A 
ATOM      5  N   UNL     1       3.123   6.652  19.628  0.00  0.00    +0.000 NA
ATOM      6  C   UNL     1       3.501   5.381  19.292  0.00  0.00    +0.000 A 
ENDROOT
BRANCH   6   7
ATOM      7  C   UNL     1       4.818   5.303  18.600  0.00  0.00    +0.000 A 
ATOM      8  C   UNL     1       6.019   5.513  19.305  0.00  0.00    +0.000 A 
ATOM      9  C   UNL     1       7.264   5.457  18.669  0.00  0.00    +0.000 A 
ATOM     10  C   UNL     1       7.346   5.185  17.306  0.00  0.00    +0.000 A 
ATOM     11  C   UNL     1       6.179   4.980  16.563  0.00  0.00    +0.000 A 
ATOM     12  C   UNL     1       4.934   5.056  17.218  0.00  0.00    +0.000 A 
BRANCH  11  13
ATOM     13  C   UNL     1       6.225   4.682  15.085  0.00  0.00    +0.000 C 
ATOM     14  F   UNL     1       5.194   5.226  14.381  0.00  0.00    +0.000 F 
ATOM     15  F   UNL     1       7.363   5.144  14.495  0.00  0.00    +0.000 F 
ATOM     16  F   UNL     1       6.190   3.345  14.824  0.00  0.00    +0.000 F 
ENDBRANCH  11  13
ENDBRANCH   6   7
BRANCH   4  17
ATOM     17  C   UNL     1       1.522   8.214  20.607  0.00  0.00    +0.000 C 
ATOM     18  O   UNL     1       1.598   8.595  21.772  0.00  0.00    +0.000 OA
ATOM     19  N   UNL     1       1.095   9.009  19.569  0.00  0.00    +0.000 N 
ATOM     20  H   UNL     1       1.089   8.594  18.636  0.00  0.00    +0.000 HD
BRANCH  19  21
ATOM     21  C   UNL     1       0.582  10.366  19.735  0.00  0.00    +0.000 C 
BRANCH  21  22
ATOM     22  C   UNL     1      -0.726  10.602  18.992  0.00  0.00    +0.000 A 
ATOM     23  C   UNL     1      -1.707  11.498  19.450  0.00  0.00    +0.000 A 
ATOM     24  C   UNL     1      -2.902  11.681  18.747  0.00  0.00    +0.000 A 
ATOM     25  C   UNL     1      -3.141  10.977  17.569  0.00  0.00    +0.000 A 
ATOM     26  C   UNL     1      -2.176  10.097  17.087  0.00  0.00    +0.000 A 
ATOM     27  C   UNL     1      -0.984   9.925  17.791  0.00  0.00    +0.000 A 
ATOM     28  F   UNL     1      -0.074   9.078  17.289  0.00  0.00    +0.000 F 
ENDBRANCH  21  22
BRANCH  21  29
ATOM     29  C   UNL     1       1.678  11.394  19.408  0.00  0.00    +0.000 C 
BRANCH  29  30
ATOM     30  C   UNL     1       2.231  11.235  18.014  0.00  0.00    +0.000 C 
ATOM     31  O   UNL     1       2.630  10.185  17.532  0.00  0.00    +0.000 OA
BRANCH  30  32
ATOM     32  O   UNL     1       2.317  12.407  17.343  0.00  0.00    +0.000 OA
ATOM     33  H   UNL     1       2.510  12.312  16.390  0.00  0.00    +0.000 HD
ENDBRANCH  30  32
ENDBRANCH  29  30
ENDBRANCH  21  29
ENDBRANCH  19  21
ENDBRANCH   4  17
BRANCH   1  35
ATOM     34  C   UNL     1       2.188   1.969  19.197  0.00  0.00    +0.000 C 
ATOM     35  O   UNL     1       3.158   3.005  19.312  0.00  0.00    +0.000 OA
ENDBRANCH   1  35
TORSDOF 9
ENDMDL
MODEL 6
REMARK VINA RESULT:      -8.0      2.449      3.776
REMARK  Name = 
REMARK  10 active torsions:
REMARK  status: ('A' for Active; 'I' for Inactive)
REMARK    1  A    between atoms: C_1  and  O_2
REMARK    2  A    between atoms: O_2  and  C_3
REMARK    3  A    between atoms: C_6  and  C_7
REMARK    4  A    between atoms: N_9  and  C_10
REMARK    5  A    between atoms: C_10  and  C_11
REMARK    6  A    between atoms: C_10  and  C_15
REMARK    7  A    between atoms: C_11  and  C_12
REMARK    8  A    between atoms: C_12  and  O_14
REMARK    9  A    between atoms: C_23  and  C_24
REMARK   10  A    between atoms: C_28  and  C_29
REMARK                            x       y       z     vdW  Elec       q    Type
REMARK                         _______ _______ _______ _____ _____    ______ ____
ROOT
ATOM      1  C   UNL     1       2.266   6.101  20.305  0.00  0.00    +0.000 A 
ATOM      2  C   UNL     1       1.497   7.044  20.994  0.00  0.00    +0.000 A 
ATOM      3  C   UNL     1       1.216   8.272  20.406  0.00  0.00    +0.000 A 
ATOM      4  C   UNL     1       1.733   8.532  19.148  0.00  0.00    +0.000 A 
ATOM      5  N   UNL     1       2.478   7.640  18.439  0.00  0.00    +0.000 NA
ATOM      6  C   UNL     1       2.735   6.426  19.013  0.00  0.00    +0.000 A 
ENDROOT
BRANCH   6   7
ATOM      7  C   UNL     1       3.514   5.497  18.147  0.00  0.00    +0.000 A 
ATOM      8  C   UNL     1       2.904   4.370  17.564  0.00  0.00    +0.000 A 
ATOM      9  C   UNL     1       3.622   3.478  16.759  0.00  0.00    +0.000 A 
ATOM     10  C   UNL     1       4.975   3.692  16.508  0.00  0.00    +0.000 A 
ATOM     11  C   UNL     1       5.625   4.792  17.074  0.00  0.00    +0.000 A 
ATOM     12  C   UNL     1       4.889   5.669  17.895  0.00  0.00    +0.000 A 
BRANCH  11  13
ATOM     13  C   UNL     1       7.089   5.059  16.826  0.00  0.00    +0.000 C 
ATOM     14  F   UNL     1       7.923   4.365  17.650  0.00  0.00    +0.000 F 
ATOM     15  F   UNL     1       7.470   4.740  15.557  0.00  0.00    +0.000 F 
ATOM     16  F   UNL     1       7.413   6.373  16.990  0.00  0.00    +0.000 F 
ENDBRANCH  11  13
ENDBRANCH   6   7
BRANCH   4  17
ATOM     17  C   UNL     1       1.480   9.867  18.512  0.00  0.00    +0.000 C 
ATOM     18  O   UNL     1       2.153  10.251  17.560  0.00  0.00    +0.000 OA
ATOM     19  N   UNL     1       0.455  10.596  19.068  0.00  0.00    +0.000 N 
ATOM     20  H   UNL     1      -0.050  10.172  19.846  0.00  0.00    +0.000 HD
BRANCH  19  21
ATOM     21  C   UNL     1       0.106  11.956  18.665  0.00  0.00    +0.000 C 
BRANCH  21  22
ATOM     22  C   UNL     1       0.866  13.021  19.444  0.00  0.00    +0.000 A 
ATOM     23  C   UNL     1       0.557  13.350  20.775  0.00  0.00    +0.000 A 
ATOM     24  C   UNL     1       1.270  14.342  21.456  0.00  0.00    +0.000 A 
ATOM     25  C   UNL     1       2.309  15.022  20.824  0.00  0.00    +0.000 A 
ATOM     26  C   UNL     1       2.643  14.700  19.512  0.00  0.00    +0.000 A 
ATOM     27  C   UNL     1       1.931  13.706  18.842  0.00  0.00    +0.000 A 
ATOM     28  F   UNL     1       2.290  13.414  17.583  0.00  0.00    +0.000 F 
ENDBRANCH  21  22
BRANCH  21  29
ATOM     29  C   UNL     1      -1.421  12.142  18.682  0.00  0.00    +0.000 C 
BRANCH  29  30
ATOM     30  C   UNL     1      -2.119  11.335  17.616  0.00  0.00    +0.000 C 
ATOM     31  O   UNL     1      -1.703  10.288  17.142  0.00  0.00    +0.000 OA
BRANCH  30  32
ATOM     32  O   UNL     1      -3.248  11.926  17.160  0.00  0.00    +0.000 OA
ATOM     33  H   UNL     1      -3.685  11.449  16.428  0.00  0.00    +0.000 HD
ENDBRANCH  30  32
ENDBRANCH  29  30
ENDBRANCH  21  29
ENDBRANCH  19  21
ENDBRANCH   4  17
BRANCH   1  35
ATOM     34  C   UNL     1       1.632   3.929  21.037  0.00  0.00    +0.000 C 
ATOM     35  O   UNL     1       2.649   4.914  20.876  0.00  0.00    +0.000 OA
ENDBRANCH   1  35
TORSDOF 9
ENDMDL
MODEL 7
REMARK VINA RESULT:      -8.0      1.537      1.971
REMARK  Name = 
REMARK  10 active torsions:
REMARK  status: ('A' for Active; 'I' for Inactive)
REMARK    1  A    between atoms: C_1  and  O_2
REMARK    2  A    between atoms: O_2  and  C_3
REMARK    3  A    between atoms: C_6  and  C_7
REMARK    4  A    between atoms: N_9  and  C_10
REMARK    5  A    between atoms: C_10  and  C_11
REMARK    6  A    between atoms: C_10  and  C_15
REMARK    7  A    between atoms: C_11  and  C_12
REMARK    8  A    between atoms: C_12  and  O_14
REMARK    9  A    between atoms: C_23  and  C_24
REMARK   10  A    between atoms: C_28  and  C_29
REMARK                            x       y       z     vdW  Elec       q    Type
REMARK                         _______ _______ _______ _____ _____    ______ ____
ROOT
ATOM      1  C   UNL     1       2.734   4.489  19.749  0.00  0.00    +0.000 A 
ATOM      2  C   UNL     1       1.664   4.602  20.642  0.00  0.00    +0.000 A 
ATOM      3  C   UNL     1       1.136   5.854  20.937  0.00  0.00    +0.000 A 
ATOM      4  C   UNL     1       1.711   6.966  20.344  0.00  0.00    +0.000 A 
ATOM      5  N   UNL     1       2.746   6.901  19.464  0.00  0.00    +0.000 NA
ATOM      6  C   UNL     1       3.249   5.666  19.161  0.00  0.00    +0.000 A 
ENDROOT
BRANCH   6   7
ATOM      7  C   UNL     1       4.346   5.687  18.152  0.00  0.00    +0.000 A 
ATOM      8  C   UNL     1       4.324   4.822  17.042  0.00  0.00    +0.000 A 
ATOM      9  C   UNL     1       5.351   4.817  16.092  0.00  0.00    +0.000 A 
ATOM     10  C   UNL     1       6.433   5.684  16.223  0.00  0.00    +0.000 A 
ATOM     11  C   UNL     1       6.503   6.554  17.316  0.00  0.00    +0.000 A 
ATOM     12  C   UNL     1       5.467   6.532  18.269  0.00  0.00    +0.000 A 
BRANCH  11  13
ATOM     13  C   UNL     1       7.657   7.509  17.493  0.00  0.00    +0.000 C 
ATOM     14  F   UNL     1       8.494   7.567  16.420  0.00  0.00    +0.000 F 
ATOM     15  F   UNL     1       7.246   8.789  17.715  0.00  0.00    +0.000 F 
ATOM     16  F   UNL     1       8.442   7.183  18.559  0.00  0.00    +0.000 F 
ENDBRANCH  11  13
ENDBRANCH   6   7
BRANCH   4  17
ATOM     17  C   UNL     1       1.187   8.330  20.682  0.00  0.00    +0.000 C 
ATOM     18  O   UNL     1       1.009   8.667  21.850  0.00  0.00    +0.000 OA
ATOM     19  N   UNL     1       0.939   9.147  19.604  0.00  0.00    +0.000 N 
ATOM     20  H   UNL     1       1.139   8.770  18.678  0.00  0.00    +0.000 HD
BRANCH  19  21
ATOM     21  C   UNL     1       0.338  10.474  19.705  0.00  0.00    +0.000 C 
BRANCH  21  22
ATOM     22  C   UNL     1      -0.911  10.628  18.847  0.00  0.00    +0.000 A 
ATOM     23  C   UNL     1      -1.119   9.887  17.672  0.00  0.00    +0.000 A 
ATOM     24  C   UNL     1      -2.274  10.063  16.903  0.00  0.00    +0.000 A 
ATOM     25  C   UNL     1      -3.247  10.979  17.294  0.00  0.00    +0.000 A 
ATOM     26  C   UNL     1      -3.070  11.712  18.464  0.00  0.00    +0.000 A 
ATOM     27  C   UNL     1      -1.919  11.526  19.228  0.00  0.00    +0.000 A 
ATOM     28  F   UNL     1      -1.789  12.242  20.355  0.00  0.00    +0.000 F 
ENDBRANCH  21  22
BRANCH  21  29
ATOM     29  C   UNL     1       1.400  11.560  19.460  0.00  0.00    +0.000 C 
BRANCH  29  30
ATOM     30  C   UNL     1       2.071  11.427  18.116  0.00  0.00    +0.000 C 
ATOM     31  O   UNL     1       2.431  10.373  17.612  0.00  0.00    +0.000 OA
BRANCH  30  32
ATOM     32  O   UNL     1       2.316  12.621  17.527  0.00  0.00    +0.000 OA
ATOM     33  H   UNL     1       2.383  13.371  18.149  0.00  0.00    +0.000 HD
ENDBRANCH  30  32
ENDBRANCH  29  30
ENDBRANCH  21  29
ENDBRANCH  19  21
ENDBRANCH   4  17
BRANCH   1  35
ATOM     34  C   UNL     1       2.501   2.202  19.143  0.00  0.00    +0.000 C 
ATOM     35  O   UNL     1       3.350   3.290  19.496  0.00  0.00    +0.000 OA
ENDBRANCH   1  35
TORSDOF 9
ENDMDL
MODEL 8
REMARK VINA RESULT:      -7.9      3.272      8.504
REMARK  Name = 
REMARK  10 active torsions:
REMARK  status: ('A' for Active; 'I' for Inactive)
REMARK    1  A    between atoms: C_1  and  O_2
REMARK    2  A    between atoms: O_2  and  C_3
REMARK    3  A    between atoms: C_6  and  C_7
REMARK    4  A    between atoms: N_9  and  C_10
REMARK    5  A    between atoms: C_10  and  C_11
REMARK    6  A    between atoms: C_10  and  C_15
REMARK    7  A    between atoms: C_11  and  C_12
REMARK    8  A    between atoms: C_12  and  O_14
REMARK    9  A    between atoms: C_23  and  C_24
REMARK   10  A    between atoms: C_28  and  C_29
REMARK                            x       y       z     vdW  Elec       q    Type
REMARK                         _______ _______ _______ _____ _____    ______ ____
ROOT
ATOM      1  C   UNL     1       0.507  10.839  21.316  0.00  0.00    +0.000 A 
ATOM      2  C   UNL     1       0.690   9.482  21.597  0.00  0.00    +0.000 A 
ATOM      3  C   UNL     1       1.264   8.648  20.645  0.00  0.00    +0.000 A 
ATOM      4  C   UNL     1       1.620   9.193  19.423  0.00  0.00    +0.000 A 
ATOM      5  N   UNL     1       1.468  10.509  19.111  0.00  0.00    +0.000 NA
ATOM      6  C   UNL     1       0.922  11.330  20.058  0.00  0.00    +0.000 A 
ENDROOT
BRANCH   6   7
ATOM      7  C   UNL     1       0.840  12.760  19.648  0.00  0.00    +0.000 A 
ATOM      8  C   UNL     1      -0.380  13.461  19.709  0.00  0.00    +0.000 A 
ATOM      9  C   UNL     1      -0.479  14.800  19.315  0.00  0.00    +0.000 A 
ATOM     10  C   UNL     1       0.643  15.481  18.851  0.00  0.00    +0.000 A 
ATOM     11  C   UNL     1       1.873  14.823  18.763  0.00  0.00    +0.000 A 
ATOM     12  C   UNL     1       1.950  13.470  19.149  0.00  0.00    +0.000 A 
BRANCH  11  13
ATOM     13  C   UNL     1       3.112  15.526  18.267  0.00  0.00    +0.000 C 
ATOM     14  F   UNL     1       2.885  16.372  17.223  0.00  0.00    +0.000 F 
ATOM     15  F   UNL     1       3.708  16.279  19.234  0.00  0.00    +0.000 F 
ATOM     16  F   UNL     1       4.068  14.654  17.837  0.00  0.00    +0.000 F 
ENDBRANCH  11  13
ENDBRANCH   6   7
BRANCH   4  17
ATOM     17  C   UNL     1       2.201   8.303  18.364  0.00  0.00    +0.000 C 
ATOM     18  O   UNL     1       2.182   8.634  17.181  0.00  0.00    +0.000 OA
ATOM     19  N   UNL     1       2.745   7.126  18.820  0.00  0.00    +0.000 N 
ATOM     20  H   UNL     1       2.721   6.961  19.827  0.00  0.00    +0.000 HD
BRANCH  19  21
ATOM     21  C   UNL     1       3.274   6.078  17.952  0.00  0.00    +0.000 C 
BRANCH  21  22
ATOM     22  C   UNL     1       2.652   4.714  18.219  0.00  0.00    +0.000 A 
ATOM     23  C   UNL     1       1.743   4.487  19.267  0.00  0.00    +0.000 A 
ATOM     24  C   UNL     1       1.200   3.217  19.489  0.00  0.00    +0.000 A 
ATOM     25  C   UNL     1       1.550   2.149  18.666  0.00  0.00    +0.000 A 
ATOM     26  C   UNL     1       2.434   2.354  17.612  0.00  0.00    +0.000 A 
ATOM     27  C   UNL     1       2.966   3.624  17.393  0.00  0.00    +0.000 A 
ATOM     28  F   UNL     1       3.806   3.786  16.360  0.00  0.00    +0.000 F 
ENDBRANCH  21  22
BRANCH  21  29
ATOM     29  C   UNL     1       4.811   6.080  17.990  0.00  0.00    +0.000 C 
BRANCH  29  30
ATOM     30  C   UNL     1       5.423   6.765  16.794  0.00  0.00    +0.000 C 
ATOM     31  O   UNL     1       5.006   6.686  15.648  0.00  0.00    +0.000 OA
BRANCH  30  32
ATOM     32  O   UNL     1       6.556   7.443  17.095  0.00  0.00    +0.000 OA
ATOM     33  H   UNL     1       6.488   8.411  16.984  0.00  0.00    +0.000 HD
ENDBRANCH  30  32
ENDBRANCH  29  30
ENDBRANCH  21  29
ENDBRANCH  19  21
ENDBRANCH   4  17
BRANCH   1  35
ATOM     34  C   UNL     1      -1.181  11.115  22.967  0.00  0.00    +0.000 C 
ATOM     35  O   UNL     1      -0.137  11.684  22.183  0.00  0.00    +0.000 OA
ENDBRANCH   1  35
TORSDOF 9
ENDMDL
MODEL 9
REMARK VINA RESULT:      -7.9      1.154      1.642
REMARK  Name = 
REMARK  10 active torsions:
REMARK  status: ('A' for Active; 'I' for Inactive)
REMARK    1  A    between atoms: C_1  and  O_2
REMARK    2  A    between atoms: O_2  and  C_3
REMARK    3  A    between atoms: C_6  and  C_7
REMARK    4  A    between atoms: N_9  and  C_10
REMARK    5  A    between atoms: C_10  and  C_11
REMARK    6  A    between atoms: C_10  and  C_15
REMARK    7  A    between atoms: C_11  and  C_12
REMARK    8  A    between atoms: C_12  and  O_14
REMARK    9  A    between atoms: C_23  and  C_24
REMARK   10  A    between atoms: C_28  and  C_29
REMARK                            x       y       z     vdW  Elec       q    Type
REMARK                         _______ _______ _______ _____ _____    ______ ____
ROOT
ATOM      1  C   UNL     1       3.262   5.047  19.759  0.00  0.00    +0.000 A 
ATOM      2  C   UNL     1       2.089   5.523  20.352  0.00  0.00    +0.000 A 
ATOM      3  C   UNL     1       1.571   6.755  19.971  0.00  0.00    +0.000 A 
ATOM      4  C   UNL     1       2.256   7.491  19.019  0.00  0.00    +0.000 A 
ATOM      5  N   UNL     1       3.395   7.062  18.411  0.00  0.00    +0.000 NA
ATOM      6  C   UNL     1       3.891   5.840  18.774  0.00  0.00    +0.000 A 
ENDROOT
BRANCH   6   7
ATOM      7  C   UNL     1       5.110   5.432  18.021  0.00  0.00    +0.000 A 
ATOM      8  C   UNL     1       6.360   5.344  18.664  0.00  0.00    +0.000 A 
ATOM      9  C   UNL     1       7.519   4.976  17.971  0.00  0.00    +0.000 A 
ATOM     10  C   UNL     1       7.461   4.680  16.612  0.00  0.00    +0.000 A 
ATOM     11  C   UNL     1       6.244   4.765  15.930  0.00  0.00    +0.000 A 
ATOM     12  C   UNL     1       5.091   5.152  16.641  0.00  0.00    +0.000 A 
BRANCH  11  13
ATOM     13  C   UNL     1       6.139   4.452  14.458  0.00  0.00    +0.000 C 
ATOM     14  F   UNL     1       4.919   4.731  13.921  0.00  0.00    +0.000 F 
ATOM     15  F   UNL     1       7.042   5.147  13.711  0.00  0.00    +0.000 F 
ATOM     16  F   UNL     1       6.372   3.136  14.189  0.00  0.00    +0.000 F 
ENDBRANCH  11  13
ENDBRANCH   6   7
BRANCH   4  17
ATOM     17  C   UNL     1       1.739   8.843  18.625  0.00  0.00    +0.000 C 
ATOM     18  O   UNL     1       2.141   9.401  17.607  0.00  0.00    +0.000 OA
ATOM     19  N   UNL     1       0.799   9.382  19.472  0.00  0.00    +0.000 N 
ATOM     20  H   UNL     1       0.526   8.822  20.281  0.00  0.00    +0.000 HD
BRANCH  19  21
ATOM     21  C   UNL     1       0.240  10.723  19.327  0.00  0.00    +0.000 C 
BRANCH  21  22
ATOM     22  C   UNL     1      -1.086  10.736  18.577  0.00  0.00    +0.000 A 
ATOM     23  C   UNL     1      -1.340   9.906  17.472  0.00  0.00    +0.000 A 
ATOM     24  C   UNL     1      -2.566   9.953  16.801  0.00  0.00    +0.000 A 
ATOM     25  C   UNL     1      -3.566  10.826  17.223  0.00  0.00    +0.000 A 
ATOM     26  C   UNL     1      -3.343  11.644  18.326  0.00  0.00    +0.000 A 
ATOM     27  C   UNL     1      -2.120  11.587  18.993  0.00  0.00    +0.000 A 
ATOM     28  F   UNL     1      -1.947  12.382  20.060  0.00  0.00    +0.000 F 
ENDBRANCH  21  22
BRANCH  21  29
ATOM     29  C   UNL     1       1.293  11.680  18.746  0.00  0.00    +0.000 C 
BRANCH  29  30
ATOM     30  C   UNL     1       1.909  12.575  19.793  0.00  0.00    +0.000 C 
ATOM     31  O   UNL     1       2.677  13.497  19.565  0.00  0.00    +0.000 OA
BRANCH  30  32
ATOM     32  O   UNL     1       1.583  12.212  21.056  0.00  0.00    +0.000 OA
ATOM     33  H   UNL     1       1.958  12.789  21.750  0.00  0.00    +0.000 HD
ENDBRANCH  30  32
ENDBRANCH  29  30
ENDBRANCH  21  29
ENDBRANCH  19  21
ENDBRANCH   4  17
BRANCH   1  35
ATOM     34  C   UNL     1       3.272   2.670  19.712  0.00  0.00    +0.000 C 
ATOM     35  O   UNL     1       3.865   3.884  20.165  0.00  0.00    +0.000 OA
ENDBRANCH   1  35
TORSDOF 9
ENDMDL
