MODEL 1
REMARK VINA RESULT:      -7.1      0.000      0.000
REMARK  Name = 
REMARK  3 active torsions:
REMARK  status: ('A' for Active; 'I' for Inactive)
REMARK    1  A    between atoms: N_2  and  C_4
REMARK    2  A    between atoms: C_11  and  O_12
REMARK    3  A    between atoms: C_13  and  O_14
REMARK                            x       y       z     vdW  Elec       q    Type
REMARK                         _______ _______ _______ _____ _____    ______ ____
ROOT
ATOM      1  C   UNL     1       3.790   3.735  18.899  0.00  0.00    +0.000 A 
ATOM      2  C   UNL     1       2.515   4.265  19.105  0.00  0.00    +0.000 A 
ATOM      3 CL   UNL     1       1.220   3.393  19.838  0.00  0.00    +0.000 Cl
ATOM      4  C   UNL     1       2.269   5.574  18.709  0.00  0.00    +0.000 A 
ATOM      5  C   UNL     1       3.297   6.327  18.139  0.00  0.00    +0.000 A 
ATOM      6  C   UNL     1       4.564   5.795  17.933  0.00  0.00    +0.000 A 
ATOM      7  N   UNL     1       5.500   6.591  17.379  0.00  0.00    +0.000 NA
ATOM      8  C   UNL     1       6.696   6.019  17.182  0.00  0.00    +0.000 A 
ATOM      9  C   UNL     1       6.975   4.706  17.506  0.00  0.00    +0.000 A 
ATOM     10  N   UNL     1       6.056   3.907  18.073  0.00  0.00    +0.000 NA
ATOM     11  C   UNL     1       4.833   4.447  18.304  0.00  0.00    +0.000 A 
ENDROOT
BRANCH   1  13
ATOM     12  O   UNL     1       4.720   2.291  20.401  0.00  0.00    +0.000 OA
ATOM     13  N   UNL     1       4.073   2.402  19.351  0.00  0.00    +0.000 N 
ATOM     14  O   UNL     1       3.700   1.472  18.623  0.00  0.00    +0.000 OA
ENDBRANCH   1  13
BRANCH   8  15
ATOM     15  O   UNL     1       7.637   6.831  16.632  0.00  0.00    +0.000 OA
ATOM     16  H   UNL     1       8.299   6.849  17.348  0.00  0.00    +0.000 HD
ENDBRANCH   8  15
BRANCH   9  17
ATOM     17  O   UNL     1       8.196   4.150  17.260  0.00  0.00    +0.000 OA
ATOM     18  H   UNL     1       8.462   4.486  16.385  0.00  0.00    +0.000 HD
ENDBRANCH   9  17
TORSDOF 3
ENDMDL
MODEL 2
REMARK VINA RESULT:      -6.7      1.475      1.692
REMARK  Name = 
REMARK  3 active torsions:
REMARK  status: ('A' for Active; 'I' for Inactive)
REMARK    1  A    between atoms: N_2  and  C_4
REMARK    2  A    between atoms: C_11  and  O_12
REMARK    3  A    between atoms: C_13  and  O_14
REMARK                            x       y       z     vdW  Elec       q    Type
REMARK                         _______ _______ _______ _____ _____    ______ ____
ROOT
ATOM      1  C   UNL     1       3.575   3.598  19.367  0.00  0.00    +0.000 A 
ATOM      2  C   UNL     1       2.698   4.117  20.322  0.00  0.00    +0.000 A 
ATOM      3 CL   UNL     1       2.065   3.203  21.641  0.00  0.00    +0.000 Cl
ATOM      4  C   UNL     1       2.316   5.449  20.217  0.00  0.00    +0.000 A 
ATOM      5  C   UNL     1       2.828   6.234  19.183  0.00  0.00    +0.000 A 
ATOM      6  C   UNL     1       3.699   5.714  18.233  0.00  0.00    +0.000 A 
ATOM      7  N   UNL     1       4.148   6.541  17.269  0.00  0.00    +0.000 NA
ATOM      8  C   UNL     1       4.965   5.980  16.366  0.00  0.00    +0.000 A 
ATOM      9  C   UNL     1       5.330   4.649  16.393  0.00  0.00    +0.000 A 
ATOM     10  N   UNL     1       4.902   3.818  17.357  0.00  0.00    +0.000 NA
ATOM     11  C   UNL     1       4.082   4.344  18.302  0.00  0.00    +0.000 A 
ENDROOT
BRANCH   1  13
ATOM     12  O   UNL     1       3.401   1.384  18.844  0.00  0.00    +0.000 OA
ATOM     13  N   UNL     1       4.019   2.239  19.493  0.00  0.00    +0.000 N 
ATOM     14  O   UNL     1       4.946   2.024  20.286  0.00  0.00    +0.000 OA
ENDBRANCH   1  13
BRANCH   8  15
ATOM     15  O   UNL     1       5.422   6.823  15.403  0.00  0.00    +0.000 OA
ATOM     16  H   UNL     1       4.612   6.947  14.874  0.00  0.00    +0.000 HD
ENDBRANCH   8  15
BRANCH   9  17
ATOM     17  O   UNL     1       6.139   4.107  15.438  0.00  0.00    +0.000 OA
ATOM     18  H   UNL     1       6.668   3.431  15.901  0.00  0.00    +0.000 HD
ENDBRANCH   9  17
TORSDOF 3
ENDMDL
MODEL 3
REMARK VINA RESULT:      -6.7      2.253      2.637
REMARK  Name = 
REMARK  3 active torsions:
REMARK  status: ('A' for Active; 'I' for Inactive)
REMARK    1  A    between atoms: N_2  and  C_4
REMARK    2  A    between atoms: C_11  and  O_12
REMARK    3  A    between atoms: C_13  and  O_14
REMARK                            x       y       z     vdW  Elec       q    Type
REMARK                         _______ _______ _______ _____ _____    ______ ____
ROOT
ATOM      1  C   UNL     1       4.294   3.910  17.734  0.00  0.00    +0.000 A 
ATOM      2  C   UNL     1       4.248   4.543  18.977  0.00  0.00    +0.000 A 
ATOM      3 CL   UNL     1       3.115   4.144  20.215  0.00  0.00    +0.000 Cl
ATOM      4  C   UNL     1       5.172   5.545  19.246  0.00  0.00    +0.000 A 
ATOM      5  C   UNL     1       6.127   5.879  18.284  0.00  0.00    +0.000 A 
ATOM      6  C   UNL     1       6.168   5.249  17.047  0.00  0.00    +0.000 A 
ATOM      7  N   UNL     1       7.124   5.629  16.176  0.00  0.00    +0.000 NA
ATOM      8  C   UNL     1       7.102   5.006  14.990  0.00  0.00    +0.000 A 
ATOM      9  C   UNL     1       6.171   4.043  14.653  0.00  0.00    +0.000 A 
ATOM     10  N   UNL     1       5.223   3.643  15.517  0.00  0.00    +0.000 NA
ATOM     11  C   UNL     1       5.214   4.238  16.737  0.00  0.00    +0.000 A 
ENDROOT
BRANCH   1  13
ATOM     12  O   UNL     1       2.301   3.138  16.936  0.00  0.00    +0.000 OA
ATOM     13  N   UNL     1       3.380   2.836  17.462  0.00  0.00    +0.000 N 
ATOM     14  O   UNL     1       3.721   1.704  17.831  0.00  0.00    +0.000 OA
ENDBRANCH   1  13
BRANCH   8  15
ATOM     15  O   UNL     1       8.075   5.388  14.121  0.00  0.00    +0.000 OA
ATOM     16  H   UNL     1       8.436   6.165  14.587  0.00  0.00    +0.000 HD
ENDBRANCH   8  15
BRANCH   9  17
ATOM     17  O   UNL     1       6.161   3.453  13.424  0.00  0.00    +0.000 OA
ATOM     18  H   UNL     1       5.235   3.190  13.270  0.00  0.00    +0.000 HD
ENDBRANCH   9  17
TORSDOF 3
ENDMDL
MODEL 4
REMARK VINA RESULT:      -6.7      2.547      4.579
REMARK  Name = 
REMARK  3 active torsions:
REMARK  status: ('A' for Active; 'I' for Inactive)
REMARK    1  A    between atoms: N_2  and  C_4
REMARK    2  A    between atoms: C_11  and  O_12
REMARK    3  A    between atoms: C_13  and  O_14
REMARK                            x       y       z     vdW  Elec       q    Type
REMARK                         _______ _______ _______ _____ _____    ______ ____
ROOT
ATOM      1  C   UNL     1       6.420   5.408  18.247  0.00  0.00    +0.000 A 
ATOM      2  C   UNL     1       6.279   6.601  17.536  0.00  0.00    +0.000 A 
ATOM      3 CL   UNL     1       7.607   7.582  17.037  0.00  0.00    +0.000 Cl
ATOM      4  C   UNL     1       5.001   7.024  17.196  0.00  0.00    +0.000 A 
ATOM      5  C   UNL     1       3.899   6.245  17.552  0.00  0.00    +0.000 A 
ATOM      6  C   UNL     1       4.042   5.059  18.262  0.00  0.00    +0.000 A 
ATOM      7  N   UNL     1       2.926   4.366  18.565  0.00  0.00    +0.000 NA
ATOM      8  C   UNL     1       3.121   3.244  19.271  0.00  0.00    +0.000 A 
ATOM      9  C   UNL     1       4.366   2.809  19.682  0.00  0.00    +0.000 A 
ATOM     10  N   UNL     1       5.487   3.482  19.374  0.00  0.00    +0.000 NA
ATOM     11  C   UNL     1       5.340   4.619  18.647  0.00  0.00    +0.000 A 
ENDROOT
BRANCH   1  13
ATOM     12  O   UNL     1       8.269   4.170  17.738  0.00  0.00    +0.000 OA
ATOM     13  N   UNL     1       7.738   4.931  18.559  0.00  0.00    +0.000 N 
ATOM     14  O   UNL     1       8.213   5.273  19.650  0.00  0.00    +0.000 OA
ENDBRANCH   1  13
BRANCH   8  15
ATOM     15  O   UNL     1       1.993   2.545  19.563  0.00  0.00    +0.000 OA
ATOM     16  H   UNL     1       1.362   2.956  18.943  0.00  0.00    +0.000 HD
ENDBRANCH   8  15
BRANCH   9  17
ATOM     17  O   UNL     1       4.521   1.677  20.427  0.00  0.00    +0.000 OA
ATOM     18  H   UNL     1       3.720   1.620  20.979  0.00  0.00    +0.000 HD
ENDBRANCH   9  17
TORSDOF 3
ENDMDL
MODEL 5
REMARK VINA RESULT:      -6.6      2.364      4.457
REMARK  Name = 
REMARK  3 active torsions:
REMARK  status: ('A' for Active; 'I' for Inactive)
REMARK    1  A    between atoms: N_2  and  C_4
REMARK    2  A    between atoms: C_11  and  O_12
REMARK    3  A    between atoms: C_13  and  O_14
REMARK                            x       y       z     vdW  Elec       q    Type
REMARK                         _______ _______ _______ _____ _____    ______ ____
ROOT
ATOM      1  C   UNL     1       5.420   5.055  17.621  0.00  0.00    +0.000 A 
ATOM      2  C   UNL     1       5.204   6.431  17.526  0.00  0.00    +0.000 A 
ATOM      3 CL   UNL     1       6.453   7.578  17.208  0.00  0.00    +0.000 Cl
ATOM      4  C   UNL     1       3.911   6.911  17.683  0.00  0.00    +0.000 A 
ATOM      5  C   UNL     1       2.864   6.016  17.912  0.00  0.00    +0.000 A 
ATOM      6  C   UNL     1       3.083   4.647  18.008  0.00  0.00    +0.000 A 
ATOM      7  N   UNL     1       2.018   3.852  18.227  0.00  0.00    +0.000 NA
ATOM      8  C   UNL     1       2.290   2.544  18.336  0.00  0.00    +0.000 A 
ATOM      9  C   UNL     1       3.565   2.021  18.244  0.00  0.00    +0.000 A 
ATOM     10  N   UNL     1       4.633   2.801  18.010  0.00  0.00    +0.000 NA
ATOM     11  C   UNL     1       4.405   4.133  17.880  0.00  0.00    +0.000 A 
ENDROOT
BRANCH   1  13
ATOM     12  O   UNL     1       7.478   4.450  18.401  0.00  0.00    +0.000 OA
ATOM     13  N   UNL     1       6.743   4.539  17.408  0.00  0.00    +0.000 N 
ATOM     14  O   UNL     1       7.061   4.280  16.240  0.00  0.00    +0.000 OA
ENDBRANCH   1  13
BRANCH   8  15
ATOM     15  O   UNL     1       1.209   1.748  18.547  0.00  0.00    +0.000 OA
ATOM     16  H   UNL     1       0.873   1.655  17.636  0.00  0.00    +0.000 HD
ENDBRANCH   8  15
BRANCH   9  17
ATOM     17  O   UNL     1       3.806   0.687  18.391  0.00  0.00    +0.000 OA
ATOM     18  H   UNL     1       3.783   0.319  17.489  0.00  0.00    +0.000 HD
ENDBRANCH   9  17
TORSDOF 3
ENDMDL
MODEL 6
REMARK VINA RESULT:      -6.6      1.829      1.981
REMARK  Name = 
REMARK  3 active torsions:
REMARK  status: ('A' for Active; 'I' for Inactive)
REMARK    1  A    between atoms: N_2  and  C_4
REMARK    2  A    between atoms: C_11  and  O_12
REMARK    3  A    between atoms: C_13  and  O_14
REMARK                            x       y       z     vdW  Elec       q    Type
REMARK                         _______ _______ _______ _____ _____    ______ ____
ROOT
ATOM      1  C   UNL     1       4.312   3.434  18.822  0.00  0.00    +0.000 A 
ATOM      2  C   UNL     1       3.409   3.217  17.780  0.00  0.00    +0.000 A 
ATOM      3 CL   UNL     1       2.127   2.065  17.847  0.00  0.00    +0.000 Cl
ATOM      4  C   UNL     1       3.535   3.976  16.624  0.00  0.00    +0.000 A 
ATOM      5  C   UNL     1       4.540   4.941  16.538  0.00  0.00    +0.000 A 
ATOM      6  C   UNL     1       5.439   5.153  17.576  0.00  0.00    +0.000 A 
ATOM      7  N   UNL     1       6.377   6.107  17.413  0.00  0.00    +0.000 NA
ATOM      8  C   UNL     1       7.232   6.252  18.435  0.00  0.00    +0.000 A 
ATOM      9  C   UNL     1       7.184   5.485  19.582  0.00  0.00    +0.000 A 
ATOM     10  N   UNL     1       6.245   4.542  19.764  0.00  0.00    +0.000 NA
ATOM     11  C   UNL     1       5.348   4.368  18.760  0.00  0.00    +0.000 A 
ENDROOT
BRANCH   1  13
ATOM     12  O   UNL     1       4.928   1.738  20.218  0.00  0.00    +0.000 OA
ATOM     13  N   UNL     1       4.161   2.694  20.043  0.00  0.00    +0.000 N 
ATOM     14  O   UNL     1       3.238   3.037  20.794  0.00  0.00    +0.000 OA
ENDBRANCH   1  13
BRANCH   8  15
ATOM     15  O   UNL     1       8.169   7.222  18.267  0.00  0.00    +0.000 OA
ATOM     16  H   UNL     1       8.274   7.205  17.298  0.00  0.00    +0.000 HD
ENDBRANCH   8  15
BRANCH   9  17
ATOM     17  O   UNL     1       8.092   5.640  20.588  0.00  0.00    +0.000 OA
ATOM     18  H   UNL     1       8.298   4.737  20.892  0.00  0.00    +0.000 HD
ENDBRANCH   9  17
TORSDOF 3
ENDMDL
MODEL 7
REMARK VINA RESULT:      -6.5      1.872      2.150
REMARK  Name = 
REMARK  3 active torsions:
REMARK  status: ('A' for Active; 'I' for Inactive)
REMARK    1  A    between atoms: N_2  and  C_4
REMARK    2  A    between atoms: C_11  and  O_12
REMARK    3  A    between atoms: C_13  and  O_14
REMARK                            x       y       z     vdW  Elec       q    Type
REMARK                         _______ _______ _______ _____ _____    ______ ____
ROOT
ATOM      1  C   UNL     1       3.245   3.625  19.417  0.00  0.00    +0.000 A 
ATOM      2  C   UNL     1       2.266   3.152  18.542  0.00  0.00    +0.000 A 
ATOM      3 CL   UNL     1       0.774   2.457  19.057  0.00  0.00    +0.000 Cl
ATOM      4  C   UNL     1       2.494   3.253  17.175  0.00  0.00    +0.000 A 
ATOM      5  C   UNL     1       3.675   3.836  16.714  0.00  0.00    +0.000 A 
ATOM      6  C   UNL     1       4.648   4.304  17.588  0.00  0.00    +0.000 A 
ATOM      7  N   UNL     1       5.758   4.857  17.060  0.00  0.00    +0.000 NA
ATOM      8  C   UNL     1       6.673   5.269  17.948  0.00  0.00    +0.000 A 
ATOM      9  C   UNL     1       6.520   5.140  19.314  0.00  0.00    +0.000 A 
ATOM     10  N   UNL     1       5.412   4.606  19.855  0.00  0.00    +0.000 NA
ATOM     11  C   UNL     1       4.451   4.186  18.993  0.00  0.00    +0.000 A 
ENDROOT
BRANCH   1  13
ATOM     12  O   UNL     1       3.347   2.546  21.426  0.00  0.00    +0.000 OA
ATOM     13  N   UNL     1       3.000   3.576  20.832  0.00  0.00    +0.000 N 
ATOM     14  O   UNL     1       2.409   4.543  21.331  0.00  0.00    +0.000 OA
ENDBRANCH   1  13
BRANCH   8  15
ATOM     15  O   UNL     1       7.785   5.833  17.408  0.00  0.00    +0.000 OA
ATOM     16  H   UNL     1       7.386   6.379  16.705  0.00  0.00    +0.000 HD
ENDBRANCH   8  15
BRANCH   9  17
ATOM     17  O   UNL     1       7.488   5.543  20.186  0.00  0.00    +0.000 OA
ATOM     18  H   UNL     1       7.820   6.388  19.831  0.00  0.00    +0.000 HD
ENDBRANCH   9  17
TORSDOF 3
ENDMDL
MODEL 8
REMARK VINA RESULT:      -6.4      1.486      1.664
REMARK  Name = 
REMARK  3 active torsions:
REMARK  status: ('A' for Active; 'I' for Inactive)
REMARK    1  A    between atoms: N_2  and  C_4
REMARK    2  A    between atoms: C_11  and  O_12
REMARK    3  A    between atoms: C_13  and  O_14
REMARK                            x       y       z     vdW  Elec       q    Type
REMARK                         _______ _______ _______ _____ _____    ______ ____
ROOT
ATOM      1  C   UNL     1       3.151   4.051  18.825  0.00  0.00    +0.000 A 
ATOM      2  C   UNL     1       2.345   4.945  19.533  0.00  0.00    +0.000 A 
ATOM      3 CL   UNL     1       1.300   4.480  20.823  0.00  0.00    +0.000 Cl
ATOM      4  C   UNL     1       2.391   6.291  19.192  0.00  0.00    +0.000 A 
ATOM      5  C   UNL     1       3.246   6.717  18.174  0.00  0.00    +0.000 A 
ATOM      6  C   UNL     1       4.044   5.824  17.470  0.00  0.00    +0.000 A 
ATOM      7  N   UNL     1       4.843   6.318  16.504  0.00  0.00    +0.000 NA
ATOM      8  C   UNL     1       5.573   5.410  15.842  0.00  0.00    +0.000 A 
ATOM      9  C   UNL     1       5.522   4.055  16.104  0.00  0.00    +0.000 A 
ATOM     10  N   UNL     1       4.742   3.551  17.074  0.00  0.00    +0.000 NA
ATOM     11  C   UNL     1       3.994   4.435  17.781  0.00  0.00    +0.000 A 
ENDROOT
BRANCH   1  13
ATOM     12  O   UNL     1       2.300   1.939  18.675  0.00  0.00    +0.000 OA
ATOM     13  N   UNL     1       3.154   2.666  19.202  0.00  0.00    +0.000 N 
ATOM     14  O   UNL     1       3.971   2.322  20.067  0.00  0.00    +0.000 OA
ENDBRANCH   1  13
BRANCH   8  15
ATOM     15  O   UNL     1       6.383   5.917  14.876  0.00  0.00    +0.000 OA
ATOM     16  H   UNL     1       7.062   5.219  14.826  0.00  0.00    +0.000 HD
ENDBRANCH   8  15
BRANCH   9  17
ATOM     17  O   UNL     1       6.257   3.157  15.387  0.00  0.00    +0.000 OA
ATOM     18  H   UNL     1       5.858   3.148  14.497  0.00  0.00    +0.000 HD
ENDBRANCH   9  17
TORSDOF 3
ENDMDL
MODEL 9
REMARK VINA RESULT:      -6.4      1.662      1.775
REMARK  Name = 
REMARK  3 active torsions:
REMARK  status: ('A' for Active; 'I' for Inactive)
REMARK    1  A    between atoms: N_2  and  C_4
REMARK    2  A    between atoms: C_11  and  O_12
REMARK    3  A    between atoms: C_13  and  O_14
REMARK                            x       y       z     vdW  Elec       q    Type
REMARK                         _______ _______ _______ _____ _____    ______ ____
ROOT
ATOM      1  C   UNL     1       3.919   3.211  19.328  0.00  0.00    +0.000 A 
ATOM      2  C   UNL     1       2.826   2.937  18.505  0.00  0.00    +0.000 A 
ATOM      3 CL   UNL     1       1.626   1.752  18.867  0.00  0.00    +0.000 Cl
ATOM      4  C   UNL     1       2.682   3.664  17.330  0.00  0.00    +0.000 A 
ATOM      5  C   UNL     1       3.614   4.654  17.013  0.00  0.00    +0.000 A 
ATOM      6  C   UNL     1       4.702   4.923  17.833  0.00  0.00    +0.000 A 
ATOM      7  N   UNL     1       5.553   5.897  17.455  0.00  0.00    +0.000 NA
ATOM      8  C   UNL     1       6.597   6.097  18.271  0.00  0.00    +0.000 A 
ATOM      9  C   UNL     1       6.816   5.364  19.421  0.00  0.00    +0.000 A 
ATOM     10  N   UNL     1       5.968   4.401  19.818  0.00  0.00    +0.000 NA
ATOM     11  C   UNL     1       4.887   4.172  19.029  0.00  0.00    +0.000 A 
ENDROOT
BRANCH   1  13
ATOM     12  O   UNL     1       3.236   2.779  21.462  0.00  0.00    +0.000 OA
ATOM     13  N   UNL     1       4.052   2.505  20.572  0.00  0.00    +0.000 N 
ATOM     14  O   UNL     1       5.008   1.724  20.672  0.00  0.00    +0.000 OA
ENDBRANCH   1  13
BRANCH   8  15
ATOM     15  O   UNL     1       7.445   7.087  17.888  0.00  0.00    +0.000 OA
ATOM     16  H   UNL     1       6.808   7.760  17.581  0.00  0.00    +0.000 HD
ENDBRANCH   8  15
BRANCH   9  17
ATOM     17  O   UNL     1       7.908   5.575  20.210  0.00  0.00    +0.000 OA
ATOM     18  H   UNL     1       8.630   5.072  19.792  0.00  0.00    +0.000 HD
ENDBRANCH   9  17
TORSDOF 3
ENDMDL
