MODEL 1
REMARK VINA RESULT:      -6.0      0.000      0.000
REMARK  Name = 
REMARK  7 active torsions:
REMARK  status: ('A' for Active; 'I' for Inactive)
REMARK    1  A    between atoms: C_2  and  C_3
REMARK    2  A    between atoms: C_3  and  C_4
REMARK    3  A    between atoms: C_12  and  C_13
REMARK    4  A    between atoms: C_12  and  C_14
REMARK    5  A    between atoms: C_15  and  C_16
REMARK    6  A    between atoms: C_16  and  O_18
REMARK    7  A    between atoms: C_22  and  C_23
REMARK                            x       y       z     vdW  Elec       q    Type
REMARK                         _______ _______ _______ _____ _____    ______ ____
ROOT
ATOM      1  C   UNL     1       0.110  10.718  18.950  0.00  0.00    +0.000 C 
ATOM      2  C   UNL     1       1.127   9.780  18.275  0.00  0.00    +0.000 C 
ATOM      3  C   UNL     1       0.491  12.224  18.785  0.00  0.00    +0.000 C 
ATOM      4  C   UNL     1      -0.293  13.182  19.690  0.00  0.00    +0.000 C 
ATOM      5  C   UNL     1      -0.976  12.778  20.789  0.00  0.00    +0.000 C 
ATOM      6  C   UNL     1      -0.888  11.301  21.178  0.00  0.00    +0.000 C 
ATOM      7  C   UNL     1      -0.738  11.135  22.670  0.00  0.00    +0.000 C 
ATOM      8  C   UNL     1      -2.085  11.473  23.257  0.00  0.00    +0.000 C 
ATOM      9  C   UNL     1      -2.491  12.921  22.931  0.00  0.00    +0.000 C 
ATOM     10  C   UNL     1      -3.912  13.256  23.497  0.00  0.00    +0.000 C 
ATOM     11  C   UNL     1      -4.172  12.691  24.917  0.00  0.00    +0.000 C 
ATOM     12  C   UNL     1      -3.936  14.801  23.644  0.00  0.00    +0.000 C 
ATOM     13  C   UNL     1      -3.513  15.559  22.381  0.00  0.00    +0.000 C 
ATOM     14  C   UNL     1      -2.145  15.095  21.794  0.00  0.00    +0.000 C 
ATOM     15  C   UNL     1      -2.176  13.551  21.462  0.00  0.00    +0.000 C 
ATOM     16  C   UNL     1      -3.197  13.502  20.263  0.00  0.00    +0.000 C 
ATOM     17  C   UNL     1       0.167  10.463  20.458  0.00  0.00    +0.000 C 
ENDROOT
BRANCH   1  19
ATOM     18  C   UNL     1      -1.935  10.908  17.388  0.00  0.00    +0.000 C 
ATOM     19  C   UNL     1      -1.265  10.323  18.388  0.00  0.00    +0.000 C 
ENDBRANCH   1  19
BRANCH  10  20
ATOM     20  C   UNL     1      -4.945  12.609  22.577  0.00  0.00    +0.000 C 
ATOM     21  C   UNL     1      -6.244  12.882  22.495  0.00  0.00    +0.000 C 
BRANCH  21  22
ATOM     22  C   UNL     1      -7.170  12.313  21.497  0.00  0.00    +0.000 C 
ATOM     23  O   UNL     1      -7.917  13.040  20.846  0.00  0.00    +0.000 OA
BRANCH  22  24
ATOM     24  O   UNL     1      -7.180  10.976  21.366  0.00  0.00    +0.000 OA
ATOM     25  H   UNL     1      -6.401  10.609  20.918  0.00  0.00    +0.000 HD
ENDBRANCH  22  24
ENDBRANCH  21  22
ENDBRANCH  10  20
TORSDOF 4
ENDMDL
MODEL 2
REMARK VINA RESULT:      -5.7      1.019      1.076
REMARK  Name = 
REMARK  7 active torsions:
REMARK  status: ('A' for Active; 'I' for Inactive)
REMARK    1  A    between atoms: C_2  and  C_3
REMARK    2  A    between atoms: C_3  and  C_4
REMARK    3  A    between atoms: C_12  and  C_13
REMARK    4  A    between atoms: C_12  and  C_14
REMARK    5  A    between atoms: C_15  and  C_16
REMARK    6  A    between atoms: C_16  and  O_18
REMARK    7  A    between atoms: C_22  and  C_23
REMARK                            x       y       z     vdW  Elec       q    Type
REMARK                         _______ _______ _______ _____ _____    ______ ____
ROOT
ATOM      1  C   UNL     1       0.549  10.544  18.976  0.00  0.00    +0.000 C 
ATOM      2  C   UNL     1       1.290   9.423  18.226  0.00  0.00    +0.000 C 
ATOM      3  C   UNL     1       1.411  11.841  19.105  0.00  0.00    +0.000 C 
ATOM      4  C   UNL     1       0.865  12.870  20.102  0.00  0.00    +0.000 C 
ATOM      5  C   UNL     1      -0.047  12.571  21.059  0.00  0.00    +0.000 C 
ATOM      6  C   UNL     1      -0.486  11.112  21.190  0.00  0.00    +0.000 C 
ATOM      7  C   UNL     1      -0.590  10.698  22.638  0.00  0.00    +0.000 C 
ATOM      8  C   UNL     1      -1.822  11.385  23.172  0.00  0.00    +0.000 C 
ATOM      9  C   UNL     1      -1.698  12.915  23.074  0.00  0.00    +0.000 C 
ATOM     10  C   UNL     1      -2.997  13.626  23.582  0.00  0.00    +0.000 C 
ATOM     11  C   UNL     1      -3.604  12.989  24.859  0.00  0.00    +0.000 C 
ATOM     12  C   UNL     1      -2.543  15.052  23.994  0.00  0.00    +0.000 C 
ATOM     13  C   UNL     1      -1.742  15.792  22.918  0.00  0.00    +0.000 C 
ATOM     14  C   UNL     1      -0.530  14.981  22.363  0.00  0.00    +0.000 C 
ATOM     15  C   UNL     1      -1.012  13.601  21.766  0.00  0.00    +0.000 C 
ATOM     16  C   UNL     1      -1.832  14.067  20.504  0.00  0.00    +0.000 C 
ATOM     17  C   UNL     1       0.328  10.077  20.416  0.00  0.00    +0.000 C 
ENDROOT
BRANCH   1  19
ATOM     18  C   UNL     1      -1.414   9.835  17.459  0.00  0.00    +0.000 C 
ATOM     19  C   UNL     1      -0.796  10.718  18.252  0.00  0.00    +0.000 C 
ENDBRANCH   1  19
BRANCH  10  20
ATOM     20  C   UNL     1      -4.055  13.501  22.489  0.00  0.00    +0.000 C 
ATOM     21  C   UNL     1      -5.152  12.749  22.502  0.00  0.00    +0.000 C 
BRANCH  21  22
ATOM     22  C   UNL     1      -6.205  12.766  21.468  0.00  0.00    +0.000 C 
ATOM     23  O   UNL     1      -6.671  13.829  21.063  0.00  0.00    +0.000 OA
BRANCH  22  24
ATOM     24  O   UNL     1      -6.647  11.576  21.027  0.00  0.00    +0.000 OA
ATOM     25  H   UNL     1      -5.961  11.012  20.634  0.00  0.00    +0.000 HD
ENDBRANCH  22  24
ENDBRANCH  21  22
ENDBRANCH  10  20
TORSDOF 4
ENDMDL
MODEL 3
REMARK VINA RESULT:      -5.7      3.423      6.024
REMARK  Name = 
REMARK  7 active torsions:
REMARK  status: ('A' for Active; 'I' for Inactive)
REMARK    1  A    between atoms: C_2  and  C_3
REMARK    2  A    between atoms: C_3  and  C_4
REMARK    3  A    between atoms: C_12  and  C_13
REMARK    4  A    between atoms: C_12  and  C_14
REMARK    5  A    between atoms: C_15  and  C_16
REMARK    6  A    between atoms: C_16  and  O_18
REMARK    7  A    between atoms: C_22  and  C_23
REMARK                            x       y       z     vdW  Elec       q    Type
REMARK                         _______ _______ _______ _____ _____    ______ ____
ROOT
ATOM      1  C   UNL     1       0.913  16.721  19.545  0.00  0.00    +0.000 C 
ATOM      2  C   UNL     1       1.431  18.150  19.303  0.00  0.00    +0.000 C 
ATOM      3  C   UNL     1       0.735  16.404  21.064  0.00  0.00    +0.000 C 
ATOM      4  C   UNL     1       0.531  14.918  21.384  0.00  0.00    +0.000 C 
ATOM      5  C   UNL     1       0.841  13.920  20.520  0.00  0.00    +0.000 C 
ATOM      6  C   UNL     1       1.498  14.306  19.195  0.00  0.00    +0.000 C 
ATOM      7  C   UNL     1       2.613  13.353  18.838  0.00  0.00    +0.000 C 
ATOM      8  C   UNL     1       1.937  12.070  18.423  0.00  0.00    +0.000 C 
ATOM      9  C   UNL     1       1.097  11.484  19.571  0.00  0.00    +0.000 C 
ATOM     10  C   UNL     1       0.355  10.179  19.124  0.00  0.00    +0.000 C 
ATOM     11  C   UNL     1       1.218   9.234  18.248  0.00  0.00    +0.000 C 
ATOM     12  C   UNL     1       0.076   9.402  20.439  0.00  0.00    +0.000 C 
ATOM     13  C   UNL     1      -0.612  10.235  21.527  0.00  0.00    +0.000 C 
ATOM     14  C   UNL     1       0.108  11.582  21.840  0.00  0.00    +0.000 C 
ATOM     15  C   UNL     1       0.227  12.466  20.537  0.00  0.00    +0.000 C 
ATOM     16  C   UNL     1      -1.279  12.837  20.263  0.00  0.00    +0.000 C 
ATOM     17  C   UNL     1       1.991  15.746  19.066  0.00  0.00    +0.000 C 
ENDROOT
BRANCH   1  19
ATOM     18  C   UNL     1      -1.202  17.554  18.326  0.00  0.00    +0.000 C 
ATOM     19  C   UNL     1      -0.357  16.583  18.691  0.00  0.00    +0.000 C 
ENDBRANCH   1  19
BRANCH  10  20
ATOM     20  C   UNL     1      -0.841  10.591  18.269  0.00  0.00    +0.000 C 
ATOM     21  C   UNL     1      -1.430   9.891  17.304  0.00  0.00    +0.000 C 
BRANCH  21  22
ATOM     22  C   UNL     1      -2.663  10.290  16.598  0.00  0.00    +0.000 C 
ATOM     23  O   UNL     1      -3.394  11.165  17.056  0.00  0.00    +0.000 OA
BRANCH  22  24
ATOM     24  O   UNL     1      -2.960   9.630  15.466  0.00  0.00    +0.000 OA
ATOM     25  H   UNL     1      -2.204   9.488  14.873  0.00  0.00    +0.000 HD
ENDBRANCH  22  24
ENDBRANCH  21  22
ENDBRANCH  10  20
TORSDOF 4
ENDMDL
MODEL 4
REMARK VINA RESULT:      -5.6      3.604      6.173
REMARK  Name = 
REMARK  7 active torsions:
REMARK  status: ('A' for Active; 'I' for Inactive)
REMARK    1  A    between atoms: C_2  and  C_3
REMARK    2  A    between atoms: C_3  and  C_4
REMARK    3  A    between atoms: C_12  and  C_13
REMARK    4  A    between atoms: C_12  and  C_14
REMARK    5  A    between atoms: C_15  and  C_16
REMARK    6  A    between atoms: C_16  and  O_18
REMARK    7  A    between atoms: C_22  and  C_23
REMARK                            x       y       z     vdW  Elec       q    Type
REMARK                         _______ _______ _______ _____ _____    ______ ____
ROOT
ATOM      1  C   UNL     1       2.941   5.251  18.577  0.00  0.00    +0.000 C 
ATOM      2  C   UNL     1       3.580   3.862  18.756  0.00  0.00    +0.000 C 
ATOM      3  C   UNL     1       3.915   6.270  17.903  0.00  0.00    +0.000 C 
ATOM      4  C   UNL     1       3.461   7.732  17.983  0.00  0.00    +0.000 C 
ATOM      5  C   UNL     1       2.524   8.174  18.857  0.00  0.00    +0.000 C 
ATOM      6  C   UNL     1       1.955   7.169  19.859  0.00  0.00    +0.000 C 
ATOM      7  C   UNL     1       1.811   7.783  21.230  0.00  0.00    +0.000 C 
ATOM      8  C   UNL     1       0.644   8.734  21.132  0.00  0.00    +0.000 C 
ATOM      9  C   UNL     1       0.905   9.836  20.092  0.00  0.00    +0.000 C 
ATOM     10  C   UNL     1      -0.327  10.793  19.954  0.00  0.00    +0.000 C 
ATOM     11  C   UNL     1      -0.991  11.161  21.306  0.00  0.00    +0.000 C 
ATOM     12  C   UNL     1       0.252  12.119  19.391  0.00  0.00    +0.000 C 
ATOM     13  C   UNL     1       1.119  11.945  18.139  0.00  0.00    +0.000 C 
ATOM     14  C   UNL     1       2.254  10.888  18.299  0.00  0.00    +0.000 C 
ATOM     15  C   UNL     1       1.653   9.480  18.689  0.00  0.00    +0.000 C 
ATOM     16  C   UNL     1       0.881   9.087  17.373  0.00  0.00    +0.000 C 
ATOM     17  C   UNL     1       2.675   5.827  19.970  0.00  0.00    +0.000 C 
ENDROOT
BRANCH   1  19
ATOM     18  C   UNL     1       1.053   3.837  17.530  0.00  0.00    +0.000 C 
ATOM     19  C   UNL     1       1.618   5.012  17.830  0.00  0.00    +0.000 C 
ENDBRANCH   1  19
BRANCH  10  20
ATOM     20  C   UNL     1      -1.389  10.070  19.130  0.00  0.00    +0.000 C 
ATOM     21  C   UNL     1      -2.178  10.585  18.191  0.00  0.00    +0.000 C 
BRANCH  21  22
ATOM     22  C   UNL     1      -3.100   9.808  17.338  0.00  0.00    +0.000 C 
ATOM     23  O   UNL     1      -4.029   9.173  17.833  0.00  0.00    +0.000 OA
BRANCH  22  24
ATOM     24  O   UNL     1      -2.851   9.801  16.018  0.00  0.00    +0.000 OA
ATOM     25  H   UNL     1      -3.629   9.632  15.463  0.00  0.00    +0.000 HD
ENDBRANCH  22  24
ENDBRANCH  21  22
ENDBRANCH  10  20
TORSDOF 4
ENDMDL
MODEL 5
REMARK VINA RESULT:      -5.6      2.802      6.425
REMARK  Name = 
REMARK  7 active torsions:
REMARK  status: ('A' for Active; 'I' for Inactive)
REMARK    1  A    between atoms: C_2  and  C_3
REMARK    2  A    between atoms: C_3  and  C_4
REMARK    3  A    between atoms: C_12  and  C_13
REMARK    4  A    between atoms: C_12  and  C_14
REMARK    5  A    between atoms: C_15  and  C_16
REMARK    6  A    between atoms: C_16  and  O_18
REMARK    7  A    between atoms: C_22  and  C_23
REMARK                            x       y       z     vdW  Elec       q    Type
REMARK                         _______ _______ _______ _____ _____    ______ ____
ROOT
ATOM      1  C   UNL     1      -5.434  13.756  23.001  0.00  0.00    +0.000 C 
ATOM      2  C   UNL     1      -6.835  13.985  23.597  0.00  0.00    +0.000 C 
ATOM      3  C   UNL     1      -4.653  15.093  22.791  0.00  0.00    +0.000 C 
ATOM      4  C   UNL     1      -3.399  14.967  21.918  0.00  0.00    +0.000 C 
ATOM      5  C   UNL     1      -3.167  13.916  21.094  0.00  0.00    +0.000 C 
ATOM      6  C   UNL     1      -4.255  12.848  20.980  0.00  0.00    +0.000 C 
ATOM      7  C   UNL     1      -4.439  12.403  19.550  0.00  0.00    +0.000 C 
ATOM      8  C   UNL     1      -3.227  11.567  19.223  0.00  0.00    +0.000 C 
ATOM      9  C   UNL     1      -1.931  12.386  19.352  0.00  0.00    +0.000 C 
ATOM     10  C   UNL     1      -0.669  11.505  19.062  0.00  0.00    +0.000 C 
ATOM     11  C   UNL     1      -0.842  10.532  17.867  0.00  0.00    +0.000 C 
ATOM     12  C   UNL     1       0.436  12.508  18.636  0.00  0.00    +0.000 C 
ATOM     13  C   UNL     1       0.634  13.676  19.609  0.00  0.00    +0.000 C 
ATOM     14  C   UNL     1      -0.682  14.439  19.955  0.00  0.00    +0.000 C 
ATOM     15  C   UNL     1      -1.752  13.453  20.570  0.00  0.00    +0.000 C 
ATOM     16  C   UNL     1      -1.091  13.086  21.952  0.00  0.00    +0.000 C 
ATOM     17  C   UNL     1      -5.614  13.184  21.592  0.00  0.00    +0.000 C 
ENDROOT
BRANCH   1  19
ATOM     18  C   UNL     1      -3.867  12.974  24.894  0.00  0.00    +0.000 C 
ATOM     19  C   UNL     1      -4.748  12.731  23.917  0.00  0.00    +0.000 C 
ENDBRANCH   1  19
BRANCH  10  20
ATOM     20  C   UNL     1      -0.412  10.638  20.292  0.00  0.00    +0.000 C 
ATOM     21  C   UNL     1       0.759  10.207  20.752  0.00  0.00    +0.000 C 
BRANCH  21  22
ATOM     22  C   UNL     1       0.956   9.477  22.020  0.00  0.00    +0.000 C 
ATOM     23  O   UNL     1       0.574   9.955  23.086  0.00  0.00    +0.000 OA
BRANCH  22  24
ATOM     24  O   UNL     1       1.600   8.300  21.953  0.00  0.00    +0.000 OA
ATOM     25  H   UNL     1       1.599   7.890  21.073  0.00  0.00    +0.000 HD
ENDBRANCH  22  24
ENDBRANCH  21  22
ENDBRANCH  10  20
TORSDOF 4
ENDMDL
MODEL 6
REMARK VINA RESULT:      -5.5      2.814      6.091
REMARK  Name = 
REMARK  7 active torsions:
REMARK  status: ('A' for Active; 'I' for Inactive)
REMARK    1  A    between atoms: C_2  and  C_3
REMARK    2  A    between atoms: C_3  and  C_4
REMARK    3  A    between atoms: C_12  and  C_13
REMARK    4  A    between atoms: C_12  and  C_14
REMARK    5  A    between atoms: C_15  and  C_16
REMARK    6  A    between atoms: C_16  and  O_18
REMARK    7  A    between atoms: C_22  and  C_23
REMARK                            x       y       z     vdW  Elec       q    Type
REMARK                         _______ _______ _______ _____ _____    ______ ____
ROOT
ATOM      1  C   UNL     1      -1.249  16.070  22.301  0.00  0.00    +0.000 C 
ATOM      2  C   UNL     1      -1.306  17.544  22.741  0.00  0.00    +0.000 C 
ATOM      3  C   UNL     1      -1.385  15.085  23.507  0.00  0.00    +0.000 C 
ATOM      4  C   UNL     1      -1.022  13.631  23.183  0.00  0.00    +0.000 C 
ATOM      5  C   UNL     1      -0.300  13.267  22.096  0.00  0.00    +0.000 C 
ATOM      6  C   UNL     1       0.240  14.379  21.196  0.00  0.00    +0.000 C 
ATOM      7  C   UNL     1       1.655  14.092  20.756  0.00  0.00    +0.000 C 
ATOM      8  C   UNL     1       1.551  12.975  19.748  0.00  0.00    +0.000 C 
ATOM      9  C   UNL     1       0.931  11.712  20.371  0.00  0.00    +0.000 C 
ATOM     10  C   UNL     1       0.777  10.570  19.311  0.00  0.00    +0.000 C 
ATOM     11  C   UNL     1       1.989  10.434  18.353  0.00  0.00    +0.000 C 
ATOM     12  C   UNL     1       0.737   9.256  20.135  0.00  0.00    +0.000 C 
ATOM     13  C   UNL     1      -0.283   9.261  21.279  0.00  0.00    +0.000 C 
ATOM     14  C   UNL     1      -0.157  10.490  22.231  0.00  0.00    +0.000 C 
ATOM     15  C   UNL     1      -0.307  11.839  21.422  0.00  0.00    +0.000 C 
ATOM     16  C   UNL     1      -1.820  11.785  20.988  0.00  0.00    +0.000 C 
ATOM     17  C   UNL     1       0.148  15.805  21.736  0.00  0.00    +0.000 C 
ENDROOT
BRANCH   1  19
ATOM     18  C   UNL     1      -3.593  15.554  21.355  0.00  0.00    +0.000 C 
ATOM     19  C   UNL     1      -2.314  15.916  21.203  0.00  0.00    +0.000 C 
ENDBRANCH   1  19
BRANCH  10  20
ATOM     20  C   UNL     1      -0.431  10.904  18.438  0.00  0.00    +0.000 C 
ATOM     21  C   UNL     1      -1.156  10.067  17.701  0.00  0.00    +0.000 C 
BRANCH  21  22
ATOM     22  C   UNL     1      -2.391  10.427  16.977  0.00  0.00    +0.000 C 
ATOM     23  O   UNL     1      -3.425   9.783  17.140  0.00  0.00    +0.000 OA
BRANCH  22  24
ATOM     24  O   UNL     1      -2.317  11.455  16.116  0.00  0.00    +0.000 OA
ATOM     25  H   UNL     1      -1.804  12.214  16.438  0.00  0.00    +0.000 HD
ENDBRANCH  22  24
ENDBRANCH  21  22
ENDBRANCH  10  20
TORSDOF 4
ENDMDL
MODEL 7
REMARK VINA RESULT:      -5.5      3.465      6.764
REMARK  Name = 
REMARK  7 active torsions:
REMARK  status: ('A' for Active; 'I' for Inactive)
REMARK    1  A    between atoms: C_2  and  C_3
REMARK    2  A    between atoms: C_3  and  C_4
REMARK    3  A    between atoms: C_12  and  C_13
REMARK    4  A    between atoms: C_12  and  C_14
REMARK    5  A    between atoms: C_15  and  C_16
REMARK    6  A    between atoms: C_16  and  O_18
REMARK    7  A    between atoms: C_22  and  C_23
REMARK                            x       y       z     vdW  Elec       q    Type
REMARK                         _______ _______ _______ _____ _____    ______ ____
ROOT
ATOM      1  C   UNL     1      -2.981  15.039  23.606  0.00  0.00    +0.000 C 
ATOM      2  C   UNL     1      -3.521  15.718  24.877  0.00  0.00    +0.000 C 
ATOM      3  C   UNL     1      -4.080  14.875  22.507  0.00  0.00    +0.000 C 
ATOM      4  C   UNL     1      -3.696  13.936  21.359  0.00  0.00    +0.000 C 
ATOM      5  C   UNL     1      -2.686  13.036  21.437  0.00  0.00    +0.000 C 
ATOM      6  C   UNL     1      -1.950  12.908  22.772  0.00  0.00    +0.000 C 
ATOM      7  C   UNL     1      -1.675  11.464  23.111  0.00  0.00    +0.000 C 
ATOM      8  C   UNL     1      -0.579  11.025  22.172  0.00  0.00    +0.000 C 
ATOM      9  C   UNL     1      -1.020  11.141  20.703  0.00  0.00    +0.000 C 
ATOM     10  C   UNL     1       0.136  10.733  19.728  0.00  0.00    +0.000 C 
ATOM     11  C   UNL     1       0.937   9.488  20.189  0.00  0.00    +0.000 C 
ATOM     12  C   UNL     1      -0.574  10.317  18.411  0.00  0.00    +0.000 C 
ATOM     13  C   UNL     1      -1.574  11.351  17.883  0.00  0.00    +0.000 C 
ATOM     14  C   UNL     1      -2.626  11.810  18.939  0.00  0.00    +0.000 C 
ATOM     15  C   UNL     1      -1.910  12.413  20.211  0.00  0.00    +0.000 C 
ATOM     16  C   UNL     1      -1.282  13.735  19.628  0.00  0.00    +0.000 C 
ATOM     17  C   UNL     1      -2.581  13.608  23.974  0.00  0.00    +0.000 C 
ENDROOT
BRANCH   1  19
ATOM     18  C   UNL     1      -0.712  16.217  23.952  0.00  0.00    +0.000 C 
ATOM     19  C   UNL     1      -1.747  15.853  23.186  0.00  0.00    +0.000 C 
ENDBRANCH   1  19
BRANCH  10  20
ATOM     20  C   UNL     1       1.128  11.892  19.670  0.00  0.00    +0.000 C 
ATOM     21  C   UNL     1       1.897  12.252  18.646  0.00  0.00    +0.000 C 
BRANCH  21  22
ATOM     22  C   UNL     1       2.745  13.460  18.606  0.00  0.00    +0.000 C 
ATOM     23  O   UNL     1       2.533  14.402  19.366  0.00  0.00    +0.000 OA
BRANCH  22  24
ATOM     24  O   UNL     1       3.721  13.490  17.684  0.00  0.00    +0.000 OA
ATOM     25  H   UNL     1       4.545  13.907  17.983  0.00  0.00    +0.000 HD
ENDBRANCH  22  24
ENDBRANCH  21  22
ENDBRANCH  10  20
TORSDOF 4
ENDMDL
MODEL 8
REMARK VINA RESULT:      -5.4      9.454     11.269
REMARK  Name = 
REMARK  7 active torsions:
REMARK  status: ('A' for Active; 'I' for Inactive)
REMARK    1  A    between atoms: C_2  and  C_3
REMARK    2  A    between atoms: C_3  and  C_4
REMARK    3  A    between atoms: C_12  and  C_13
REMARK    4  A    between atoms: C_12  and  C_14
REMARK    5  A    between atoms: C_15  and  C_16
REMARK    6  A    between atoms: C_16  and  O_18
REMARK    7  A    between atoms: C_22  and  C_23
REMARK                            x       y       z     vdW  Elec       q    Type
REMARK                         _______ _______ _______ _____ _____    ______ ____
ROOT
ATOM      1  C   UNL     1      10.603  13.776  18.194  0.00  0.00    +0.000 C 
ATOM      2  C   UNL     1      11.346  13.407  16.897  0.00  0.00    +0.000 C 
ATOM      3  C   UNL     1      11.400  14.801  19.063  0.00  0.00    +0.000 C 
ATOM      4  C   UNL     1      10.875  14.965  20.494  0.00  0.00    +0.000 C 
ATOM      5  C   UNL     1      10.055  14.068  21.094  0.00  0.00    +0.000 C 
ATOM      6  C   UNL     1       9.706  12.795  20.322  0.00  0.00    +0.000 C 
ATOM      7  C   UNL     1       9.733  11.583  21.221  0.00  0.00    +0.000 C 
ATOM      8  C   UNL     1       8.509  11.695  22.094  0.00  0.00    +0.000 C 
ATOM      9  C   UNL     1       8.542  12.977  22.945  0.00  0.00    +0.000 C 
ATOM     10  C   UNL     1       7.247  13.117  23.814  0.00  0.00    +0.000 C 
ATOM     11  C   UNL     1       6.772  11.788  24.455  0.00  0.00    +0.000 C 
ATOM     12  C   UNL     1       7.651  14.038  24.997  0.00  0.00    +0.000 C 
ATOM     13  C   UNL     1       8.329  15.346  24.573  0.00  0.00    +0.000 C 
ATOM     14  C   UNL     1       9.538  15.146  23.608  0.00  0.00    +0.000 C 
ATOM     15  C   UNL     1       9.090  14.372  22.307  0.00  0.00    +0.000 C 
ATOM     16  C   UNL     1       8.154  15.430  21.611  0.00  0.00    +0.000 C 
ATOM     17  C   UNL     1      10.516  12.516  19.058  0.00  0.00    +0.000 C 
ENDROOT
BRANCH   1  19
ATOM     18  C   UNL     1       8.703  15.473  17.791  0.00  0.00    +0.000 C 
ATOM     19  C   UNL     1       9.201  14.232  17.760  0.00  0.00    +0.000 C 
ENDBRANCH   1  19
BRANCH  10  20
ATOM     20  C   UNL     1       6.118  13.585  22.898  0.00  0.00    +0.000 C 
ATOM     21  C   UNL     1       5.114  14.403  23.199  0.00  0.00    +0.000 C 
BRANCH  21  22
ATOM     22  C   UNL     1       4.123  14.921  22.235  0.00  0.00    +0.000 C 
ATOM     23  O   UNL     1       4.484  15.515  21.221  0.00  0.00    +0.000 OA
BRANCH  22  24
ATOM     24  O   UNL     1       2.826  14.744  22.538  0.00  0.00    +0.000 OA
ATOM     25  H   UNL     1       2.307  14.304  21.846  0.00  0.00    +0.000 HD
ENDBRANCH  22  24
ENDBRANCH  21  22
ENDBRANCH  10  20
TORSDOF 4
ENDMDL
MODEL 9
REMARK VINA RESULT:      -5.4      2.777      6.320
REMARK  Name = 
REMARK  7 active torsions:
REMARK  status: ('A' for Active; 'I' for Inactive)
REMARK    1  A    between atoms: C_2  and  C_3
REMARK    2  A    between atoms: C_3  and  C_4
REMARK    3  A    between atoms: C_12  and  C_13
REMARK    4  A    between atoms: C_12  and  C_14
REMARK    5  A    between atoms: C_15  and  C_16
REMARK    6  A    between atoms: C_16  and  O_18
REMARK    7  A    between atoms: C_22  and  C_23
REMARK                            x       y       z     vdW  Elec       q    Type
REMARK                         _______ _______ _______ _____ _____    ______ ____
ROOT
ATOM      1  C   UNL     1      -4.584  13.709  22.167  0.00  0.00    +0.000 C 
ATOM      2  C   UNL     1      -6.065  13.813  22.573  0.00  0.00    +0.000 C 
ATOM      3  C   UNL     1      -3.985  15.091  21.750  0.00  0.00    +0.000 C 
ATOM      4  C   UNL     1      -2.628  15.008  21.042  0.00  0.00    +0.000 C 
ATOM      5  C   UNL     1      -2.147  13.870  20.484  0.00  0.00    +0.000 C 
ATOM      6  C   UNL     1      -3.047  12.634  20.500  0.00  0.00    +0.000 C 
ATOM      7  C   UNL     1      -2.988  11.894  19.186  0.00  0.00    +0.000 C 
ATOM      8  C   UNL     1      -1.636  11.225  19.155  0.00  0.00    +0.000 C 
ATOM      9  C   UNL     1      -0.498  12.257  19.225  0.00  0.00    +0.000 C 
ATOM     10  C   UNL     1       0.904  11.559  19.243  0.00  0.00    +0.000 C 
ATOM     11  C   UNL     1       1.021  10.358  18.271  0.00  0.00    +0.000 C 
ATOM     12  C   UNL     1       1.896  12.630  18.716  0.00  0.00    +0.000 C 
ATOM     13  C   UNL     1       1.802  13.982  19.433  0.00  0.00    +0.000 C 
ATOM     14  C   UNL     1       0.357  14.567  19.489  0.00  0.00    +0.000 C 
ATOM     15  C   UNL     1      -0.626  13.556  20.200  0.00  0.00    +0.000 C 
ATOM     16  C   UNL     1      -0.094  13.581  21.682  0.00  0.00    +0.000 C 
ATOM     17  C   UNL     1      -4.505  12.851  20.902  0.00  0.00    +0.000 C 
ENDROOT
BRANCH   1  19
ATOM     18  C   UNL     1      -4.414  12.612  24.496  0.00  0.00    +0.000 C 
ATOM     19  C   UNL     1      -3.875  13.012  23.338  0.00  0.00    +0.000 C 
ENDBRANCH   1  19
BRANCH  10  20
ATOM     20  C   UNL     1       1.130  11.005  20.648  0.00  0.00    +0.000 C 
ATOM     21  C   UNL     1       0.451  10.038  21.259  0.00  0.00    +0.000 C 
BRANCH  21  22
ATOM     22  C   UNL     1       0.798   9.457  22.570  0.00  0.00    +0.000 C 
ATOM     23  O   UNL     1      -0.069   9.263  23.420  0.00  0.00    +0.000 OA
BRANCH  22  24
ATOM     24  O   UNL     1       2.094   9.190  22.798  0.00  0.00    +0.000 OA
ATOM     25  H   UNL     1       2.422   9.490  23.661  0.00  0.00    +0.000 HD
ENDBRANCH  22  24
ENDBRANCH  21  22
ENDBRANCH  10  20
TORSDOF 4
ENDMDL
