MODEL 1
REMARK VINA RESULT:      -7.8      0.000      0.000
REMARK  Name = 
REMARK  8 active torsions:
REMARK  status: ('A' for Active; 'I' for Inactive)
REMARK    1  A    between atoms: O_1  and  C_2
REMARK    2  A    between atoms: C_2  and  C_3
REMARK    3  A    between atoms: C_2  and  C_11
REMARK    4  A    between atoms: C_3  and  O_4
REMARK    5  A    between atoms: O_4  and  C_5
REMARK    6  A    between atoms: C_11  and  N_12
REMARK    7  A    between atoms: N_15  and  C_16
REMARK    8  A    between atoms: C_16  and  C_17
REMARK                            x       y       z     vdW  Elec       q    Type
REMARK                         _______ _______ _______ _____ _____    ______ ____
ROOT
ATOM      1  N   UNL     1       7.368   5.990  17.341  0.00  0.00    +0.000 NA
ATOM      2  C   UNL     1       6.254   5.805  18.300  0.00  0.00    +0.000 C 
ATOM      3  C   UNL     1       4.892   6.125  17.650  0.00  0.00    +0.000 C 
ATOM      4  N   UNL     1       4.664   5.285  16.458  0.00  0.00    +0.000 NA
ATOM      5  C   UNL     1       5.761   5.464  15.483  0.00  0.00    +0.000 C 
ATOM      6  C   UNL     1       7.144   5.183  16.119  0.00  0.00    +0.000 C 
ENDROOT
BRANCH   1   7
ATOM      7  C   UNL     1       7.647   7.403  17.014  0.00  0.00    +0.000 C 
BRANCH   7   8
ATOM      8  C   UNL     1       7.888   8.266  18.265  0.00  0.00    +0.000 C 
BRANCH   8   9
ATOM      9  O   UNL     1       8.744   7.603  19.158  0.00  0.00    +0.000 OA
ATOM     10  H   UNL     1       8.166   7.186  19.848  0.00  0.00    +0.000 HD
ENDBRANCH   8   9
BRANCH   8  11
ATOM     11  C   UNL     1       8.515   9.578  17.826  0.00  0.00    +0.000 C 
BRANCH  11  12
ATOM     12  O   UNL     1       9.252  10.138  18.850  0.00  0.00    +0.000 OA
BRANCH  12  13
ATOM     13  C   UNL     1       9.993  11.267  18.710  0.00  0.00    +0.000 A 
ATOM     14  C   UNL     1       9.780  12.174  17.650  0.00  0.00    +0.000 A 
ATOM     15  C   UNL     1      10.564  13.319  17.534  0.00  0.00    +0.000 A 
ATOM     16  C   UNL     1      11.570  13.573  18.468  0.00  0.00    +0.000 A 
ATOM     17  C   UNL     1      11.788  12.682  19.523  0.00  0.00    +0.000 A 
ATOM     18  C   UNL     1      11.002  11.532  19.645  0.00  0.00    +0.000 A 
ENDBRANCH  12  13
ENDBRANCH  11  12
ENDBRANCH   8  11
ENDBRANCH   7   8
ENDBRANCH   1   7
BRANCH   4  19
ATOM     19  C   UNL     1       4.441   3.880  16.854  0.00  0.00    +0.000 C 
BRANCH  19  20
ATOM     20  C   UNL     1       3.395   3.734  17.905  0.00  0.00    +0.000 A 
ATOM     21  C   UNL     1       2.017   3.840  17.576  0.00  0.00    +0.000 A 
ATOM     22  C   UNL     1       1.039   3.556  18.545  0.00  0.00    +0.000 A 
ATOM     23  C   UNL     1       1.481   3.164  19.810  0.00  0.00    +0.000 A 
ATOM     24  C   UNL     1       2.791   3.101  20.125  0.00  0.00    +0.000 A 
ATOM     25  C   UNL     1       3.787   3.392  19.211  0.00  0.00    +0.000 A 
ATOM     26  O   UNL     1       2.927   2.670  21.378  0.00  0.00    +0.000 OA
ATOM     27  C   UNL     1       1.654   2.391  21.859  0.00  0.00    +0.000 C 
ATOM     28  O   UNL     1       0.760   2.766  20.856  0.00  0.00    +0.000 OA
ENDBRANCH  19  20
ENDBRANCH   4  19
TORSDOF 8
ENDMDL
MODEL 2
REMARK VINA RESULT:      -7.7      0.827      1.577
REMARK  Name = 
REMARK  8 active torsions:
REMARK  status: ('A' for Active; 'I' for Inactive)
REMARK    1  A    between atoms: O_1  and  C_2
REMARK    2  A    between atoms: C_2  and  C_3
REMARK    3  A    between atoms: C_2  and  C_11
REMARK    4  A    between atoms: C_3  and  O_4
REMARK    5  A    between atoms: O_4  and  C_5
REMARK    6  A    between atoms: C_11  and  N_12
REMARK    7  A    between atoms: N_15  and  C_16
REMARK    8  A    between atoms: C_16  and  C_17
REMARK                            x       y       z     vdW  Elec       q    Type
REMARK                         _______ _______ _______ _____ _____    ______ ____
ROOT
ATOM      1  N   UNL     1       6.298   6.765  16.374  0.00  0.00    +0.000 NA
ATOM      2  C   UNL     1       6.281   5.626  15.426  0.00  0.00    +0.000 C 
ATOM      3  C   UNL     1       6.727   4.317  16.108  0.00  0.00    +0.000 C 
ATOM      4  N   UNL     1       5.870   4.007  17.269  0.00  0.00    +0.000 NA
ATOM      5  C   UNL     1       5.881   5.128  18.234  0.00  0.00    +0.000 C 
ATOM      6  C   UNL     1       5.472   6.463  17.566  0.00  0.00    +0.000 C 
ENDROOT
BRANCH   1   7
ATOM      7  C   UNL     1       7.656   7.207  16.753  0.00  0.00    +0.000 C 
BRANCH   7   8
ATOM      8  C   UNL     1       7.702   7.854  18.148  0.00  0.00    +0.000 C 
BRANCH   8   9
ATOM      9  O   UNL     1       8.496   7.089  19.015  0.00  0.00    +0.000 OA
ATOM     10  H   UNL     1       7.991   7.008  19.866  0.00  0.00    +0.000 HD
ENDBRANCH   8   9
BRANCH   8  11
ATOM     11  C   UNL     1       8.288   9.249  18.008  0.00  0.00    +0.000 C 
BRANCH  11  12
ATOM     12  O   UNL     1       9.112   9.545  19.073  0.00  0.00    +0.000 OA
BRANCH  12  13
ATOM     13  C   UNL     1       9.705  10.754  19.249  0.00  0.00    +0.000 A 
ATOM     14  C   UNL     1       9.845  11.338  20.527  0.00  0.00    +0.000 A 
ATOM     15  C   UNL     1      10.453  12.583  20.670  0.00  0.00    +0.000 A 
ATOM     16  C   UNL     1      10.924  13.262  19.546  0.00  0.00    +0.000 A 
ATOM     17  C   UNL     1      10.791  12.693  18.276  0.00  0.00    +0.000 A 
ATOM     18  C   UNL     1      10.184  11.442  18.127  0.00  0.00    +0.000 A 
ENDBRANCH  12  13
ENDBRANCH  11  12
ENDBRANCH   8  11
ENDBRANCH   7   8
ENDBRANCH   1   7
BRANCH   4  19
ATOM     19  C   UNL     1       4.516   3.621  16.820  0.00  0.00    +0.000 C 
BRANCH  19  20
ATOM     20  C   UNL     1       3.513   3.645  17.921  0.00  0.00    +0.000 A 
ATOM     21  C   UNL     1       2.179   4.073  17.679  0.00  0.00    +0.000 A 
ATOM     22  C   UNL     1       1.208   3.952  18.687  0.00  0.00    +0.000 A 
ATOM     23  C   UNL     1       1.608   3.396  19.903  0.00  0.00    +0.000 A 
ATOM     24  C   UNL     1       2.884   3.026  20.138  0.00  0.00    +0.000 A 
ATOM     25  C   UNL     1       3.877   3.146  19.184  0.00  0.00    +0.000 A 
ATOM     26  O   UNL     1       2.977   2.500  21.358  0.00  0.00    +0.000 OA
ATOM     27  C   UNL     1       1.697   2.479  21.898  0.00  0.00    +0.000 C 
ATOM     28  O   UNL     1       0.865   3.103  20.968  0.00  0.00    +0.000 OA
ENDBRANCH  19  20
ENDBRANCH   4  19
TORSDOF 8
ENDMDL
MODEL 3
REMARK VINA RESULT:      -7.5      1.057      1.848
REMARK  Name = 
REMARK  8 active torsions:
REMARK  status: ('A' for Active; 'I' for Inactive)
REMARK    1  A    between atoms: O_1  and  C_2
REMARK    2  A    between atoms: C_2  and  C_3
REMARK    3  A    between atoms: C_2  and  C_11
REMARK    4  A    between atoms: C_3  and  O_4
REMARK    5  A    between atoms: O_4  and  C_5
REMARK    6  A    between atoms: C_11  and  N_12
REMARK    7  A    between atoms: N_15  and  C_16
REMARK    8  A    between atoms: C_16  and  C_17
REMARK                            x       y       z     vdW  Elec       q    Type
REMARK                         _______ _______ _______ _____ _____    ______ ____
ROOT
ATOM      1  N   UNL     1       5.920   7.027  16.852  0.00  0.00    +0.000 NA
ATOM      2  C   UNL     1       5.501   6.505  15.530  0.00  0.00    +0.000 C 
ATOM      3  C   UNL     1       5.936   5.038  15.338  0.00  0.00    +0.000 C 
ATOM      4  N   UNL     1       5.387   4.179  16.406  0.00  0.00    +0.000 NA
ATOM      5  C   UNL     1       5.804   4.678  17.734  0.00  0.00    +0.000 C 
ATOM      6  C   UNL     1       5.411   6.160  17.940  0.00  0.00    +0.000 C 
ENDROOT
BRANCH   1   7
ATOM      7  C   UNL     1       7.376   7.248  16.972  0.00  0.00    +0.000 C 
BRANCH   7   8
ATOM      8  C   UNL     1       7.751   8.074  18.215  0.00  0.00    +0.000 C 
BRANCH   8   9
ATOM      9  O   UNL     1       8.651   7.361  19.022  0.00  0.00    +0.000 OA
ATOM     10  H   UNL     1       8.150   6.587  19.390  0.00  0.00    +0.000 HD
ENDBRANCH   8   9
BRANCH   8  11
ATOM     11  C   UNL     1       8.391   9.371  17.751  0.00  0.00    +0.000 C 
BRANCH  11  12
ATOM     12  O   UNL     1       8.637  10.208  18.820  0.00  0.00    +0.000 OA
BRANCH  12  13
ATOM     13  C   UNL     1       9.770  10.945  18.950  0.00  0.00    +0.000 A 
ATOM     14  C   UNL     1      10.302  11.280  20.214  0.00  0.00    +0.000 A 
ATOM     15  C   UNL     1      11.463  12.043  20.311  0.00  0.00    +0.000 A 
ATOM     16  C   UNL     1      12.106  12.484  19.153  0.00  0.00    +0.000 A 
ATOM     17  C   UNL     1      11.589  12.158  17.896  0.00  0.00    +0.000 A 
ATOM     18  C   UNL     1      10.424  11.390  17.794  0.00  0.00    +0.000 A 
ENDBRANCH  12  13
ENDBRANCH  11  12
ENDBRANCH   8  11
ENDBRANCH   7   8
ENDBRANCH   1   7
BRANCH   4  19
ATOM     19  C   UNL     1       3.924   4.041  16.253  0.00  0.00    +0.000 C 
BRANCH  19  20
ATOM     20  C   UNL     1       3.278   3.394  17.430  0.00  0.00    +0.000 A 
ATOM     21  C   UNL     1       3.597   2.056  17.787  0.00  0.00    +0.000 A 
ATOM     22  C   UNL     1       3.094   1.508  18.980  0.00  0.00    +0.000 A 
ATOM     23  C   UNL     1       2.295   2.328  19.778  0.00  0.00    +0.000 A 
ATOM     24  C   UNL     1       1.966   3.585  19.413  0.00  0.00    +0.000 A 
ATOM     25  C   UNL     1       2.420   4.158  18.240  0.00  0.00    +0.000 A 
ATOM     26  O   UNL     1       1.228   4.146  20.369  0.00  0.00    +0.000 OA
ATOM     27  C   UNL     1       1.133   3.231  21.409  0.00  0.00    +0.000 C 
ATOM     28  O   UNL     1       1.777   2.072  20.977  0.00  0.00    +0.000 OA
ENDBRANCH  19  20
ENDBRANCH   4  19
TORSDOF 8
ENDMDL
MODEL 4
REMARK VINA RESULT:      -7.3      1.031      1.602
REMARK  Name = 
REMARK  8 active torsions:
REMARK  status: ('A' for Active; 'I' for Inactive)
REMARK    1  A    between atoms: O_1  and  C_2
REMARK    2  A    between atoms: C_2  and  C_3
REMARK    3  A    between atoms: C_2  and  C_11
REMARK    4  A    between atoms: C_3  and  O_4
REMARK    5  A    between atoms: O_4  and  C_5
REMARK    6  A    between atoms: C_11  and  N_12
REMARK    7  A    between atoms: N_15  and  C_16
REMARK    8  A    between atoms: C_16  and  C_17
REMARK                            x       y       z     vdW  Elec       q    Type
REMARK                         _______ _______ _______ _____ _____    ______ ____
ROOT
ATOM      1  N   UNL     1       6.048   6.991  16.737  0.00  0.00    +0.000 NA
ATOM      2  C   UNL     1       5.731   6.353  15.438  0.00  0.00    +0.000 C 
ATOM      3  C   UNL     1       6.183   4.879  15.407  0.00  0.00    +0.000 C 
ATOM      4  N   UNL     1       5.558   4.110  16.500  0.00  0.00    +0.000 NA
ATOM      5  C   UNL     1       5.872   4.725  17.808  0.00  0.00    +0.000 C 
ATOM      6  C   UNL     1       5.461   6.216  17.855  0.00  0.00    +0.000 C 
ENDROOT
BRANCH   1   7
ATOM      7  C   UNL     1       7.490   7.235  16.946  0.00  0.00    +0.000 C 
BRANCH   7   8
ATOM      8  C   UNL     1       7.783   7.968  18.266  0.00  0.00    +0.000 C 
BRANCH   8   9
ATOM      9  O   UNL     1       8.653   7.209  19.064  0.00  0.00    +0.000 OA
ATOM     10  H   UNL     1       9.146   7.852  19.638  0.00  0.00    +0.000 HD
ENDBRANCH   8   9
BRANCH   8  11
ATOM     11  C   UNL     1       8.422   9.307  17.937  0.00  0.00    +0.000 C 
BRANCH  11  12
ATOM     12  O   UNL     1       9.018   9.855  19.053  0.00  0.00    +0.000 OA
BRANCH  12  13
ATOM     13  C   UNL     1       9.624  11.071  19.060  0.00  0.00    +0.000 A 
ATOM     14  C   UNL     1       9.487  11.979  17.988  0.00  0.00    +0.000 A 
ATOM     15  C   UNL     1      10.129  13.215  18.026  0.00  0.00    +0.000 A 
ATOM     16  C   UNL     1      10.915  13.560  19.126  0.00  0.00    +0.000 A 
ATOM     17  C   UNL     1      11.056  12.668  20.194  0.00  0.00    +0.000 A 
ATOM     18  C   UNL     1      10.412  11.426  20.162  0.00  0.00    +0.000 A 
ENDBRANCH  12  13
ENDBRANCH  11  12
ENDBRANCH   8  11
ENDBRANCH   7   8
ENDBRANCH   1   7
BRANCH   4  19
ATOM     19  C   UNL     1       4.111   3.946  16.252  0.00  0.00    +0.000 C 
BRANCH  19  20
ATOM     20  C   UNL     1       3.389   3.348  17.410  0.00  0.00    +0.000 A 
ATOM     21  C   UNL     1       3.599   1.990  17.772  0.00  0.00    +0.000 A 
ATOM     22  C   UNL     1       3.027   1.480  18.951  0.00  0.00    +0.000 A 
ATOM     23  C   UNL     1       2.269   2.357  19.730  0.00  0.00    +0.000 A 
ATOM     24  C   UNL     1       2.045   3.635  19.360  0.00  0.00    +0.000 A 
ATOM     25  C   UNL     1       2.570   4.173  18.200  0.00  0.00    +0.000 A 
ATOM     26  O   UNL     1       1.325   4.249  20.297  0.00  0.00    +0.000 OA
ATOM     27  C   UNL     1       1.136   3.342  21.333  0.00  0.00    +0.000 C 
ATOM     28  O   UNL     1       1.703   2.139  20.915  0.00  0.00    +0.000 OA
ENDBRANCH  19  20
ENDBRANCH   4  19
TORSDOF 8
ENDMDL
MODEL 5
REMARK VINA RESULT:      -7.0      5.624      8.305
REMARK  Name = 
REMARK  8 active torsions:
REMARK  status: ('A' for Active; 'I' for Inactive)
REMARK    1  A    between atoms: O_1  and  C_2
REMARK    2  A    between atoms: C_2  and  C_3
REMARK    3  A    between atoms: C_2  and  C_11
REMARK    4  A    between atoms: C_3  and  O_4
REMARK    5  A    between atoms: O_4  and  C_5
REMARK    6  A    between atoms: C_11  and  N_12
REMARK    7  A    between atoms: N_15  and  C_16
REMARK    8  A    between atoms: C_16  and  C_17
REMARK                            x       y       z     vdW  Elec       q    Type
REMARK                         _______ _______ _______ _____ _____    ______ ____
ROOT
ATOM      1  N   UNL     1       2.357   6.088  20.721  0.00  0.00    +0.000 NA
ATOM      2  C   UNL     1       2.080   4.639  20.855  0.00  0.00    +0.000 C 
ATOM      3  C   UNL     1       1.438   4.066  19.575  0.00  0.00    +0.000 C 
ATOM      4  N   UNL     1       2.300   4.299  18.400  0.00  0.00    +0.000 NA
ATOM      5  C   UNL     1       2.579   5.743  18.243  0.00  0.00    +0.000 C 
ATOM      6  C   UNL     1       3.192   6.352  19.527  0.00  0.00    +0.000 C 
ENDROOT
BRANCH   1   7
ATOM      7  C   UNL     1       1.143   6.931  20.730  0.00  0.00    +0.000 C 
BRANCH   7   8
ATOM      8  C   UNL     1       1.463   8.433  20.826  0.00  0.00    +0.000 C 
BRANCH   8   9
ATOM      9  O   UNL     1       1.064   9.093  19.654  0.00  0.00    +0.000 OA
ATOM     10  H   UNL     1       0.130   9.395  19.803  0.00  0.00    +0.000 HD
ENDBRANCH   8   9
BRANCH   8  11
ATOM     11  C   UNL     1       0.717   9.004  22.020  0.00  0.00    +0.000 C 
BRANCH  11  12
ATOM     12  O   UNL     1       0.715  10.383  21.984  0.00  0.00    +0.000 OA
BRANCH  12  13
ATOM     13  C   UNL     1      -0.417  11.133  21.993  0.00  0.00    +0.000 A 
ATOM     14  C   UNL     1      -0.780  11.951  20.902  0.00  0.00    +0.000 A 
ATOM     15  C   UNL     1      -1.945  12.712  20.948  0.00  0.00    +0.000 A 
ATOM     16  C   UNL     1      -2.761  12.670  22.079  0.00  0.00    +0.000 A 
ATOM     17  C   UNL     1      -2.412  11.862  23.165  0.00  0.00    +0.000 A 
ATOM     18  C   UNL     1      -1.244  11.094  23.124  0.00  0.00    +0.000 A 
ENDBRANCH  12  13
ENDBRANCH  11  12
ENDBRANCH   8  11
ENDBRANCH   7   8
ENDBRANCH   1   7
BRANCH   4  19
ATOM     19  C   UNL     1       3.516   3.463  18.481  0.00  0.00    +0.000 C 
BRANCH  19  20
ATOM     20  C   UNL     1       4.637   3.991  17.653  0.00  0.00    +0.000 A 
ATOM     21  C   UNL     1       5.873   4.354  18.254  0.00  0.00    +0.000 A 
ATOM     22  C   UNL     1       6.968   4.710  17.448  0.00  0.00    +0.000 A 
ATOM     23  C   UNL     1       6.785   4.681  16.064  0.00  0.00    +0.000 A 
ATOM     24  C   UNL     1       5.598   4.371  15.503  0.00  0.00    +0.000 A 
ATOM     25  C   UNL     1       4.489   4.034  16.256  0.00  0.00    +0.000 A 
ATOM     26  O   UNL     1       5.716   4.387  14.177  0.00  0.00    +0.000 OA
ATOM     27  C   UNL     1       7.046   4.659  13.883  0.00  0.00    +0.000 C 
ATOM     28  O   UNL     1       7.682   4.891  15.103  0.00  0.00    +0.000 OA
ENDBRANCH  19  20
ENDBRANCH   4  19
TORSDOF 8
ENDMDL
MODEL 6
REMARK VINA RESULT:      -7.0      7.919     10.612
REMARK  Name = 
REMARK  8 active torsions:
REMARK  status: ('A' for Active; 'I' for Inactive)
REMARK    1  A    between atoms: O_1  and  C_2
REMARK    2  A    between atoms: C_2  and  C_3
REMARK    3  A    between atoms: C_2  and  C_11
REMARK    4  A    between atoms: C_3  and  O_4
REMARK    5  A    between atoms: O_4  and  C_5
REMARK    6  A    between atoms: C_11  and  N_12
REMARK    7  A    between atoms: N_15  and  C_16
REMARK    8  A    between atoms: C_16  and  C_17
REMARK                            x       y       z     vdW  Elec       q    Type
REMARK                         _______ _______ _______ _____ _____    ______ ____
ROOT
ATOM      1  N   UNL     1       0.708  10.261  18.746  0.00  0.00    +0.000 NA
ATOM      2  C   UNL     1      -0.697  10.214  19.214  0.00  0.00    +0.000 C 
ATOM      3  C   UNL     1      -0.792  10.427  20.738  0.00  0.00    +0.000 C 
ATOM      4  N   UNL     1      -0.183  11.712  21.132  0.00  0.00    +0.000 NA
ATOM      5  C   UNL     1       1.225  11.775  20.683  0.00  0.00    +0.000 C 
ATOM      6  C   UNL     1       1.353  11.529  19.161  0.00  0.00    +0.000 C 
ENDROOT
BRANCH   1   7
ATOM      7  C   UNL     1       1.511   9.088  19.148  0.00  0.00    +0.000 C 
BRANCH   7   8
ATOM      8  C   UNL     1       1.991   8.256  17.946  0.00  0.00    +0.000 C 
BRANCH   8   9
ATOM      9  O   UNL     1       2.681   9.069  17.033  0.00  0.00    +0.000 OA
ATOM     10  H   UNL     1       2.324   9.988  17.146  0.00  0.00    +0.000 HD
ENDBRANCH   8   9
BRANCH   8  11
ATOM     11  C   UNL     1       2.910   7.161  18.459  0.00  0.00    +0.000 C 
BRANCH  11  12
ATOM     12  O   UNL     1       2.560   5.937  17.929  0.00  0.00    +0.000 OA
BRANCH  12  13
ATOM     13  C   UNL     1       2.031   4.924  18.663  0.00  0.00    +0.000 A 
ATOM     14  C   UNL     1       1.578   3.727  18.068  0.00  0.00    +0.000 A 
ATOM     15  C   UNL     1       1.034   2.712  18.852  0.00  0.00    +0.000 A 
ATOM     16  C   UNL     1       0.932   2.877  20.234  0.00  0.00    +0.000 A 
ATOM     17  C   UNL     1       1.379   4.058  20.834  0.00  0.00    +0.000 A 
ATOM     18  C   UNL     1       1.928   5.080  20.052  0.00  0.00    +0.000 A 
ENDBRANCH  12  13
ENDBRANCH  11  12
ENDBRANCH   8  11
ENDBRANCH   7   8
ENDBRANCH   1   7
BRANCH   4  19
ATOM     19  C   UNL     1      -1.011  12.840  20.657  0.00  0.00    +0.000 C 
BRANCH  19  20
ATOM     20  C   UNL     1      -2.346  12.896  21.316  0.00  0.00    +0.000 A 
ATOM     21  C   UNL     1      -3.536  12.938  20.542  0.00  0.00    +0.000 A 
ATOM     22  C   UNL     1      -4.789  12.842  21.172  0.00  0.00    +0.000 A 
ATOM     23  C   UNL     1      -4.801  12.699  22.561  0.00  0.00    +0.000 A 
ATOM     24  C   UNL     1      -3.668  12.698  23.292  0.00  0.00    +0.000 A 
ATOM     25  C   UNL     1      -2.415  12.810  22.718  0.00  0.00    +0.000 A 
ATOM     26  O   UNL     1      -3.968  12.514  24.577  0.00  0.00    +0.000 OA
ATOM     27  C   UNL     1      -5.343  12.330  24.657  0.00  0.00    +0.000 C 
ATOM     28  O   UNL     1      -5.843  12.507  23.367  0.00  0.00    +0.000 OA
ENDBRANCH  19  20
ENDBRANCH   4  19
TORSDOF 8
ENDMDL
MODEL 7
REMARK VINA RESULT:      -7.0      4.775      7.474
REMARK  Name = 
REMARK  8 active torsions:
REMARK  status: ('A' for Active; 'I' for Inactive)
REMARK    1  A    between atoms: O_1  and  C_2
REMARK    2  A    between atoms: C_2  and  C_3
REMARK    3  A    between atoms: C_2  and  C_11
REMARK    4  A    between atoms: C_3  and  O_4
REMARK    5  A    between atoms: O_4  and  C_5
REMARK    6  A    between atoms: C_11  and  N_12
REMARK    7  A    between atoms: N_15  and  C_16
REMARK    8  A    between atoms: C_16  and  C_17
REMARK                            x       y       z     vdW  Elec       q    Type
REMARK                         _______ _______ _______ _____ _____    ______ ____
ROOT
ATOM      1  N   UNL     1       3.216   3.771  20.362  0.00  0.00    +0.000 NA
ATOM      2  C   UNL     1       3.778   5.022  19.801  0.00  0.00    +0.000 C 
ATOM      3  C   UNL     1       2.703   5.839  19.055  0.00  0.00    +0.000 C 
ATOM      4  N   UNL     1       1.570   6.160  19.944  0.00  0.00    +0.000 NA
ATOM      5  C   UNL     1       0.988   4.921  20.506  0.00  0.00    +0.000 C 
ATOM      6  C   UNL     1       2.053   4.064  21.231  0.00  0.00    +0.000 C 
ENDROOT
BRANCH   1   7
ATOM      7  C   UNL     1       2.887   2.754  19.341  0.00  0.00    +0.000 C 
BRANCH   7   8
ATOM      8  C   UNL     1       4.102   2.358  18.484  0.00  0.00    +0.000 C 
BRANCH   8   9
ATOM      9  O   UNL     1       4.186   0.962  18.372  0.00  0.00    +0.000 OA
ATOM     10  H   UNL     1       4.504   0.770  17.451  0.00  0.00    +0.000 HD
ENDBRANCH   8   9
BRANCH   8  11
ATOM     11  C   UNL     1       3.936   2.977  17.107  0.00  0.00    +0.000 C 
BRANCH  11  12
ATOM     12  O   UNL     1       5.158   3.350  16.585  0.00  0.00    +0.000 OA
BRANCH  12  13
ATOM     13  C   UNL     1       5.771   4.526  16.877  0.00  0.00    +0.000 A 
ATOM     14  C   UNL     1       6.965   4.579  17.627  0.00  0.00    +0.000 A 
ATOM     15  C   UNL     1       7.564   5.804  17.914  0.00  0.00    +0.000 A 
ATOM     16  C   UNL     1       6.980   6.988  17.461  0.00  0.00    +0.000 A 
ATOM     17  C   UNL     1       5.798   6.947  16.716  0.00  0.00    +0.000 A 
ATOM     18  C   UNL     1       5.194   5.720  16.424  0.00  0.00    +0.000 A 
ENDBRANCH  12  13
ENDBRANCH  11  12
ENDBRANCH   8  11
ENDBRANCH   7   8
ENDBRANCH   1   7
BRANCH   4  19
ATOM     19  C   UNL     1       1.981   7.142  20.968  0.00  0.00    +0.000 C 
BRANCH  19  20
ATOM     20  C   UNL     1       1.172   8.393  20.928  0.00  0.00    +0.000 A 
ATOM     21  C   UNL     1       0.535   8.882  22.100  0.00  0.00    +0.000 A 
ATOM     22  C   UNL     1      -0.101  10.136  22.083  0.00  0.00    +0.000 A 
ATOM     23  C   UNL     1      -0.066  10.859  20.890  0.00  0.00    +0.000 A 
ATOM     24  C   UNL     1       0.509  10.371  19.771  0.00  0.00    +0.000 A 
ATOM     25  C   UNL     1       1.127   9.135  19.735  0.00  0.00    +0.000 A 
ATOM     26  O   UNL     1       0.427  11.277  18.798  0.00  0.00    +0.000 OA
ATOM     27  C   UNL     1      -0.170  12.409  19.337  0.00  0.00    +0.000 C 
ATOM     28  O   UNL     1      -0.516  12.089  20.650  0.00  0.00    +0.000 OA
ENDBRANCH  19  20
ENDBRANCH   4  19
TORSDOF 8
ENDMDL
MODEL 8
REMARK VINA RESULT:      -7.0      8.560     11.131
REMARK  Name = 
REMARK  8 active torsions:
REMARK  status: ('A' for Active; 'I' for Inactive)
REMARK    1  A    between atoms: O_1  and  C_2
REMARK    2  A    between atoms: C_2  and  C_3
REMARK    3  A    between atoms: C_2  and  C_11
REMARK    4  A    between atoms: C_3  and  O_4
REMARK    5  A    between atoms: O_4  and  C_5
REMARK    6  A    between atoms: C_11  and  N_12
REMARK    7  A    between atoms: N_15  and  C_16
REMARK    8  A    between atoms: C_16  and  C_17
REMARK                            x       y       z     vdW  Elec       q    Type
REMARK                         _______ _______ _______ _____ _____    ______ ____
ROOT
ATOM      1  N   UNL     1       0.130   9.252  19.988  0.00  0.00    +0.000 NA
ATOM      2  C   UNL     1      -0.153   8.895  21.398  0.00  0.00    +0.000 C 
ATOM      3  C   UNL     1       0.389   9.962  22.370  0.00  0.00    +0.000 C 
ATOM      4  N   UNL     1      -0.182  11.289  22.072  0.00  0.00    +0.000 NA
ATOM      5  C   UNL     1       0.100  11.669  20.670  0.00  0.00    +0.000 C 
ATOM      6  C   UNL     1      -0.403  10.597  19.673  0.00  0.00    +0.000 C 
ENDROOT
BRANCH   1   7
ATOM      7  C   UNL     1       1.555   9.133  19.616  0.00  0.00    +0.000 C 
BRANCH   7   8
ATOM      8  C   UNL     1       1.761   8.420  18.269  0.00  0.00    +0.000 C 
BRANCH   8   9
ATOM      9  O   UNL     1       2.136   9.343  17.280  0.00  0.00    +0.000 OA
ATOM     10  H   UNL     1       1.335   9.900  17.094  0.00  0.00    +0.000 HD
ENDBRANCH   8   9
BRANCH   8  11
ATOM     11  C   UNL     1       2.853   7.378  18.442  0.00  0.00    +0.000 C 
BRANCH  11  12
ATOM     12  O   UNL     1       2.445   6.152  17.959  0.00  0.00    +0.000 OA
BRANCH  12  13
ATOM     13  C   UNL     1       2.041   5.129  18.755  0.00  0.00    +0.000 A 
ATOM     14  C   UNL     1       2.229   5.151  20.154  0.00  0.00    +0.000 A 
ATOM     15  C   UNL     1       1.809   4.080  20.939  0.00  0.00    +0.000 A 
ATOM     16  C   UNL     1       1.202   2.975  20.342  0.00  0.00    +0.000 A 
ATOM     17  C   UNL     1       1.010   2.942  18.958  0.00  0.00    +0.000 A 
ATOM     18  C   UNL     1       1.428   4.016  18.165  0.00  0.00    +0.000 A 
ENDBRANCH  12  13
ENDBRANCH  11  12
ENDBRANCH   8  11
ENDBRANCH   7   8
ENDBRANCH   1   7
BRANCH   4  19
ATOM     19  C   UNL     1      -1.617  11.322  22.420  0.00  0.00    +0.000 C 
BRANCH  19  20
ATOM     20  C   UNL     1      -2.011  12.570  23.133  0.00  0.00    +0.000 A 
ATOM     21  C   UNL     1      -3.317  12.714  23.675  0.00  0.00    +0.000 A 
ATOM     22  C   UNL     1      -3.629  13.831  24.470  0.00  0.00    +0.000 A 
ATOM     23  C   UNL     1      -2.614  14.761  24.699  0.00  0.00    +0.000 A 
ATOM     24  C   UNL     1      -1.388  14.635  24.151  0.00  0.00    +0.000 A 
ATOM     25  C   UNL     1      -1.042  13.565  23.347  0.00  0.00    +0.000 A 
ATOM     26  O   UNL     1      -0.612  15.637  24.561  0.00  0.00    +0.000 OA
ATOM     27  C   UNL     1      -1.358  16.397  25.454  0.00  0.00    +0.000 C 
ATOM     28  O   UNL     1      -2.637  15.842  25.476  0.00  0.00    +0.000 OA
ENDBRANCH  19  20
ENDBRANCH   4  19
TORSDOF 8
ENDMDL
MODEL 9
REMARK VINA RESULT:      -6.9      8.414     10.918
REMARK  Name = 
REMARK  8 active torsions:
REMARK  status: ('A' for Active; 'I' for Inactive)
REMARK    1  A    between atoms: O_1  and  C_2
REMARK    2  A    between atoms: C_2  and  C_3
REMARK    3  A    between atoms: C_2  and  C_11
REMARK    4  A    between atoms: C_3  and  O_4
REMARK    5  A    between atoms: O_4  and  C_5
REMARK    6  A    between atoms: C_11  and  N_12
REMARK    7  A    between atoms: N_15  and  C_16
REMARK    8  A    between atoms: C_16  and  C_17
REMARK                            x       y       z     vdW  Elec       q    Type
REMARK                         _______ _______ _______ _____ _____    ______ ____
ROOT
ATOM      1  N   UNL     1       0.086  11.136  22.196  0.00  0.00    +0.000 NA
ATOM      2  C   UNL     1       0.042   9.809  22.854  0.00  0.00    +0.000 C 
ATOM      3  C   UNL     1      -0.513   8.727  21.905  0.00  0.00    +0.000 C 
ATOM      4  N   UNL     1       0.291   8.642  20.671  0.00  0.00    +0.000 NA
ATOM      5  C   UNL     1       0.338   9.956  19.993  0.00  0.00    +0.000 C 
ATOM      6  C   UNL     1       0.859  11.068  20.935  0.00  0.00    +0.000 C 
ENDROOT
BRANCH   1   7
ATOM      7  C   UNL     1      -1.246  11.742  21.984  0.00  0.00    +0.000 C 
BRANCH   7   8
ATOM      8  C   UNL     1      -1.635  12.726  23.101  0.00  0.00    +0.000 C 
BRANCH   8   9
ATOM      9  O   UNL     1      -0.525  13.492  23.486  0.00  0.00    +0.000 OA
ATOM     10  H   UNL     1       0.276  12.922  23.345  0.00  0.00    +0.000 HD
ENDBRANCH   8   9
BRANCH   8  11
ATOM     11  C   UNL     1      -2.732  13.635  22.573  0.00  0.00    +0.000 C 
BRANCH  11  12
ATOM     12  O   UNL     1      -3.683  12.911  21.884  0.00  0.00    +0.000 OA
BRANCH  12  13
ATOM     13  C   UNL     1      -4.972  12.788  22.291  0.00  0.00    +0.000 A 
ATOM     14  C   UNL     1      -5.352  12.978  23.637  0.00  0.00    +0.000 A 
ATOM     15  C   UNL     1      -6.684  12.837  24.020  0.00  0.00    +0.000 A 
ATOM     16  C   UNL     1      -7.651  12.503  23.071  0.00  0.00    +0.000 A 
ATOM     17  C   UNL     1      -7.286  12.314  21.734  0.00  0.00    +0.000 A 
ATOM     18  C   UNL     1      -5.950  12.457  21.344  0.00  0.00    +0.000 A 
ENDBRANCH  12  13
ENDBRANCH  11  12
ENDBRANCH   8  11
ENDBRANCH   7   8
ENDBRANCH   1   7
BRANCH   4  19
ATOM     19  C   UNL     1       1.624   8.075  20.964  0.00  0.00    +0.000 C 
BRANCH  19  20
ATOM     20  C   UNL     1       1.973   6.929  20.077  0.00  0.00    +0.000 A 
ATOM     21  C   UNL     1       2.561   7.151  18.803  0.00  0.00    +0.000 A 
ATOM     22  C   UNL     1       3.018   6.062  18.041  0.00  0.00    +0.000 A 
ATOM     23  C   UNL     1       2.877   4.787  18.591  0.00  0.00    +0.000 A 
ATOM     24  C   UNL     1       2.285   4.582  19.786  0.00  0.00    +0.000 A 
ATOM     25  C   UNL     1       1.801   5.620  20.560  0.00  0.00    +0.000 A 
ATOM     26  O   UNL     1       2.315   3.283  20.080  0.00  0.00    +0.000 OA
ATOM     27  C   UNL     1       3.009   2.644  19.060  0.00  0.00    +0.000 C 
ATOM     28  O   UNL     1       3.303   3.621  18.109  0.00  0.00    +0.000 OA
ENDBRANCH  19  20
ENDBRANCH   4  19
TORSDOF 8
ENDMDL
