MODEL 1
REMARK VINA RESULT:      -8.3      0.000      0.000
REMARK  Name = 
REMARK  9 active torsions:
REMARK  status: ('A' for Active; 'I' for Inactive)
REMARK    1  A    between atoms: C_1  and  O_2
REMARK    2  A    between atoms: O_2  and  C_3
REMARK    3  A    between atoms: C_6  and  C_7
REMARK    4  A    between atoms: C_7  and  C_9
REMARK    5  A    between atoms: C_9  and  C_10
REMARK    6  A    between atoms: C_10  and  C_11
REMARK    7  A    between atoms: N_13  and  C_14
REMARK    8  A    between atoms: C_14  and  C_15
REMARK    9  A    between atoms: C_15  and  C_16
REMARK                            x       y       z     vdW  Elec       q    Type
REMARK                         _______ _______ _______ _____ _____    ______ ____
ROOT
ATOM      1  C   UNL     1       7.171   6.830  17.476  0.00  0.00    +0.000 C 
ATOM      2  O   UNL     1       7.489   5.881  16.779  0.00  0.00    +0.000 OA
ATOM      3  N   UNL     1       5.868   7.270  17.664  0.00  0.00    +0.000 N 
ATOM      4  H   UNL     1       5.677   7.986  18.357  0.00  0.00    +0.000 HD
ENDROOT
BRANCH   1   5
ATOM      5  C   UNL     1       8.173   7.722  18.210  0.00  0.00    +0.000 C 
BRANCH   5   6
ATOM      6  C   UNL     1       8.117   9.200  17.810  0.00  0.00    +0.000 C 
BRANCH   6   7
ATOM      7  C   UNL     1       8.977  10.074  18.733  0.00  0.00    +0.000 C 
ATOM      8  O   UNL     1       9.099   9.801  19.929  0.00  0.00    +0.000 OA
BRANCH   7  12
ATOM      9  C   UNL     1      10.877  13.646  17.178  0.00  0.00    +0.000 A 
ATOM     10  C   UNL     1       9.510  13.612  17.472  0.00  0.00    +0.000 A 
ATOM     11  C   UNL     1       8.910  12.449  17.979  0.00  0.00    +0.000 A 
ATOM     12  C   UNL     1       9.665  11.286  18.190  0.00  0.00    +0.000 A 
ATOM     13  C   UNL     1      11.033  11.313  17.877  0.00  0.00    +0.000 A 
ATOM     14  C   UNL     1      11.630  12.492  17.377  0.00  0.00    +0.000 A 
BRANCH   9  16
ATOM     15  C   UNL     1      11.223  15.974  17.513  0.00  0.00    +0.000 C 
ATOM     16  O   UNL     1      11.332  14.829  16.673  0.00  0.00    +0.000 OA
ENDBRANCH   9  16
ENDBRANCH   7  12
ENDBRANCH   6   7
ENDBRANCH   5   6
ENDBRANCH   1   5
BRANCH   3  17
ATOM     17  C   UNL     1       4.721   6.738  16.951  0.00  0.00    +0.000 C 
BRANCH  17  18
ATOM     18  C   UNL     1       3.364   7.240  17.419  0.00  0.00    +0.000 C 
BRANCH  18  19
ATOM     19  C   UNL     1       2.629   6.530  18.520  0.00  0.00    +0.000 A 
ATOM     20  C   UNL     1       2.348   7.174  19.717  0.00  0.00    +0.000 A 
ATOM     21  N   UNL     1       2.168   6.211  20.658  0.00  0.00    +0.000 N 
ATOM     22  C   UNL     1       1.784   5.052  20.037  0.00  0.00    +0.000 A 
ATOM     23  C   UNL     1       1.189   3.914  20.593  0.00  0.00    +0.000 A 
ATOM     24  C   UNL     1       0.915   2.856  19.733  0.00  0.00    +0.000 A 
ATOM     25  C   UNL     1       1.318   2.902  18.408  0.00  0.00    +0.000 A 
ATOM     26  C   UNL     1       1.964   4.039  17.870  0.00  0.00    +0.000 A 
ATOM     27  C   UNL     1       2.142   5.180  18.686  0.00  0.00    +0.000 A 
ATOM     28  H   UNL     1       2.226   6.347  21.660  0.00  0.00    +0.000 HD
ENDBRANCH  18  19
ENDBRANCH  17  18
ENDBRANCH   3  17
TORSDOF 8
ENDMDL
MODEL 2
REMARK VINA RESULT:      -7.9      4.396      7.759
REMARK  Name = 
REMARK  9 active torsions:
REMARK  status: ('A' for Active; 'I' for Inactive)
REMARK    1  A    between atoms: C_1  and  O_2
REMARK    2  A    between atoms: O_2  and  C_3
REMARK    3  A    between atoms: C_6  and  C_7
REMARK    4  A    between atoms: C_7  and  C_9
REMARK    5  A    between atoms: C_9  and  C_10
REMARK    6  A    between atoms: C_10  and  C_11
REMARK    7  A    between atoms: N_13  and  C_14
REMARK    8  A    between atoms: C_14  and  C_15
REMARK    9  A    between atoms: C_15  and  C_16
REMARK                            x       y       z     vdW  Elec       q    Type
REMARK                         _______ _______ _______ _____ _____    ______ ____
ROOT
ATOM      1  C   UNL     1       1.608   3.934  18.300  0.00  0.00    +0.000 C 
ATOM      2  O   UNL     1       1.044   4.391  17.320  0.00  0.00    +0.000 OA
ATOM      3  N   UNL     1       2.833   3.281  18.273  0.00  0.00    +0.000 N 
ATOM      4  H   UNL     1       3.291   3.042  19.145  0.00  0.00    +0.000 HD
ENDROOT
BRANCH   1   5
ATOM      5  C   UNL     1       1.021   3.961  19.711  0.00  0.00    +0.000 C 
BRANCH   5   6
ATOM      6  C   UNL     1       1.892   4.682  20.745  0.00  0.00    +0.000 C 
BRANCH   6   7
ATOM      7  C   UNL     1       2.770   5.763  20.098  0.00  0.00    +0.000 C 
ATOM      8  O   UNL     1       3.956   5.543  19.842  0.00  0.00    +0.000 OA
BRANCH   7  12
ATOM      9  C   UNL     1       1.140   9.649  19.091  0.00  0.00    +0.000 A 
ATOM     10  C   UNL     1       1.894   8.911  18.173  0.00  0.00    +0.000 A 
ATOM     11  C   UNL     1       2.411   7.651  18.514  0.00  0.00    +0.000 A 
ATOM     12  C   UNL     1       2.197   7.109  19.788  0.00  0.00    +0.000 A 
ATOM     13  C   UNL     1       1.457   7.857  20.717  0.00  0.00    +0.000 A 
ATOM     14  C   UNL     1       0.932   9.119  20.361  0.00  0.00    +0.000 A 
BRANCH   9  16
ATOM     15  C   UNL     1       1.652  11.935  18.683  0.00  0.00    +0.000 C 
ATOM     16  O   UNL     1       0.712  10.866  18.644  0.00  0.00    +0.000 OA
ENDBRANCH   9  16
ENDBRANCH   7  12
ENDBRANCH   6   7
ENDBRANCH   5   6
ENDBRANCH   1   5
BRANCH   3  17
ATOM     17  C   UNL     1       3.543   2.939  17.054  0.00  0.00    +0.000 C 
BRANCH  17  18
ATOM     18  C   UNL     1       5.018   3.305  17.027  0.00  0.00    +0.000 C 
BRANCH  18  19
ATOM     19  C   UNL     1       5.443   4.745  16.980  0.00  0.00    +0.000 A 
ATOM     20  C   UNL     1       4.816   5.644  16.127  0.00  0.00    +0.000 A 
ATOM     21  N   UNL     1       5.684   6.667  15.914  0.00  0.00    +0.000 N 
ATOM     22  C   UNL     1       6.551   6.738  16.972  0.00  0.00    +0.000 A 
ATOM     23  C   UNL     1       7.389   7.794  17.350  0.00  0.00    +0.000 A 
ATOM     24  C   UNL     1       8.194   7.597  18.468  0.00  0.00    +0.000 A 
ATOM     25  C   UNL     1       8.230   6.365  19.102  0.00  0.00    +0.000 A 
ATOM     26  C   UNL     1       7.415   5.291  18.678  0.00  0.00    +0.000 A 
ATOM     27  C   UNL     1       6.493   5.499  17.626  0.00  0.00    +0.000 A 
ATOM     28  H   UNL     1       5.645   7.322  15.143  0.00  0.00    +0.000 HD
ENDBRANCH  18  19
ENDBRANCH  17  18
ENDBRANCH   3  17
TORSDOF 8
ENDMDL
MODEL 3
REMARK VINA RESULT:      -7.9      5.781      8.433
REMARK  Name = 
REMARK  9 active torsions:
REMARK  status: ('A' for Active; 'I' for Inactive)
REMARK    1  A    between atoms: C_1  and  O_2
REMARK    2  A    between atoms: O_2  and  C_3
REMARK    3  A    between atoms: C_6  and  C_7
REMARK    4  A    between atoms: C_7  and  C_9
REMARK    5  A    between atoms: C_9  and  C_10
REMARK    6  A    between atoms: C_10  and  C_11
REMARK    7  A    between atoms: N_13  and  C_14
REMARK    8  A    between atoms: C_14  and  C_15
REMARK    9  A    between atoms: C_15  and  C_16
REMARK                            x       y       z     vdW  Elec       q    Type
REMARK                         _______ _______ _______ _____ _____    ______ ____
ROOT
ATOM      1  C   UNL     1       2.862   2.010  18.600  0.00  0.00    +0.000 C 
ATOM      2  O   UNL     1       3.729   1.155  18.525  0.00  0.00    +0.000 OA
ATOM      3  N   UNL     1       2.693   3.044  17.690  0.00  0.00    +0.000 N 
ATOM      4  H   UNL     1       1.874   3.638  17.755  0.00  0.00    +0.000 HD
ENDROOT
BRANCH   1   5
ATOM      5  C   UNL     1       1.856   2.104  19.747  0.00  0.00    +0.000 C 
BRANCH   5   6
ATOM      6  C   UNL     1       1.053   3.408  19.778  0.00  0.00    +0.000 C 
BRANCH   6   7
ATOM      7  C   UNL     1       1.785   4.512  20.554  0.00  0.00    +0.000 C 
ATOM      8  O   UNL     1       2.332   4.270  21.632  0.00  0.00    +0.000 OA
BRANCH   7  12
ATOM      9  C   UNL     1       1.877   8.592  19.097  0.00  0.00    +0.000 A 
ATOM     10  C   UNL     1       1.427   8.284  20.385  0.00  0.00    +0.000 A 
ATOM     11  C   UNL     1       1.407   6.958  20.844  0.00  0.00    +0.000 A 
ATOM     12  C   UNL     1       1.825   5.907  20.015  0.00  0.00    +0.000 A 
ATOM     13  C   UNL     1       2.258   6.213  18.716  0.00  0.00    +0.000 A 
ATOM     14  C   UNL     1       2.284   7.552  18.267  0.00  0.00    +0.000 A 
BRANCH   9  16
ATOM     15  C   UNL     1       0.538  10.521  18.722  0.00  0.00    +0.000 C 
ATOM     16  O   UNL     1       1.826   9.916  18.767  0.00  0.00    +0.000 OA
ENDBRANCH   9  16
ENDBRANCH   7  12
ENDBRANCH   6   7
ENDBRANCH   5   6
ENDBRANCH   1   5
BRANCH   3  17
ATOM     17  C   UNL     1       3.609   3.323  16.599  0.00  0.00    +0.000 C 
BRANCH  17  18
ATOM     18  C   UNL     1       4.663   4.384  16.879  0.00  0.00    +0.000 C 
BRANCH  18  19
ATOM     19  C   UNL     1       5.809   4.585  15.929  0.00  0.00    +0.000 A 
ATOM     20  C   UNL     1       6.975   5.213  16.345  0.00  0.00    +0.000 A 
ATOM     21  N   UNL     1       7.584   5.705  15.235  0.00  0.00    +0.000 N 
ATOM     22  C   UNL     1       7.180   4.975  14.149  0.00  0.00    +0.000 A 
ATOM     23  C   UNL     1       7.762   4.896  12.879  0.00  0.00    +0.000 A 
ATOM     24  C   UNL     1       7.132   4.085  11.940  0.00  0.00    +0.000 A 
ATOM     25  C   UNL     1       5.924   3.473  12.235  0.00  0.00    +0.000 A 
ATOM     26  C   UNL     1       5.321   3.602  13.507  0.00  0.00    +0.000 A 
ATOM     27  C   UNL     1       6.000   4.314  14.522  0.00  0.00    +0.000 A 
ATOM     28  H   UNL     1       8.285   6.436  15.221  0.00  0.00    +0.000 HD
ENDBRANCH  18  19
ENDBRANCH  17  18
ENDBRANCH   3  17
TORSDOF 8
ENDMDL
MODEL 4
REMARK VINA RESULT:      -7.9      5.304      7.327
REMARK  Name = 
REMARK  9 active torsions:
REMARK  status: ('A' for Active; 'I' for Inactive)
REMARK    1  A    between atoms: C_1  and  O_2
REMARK    2  A    between atoms: O_2  and  C_3
REMARK    3  A    between atoms: C_6  and  C_7
REMARK    4  A    between atoms: C_7  and  C_9
REMARK    5  A    between atoms: C_9  and  C_10
REMARK    6  A    between atoms: C_10  and  C_11
REMARK    7  A    between atoms: N_13  and  C_14
REMARK    8  A    between atoms: C_14  and  C_15
REMARK    9  A    between atoms: C_15  and  C_16
REMARK                            x       y       z     vdW  Elec       q    Type
REMARK                         _______ _______ _______ _____ _____    ______ ____
ROOT
ATOM      1  C   UNL     1       4.918   6.666  16.792  0.00  0.00    +0.000 C 
ATOM      2  O   UNL     1       5.081   6.757  15.587  0.00  0.00    +0.000 OA
ATOM      3  N   UNL     1       5.267   5.559  17.554  0.00  0.00    +0.000 N 
ATOM      4  H   UNL     1       5.214   5.612  18.565  0.00  0.00    +0.000 HD
ENDROOT
BRANCH   1   5
ATOM      5  C   UNL     1       4.249   7.743  17.646  0.00  0.00    +0.000 C 
BRANCH   5   6
ATOM      6  C   UNL     1       2.789   7.450  18.005  0.00  0.00    +0.000 C 
BRANCH   6   7
ATOM      7  C   UNL     1       1.984   8.739  18.224  0.00  0.00    +0.000 C 
ATOM      8  O   UNL     1       1.910   9.595  17.339  0.00  0.00    +0.000 OA
BRANCH   7  12
ATOM      9  C   UNL     1      -0.082   9.515  21.953  0.00  0.00    +0.000 A 
ATOM     10  C   UNL     1      -0.286  10.313  20.822  0.00  0.00    +0.000 A 
ATOM     11  C   UNL     1       0.387  10.046  19.620  0.00  0.00    +0.000 A 
ATOM     12  C   UNL     1       1.294   8.980  19.528  0.00  0.00    +0.000 A 
ATOM     13  C   UNL     1       1.514   8.191  20.668  0.00  0.00    +0.000 A 
ATOM     14  C   UNL     1       0.823   8.462  21.870  0.00  0.00    +0.000 A 
BRANCH   9  16
ATOM     15  C   UNL     1      -1.341  11.203  23.057  0.00  0.00    +0.000 C 
ATOM     16  O   UNL     1      -0.782   9.893  23.062  0.00  0.00    +0.000 OA
ENDBRANCH   9  16
ENDBRANCH   7  12
ENDBRANCH   6   7
ENDBRANCH   5   6
ENDBRANCH   1   5
BRANCH   3  17
ATOM     17  C   UNL     1       5.751   4.309  16.995  0.00  0.00    +0.000 C 
BRANCH  17  18
ATOM     18  C   UNL     1       4.764   3.154  17.014  0.00  0.00    +0.000 C 
BRANCH  18  19
ATOM     19  C   UNL     1       3.431   3.303  17.692  0.00  0.00    +0.000 A 
ATOM     20  C   UNL     1       2.309   3.696  16.974  0.00  0.00    +0.000 A 
ATOM     21  N   UNL     1       1.431   4.229  17.863  0.00  0.00    +0.000 N 
ATOM     22  C   UNL     1       1.688   3.709  19.104  0.00  0.00    +0.000 A 
ATOM     23  C   UNL     1       0.870   3.707  20.240  0.00  0.00    +0.000 A 
ATOM     24  C   UNL     1       1.386   3.122  21.392  0.00  0.00    +0.000 A 
ATOM     25  C   UNL     1       2.693   2.662  21.425  0.00  0.00    +0.000 A 
ATOM     26  C   UNL     1       3.525   2.716  20.284  0.00  0.00    +0.000 A 
ATOM     27  C   UNL     1       2.989   3.187  19.062  0.00  0.00    +0.000 A 
ATOM     28  H   UNL     1       0.661   4.844  17.634  0.00  0.00    +0.000 HD
ENDBRANCH  18  19
ENDBRANCH  17  18
ENDBRANCH   3  17
TORSDOF 8
ENDMDL
MODEL 5
REMARK VINA RESULT:      -7.8      5.866      8.169
REMARK  Name = 
REMARK  9 active torsions:
REMARK  status: ('A' for Active; 'I' for Inactive)
REMARK    1  A    between atoms: C_1  and  O_2
REMARK    2  A    between atoms: O_2  and  C_3
REMARK    3  A    between atoms: C_6  and  C_7
REMARK    4  A    between atoms: C_7  and  C_9
REMARK    5  A    between atoms: C_9  and  C_10
REMARK    6  A    between atoms: C_10  and  C_11
REMARK    7  A    between atoms: N_13  and  C_14
REMARK    8  A    between atoms: C_14  and  C_15
REMARK    9  A    between atoms: C_15  and  C_16
REMARK                            x       y       z     vdW  Elec       q    Type
REMARK                         _______ _______ _______ _____ _____    ______ ____
ROOT
ATOM      1  C   UNL     1       2.525   3.173  18.865  0.00  0.00    +0.000 C 
ATOM      2  O   UNL     1       3.263   2.224  19.075  0.00  0.00    +0.000 OA
ATOM      3  N   UNL     1       2.489   3.898  17.682  0.00  0.00    +0.000 N 
ATOM      4  H   UNL     1       1.761   4.590  17.543  0.00  0.00    +0.000 HD
ENDROOT
BRANCH   1   5
ATOM      5  C   UNL     1       1.561   3.748  19.903  0.00  0.00    +0.000 C 
BRANCH   5   6
ATOM      6  C   UNL     1       2.168   4.830  20.801  0.00  0.00    +0.000 C 
BRANCH   6   7
ATOM      7  C   UNL     1       2.980   5.853  19.993  0.00  0.00    +0.000 C 
ATOM      8  O   UNL     1       4.166   5.648  19.726  0.00  0.00    +0.000 OA
BRANCH   7  12
ATOM      9  C   UNL     1       1.109   9.568  18.780  0.00  0.00    +0.000 A 
ATOM     10  C   UNL     1       1.075   9.130  20.108  0.00  0.00    +0.000 A 
ATOM     11  C   UNL     1       1.690   7.927  20.486  0.00  0.00    +0.000 A 
ATOM     12  C   UNL     1       2.341   7.126  19.537  0.00  0.00    +0.000 A 
ATOM     13  C   UNL     1       2.359   7.554  18.201  0.00  0.00    +0.000 A 
ATOM     14  C   UNL     1       1.746   8.772  17.832  0.00  0.00    +0.000 A 
BRANCH   9  16
ATOM     15  C   UNL     1      -0.947  10.668  18.314  0.00  0.00    +0.000 C 
ATOM     16  O   UNL     1       0.457  10.743  18.540  0.00  0.00    +0.000 OA
ENDBRANCH   9  16
ENDBRANCH   7  12
ENDBRANCH   6   7
ENDBRANCH   5   6
ENDBRANCH   1   5
BRANCH   3  17
ATOM     17  C   UNL     1       3.418   3.705  16.583  0.00  0.00    +0.000 C 
BRANCH  17  18
ATOM     18  C   UNL     1       4.885   3.605  16.971  0.00  0.00    +0.000 C 
BRANCH  18  19
ATOM     19  C   UNL     1       5.953   4.104  16.040  0.00  0.00    +0.000 A 
ATOM     20  C   UNL     1       7.037   4.824  16.523  0.00  0.00    +0.000 A 
ATOM     21  N   UNL     1       7.528   5.554  15.488  0.00  0.00    +0.000 N 
ATOM     22  C   UNL     1       7.184   4.941  14.312  0.00  0.00    +0.000 A 
ATOM     23  C   UNL     1       7.720   5.132  13.034  0.00  0.00    +0.000 A 
ATOM     24  C   UNL     1       7.170   4.385  11.996  0.00  0.00    +0.000 A 
ATOM     25  C   UNL     1       6.070   3.572  12.220  0.00  0.00    +0.000 A 
ATOM     26  C   UNL     1       5.507   3.426  13.508  0.00  0.00    +0.000 A 
ATOM     27  C   UNL     1       6.122   4.072  14.605  0.00  0.00    +0.000 A 
ATOM     28  H   UNL     1       8.120   6.371  15.571  0.00  0.00    +0.000 HD
ENDBRANCH  18  19
ENDBRANCH  17  18
ENDBRANCH   3  17
TORSDOF 8
ENDMDL
MODEL 6
REMARK VINA RESULT:      -7.7      1.520      1.780
REMARK  Name = 
REMARK  9 active torsions:
REMARK  status: ('A' for Active; 'I' for Inactive)
REMARK    1  A    between atoms: C_1  and  O_2
REMARK    2  A    between atoms: O_2  and  C_3
REMARK    3  A    between atoms: C_6  and  C_7
REMARK    4  A    between atoms: C_7  and  C_9
REMARK    5  A    between atoms: C_9  and  C_10
REMARK    6  A    between atoms: C_10  and  C_11
REMARK    7  A    between atoms: N_13  and  C_14
REMARK    8  A    between atoms: C_14  and  C_15
REMARK    9  A    between atoms: C_15  and  C_16
REMARK                            x       y       z     vdW  Elec       q    Type
REMARK                         _______ _______ _______ _____ _____    ______ ____
ROOT
ATOM      1  C   UNL     1       6.508   6.341  18.038  0.00  0.00    +0.000 C 
ATOM      2  O   UNL     1       6.055   5.582  18.879  0.00  0.00    +0.000 OA
ATOM      3  N   UNL     1       5.765   6.927  17.023  0.00  0.00    +0.000 N 
ATOM      4  H   UNL     1       6.189   7.643  16.443  0.00  0.00    +0.000 HD
ENDROOT
BRANCH   1   5
ATOM      5  C   UNL     1       7.986   6.721  17.940  0.00  0.00    +0.000 C 
BRANCH   5   6
ATOM      6  C   UNL     1       8.410   7.858  18.876  0.00  0.00    +0.000 C 
BRANCH   6   7
ATOM      7  C   UNL     1       8.338   9.226  18.182  0.00  0.00    +0.000 C 
ATOM      8  O   UNL     1       7.567   9.415  17.239  0.00  0.00    +0.000 OA
BRANCH   7  12
ATOM      9  C   UNL     1      10.878  12.437  19.600  0.00  0.00    +0.000 A 
ATOM     10  C   UNL     1      10.060  11.711  20.471  0.00  0.00    +0.000 A 
ATOM     11  C   UNL     1       9.247  10.670  19.997  0.00  0.00    +0.000 A 
ATOM     12  C   UNL     1       9.223  10.343  18.634  0.00  0.00    +0.000 A 
ATOM     13  C   UNL     1      10.027  11.085  17.756  0.00  0.00    +0.000 A 
ATOM     14  C   UNL     1      10.851  12.123  18.244  0.00  0.00    +0.000 A 
BRANCH   9  16
ATOM     15  C   UNL     1      10.873  14.511  20.764  0.00  0.00    +0.000 C 
ATOM     16  O   UNL     1      11.604  13.435  20.183  0.00  0.00    +0.000 OA
ENDBRANCH   9  16
ENDBRANCH   7  12
ENDBRANCH   6   7
ENDBRANCH   5   6
ENDBRANCH   1   5
BRANCH   3  17
ATOM     17  C   UNL     1       4.375   6.611  16.747  0.00  0.00    +0.000 C 
BRANCH  17  18
ATOM     18  C   UNL     1       3.353   7.319  17.622  0.00  0.00    +0.000 C 
BRANCH  18  19
ATOM     19  C   UNL     1       2.607   6.563  18.684  0.00  0.00    +0.000 A 
ATOM     20  C   UNL     1       2.319   7.153  19.907  0.00  0.00    +0.000 A 
ATOM     21  N   UNL     1       2.129   6.150  20.802  0.00  0.00    +0.000 N 
ATOM     22  C   UNL     1       1.746   5.021  20.126  0.00  0.00    +0.000 A 
ATOM     23  C   UNL     1       1.142   3.862  20.626  0.00  0.00    +0.000 A 
ATOM     24  C   UNL     1       0.870   2.845  19.717  0.00  0.00    +0.000 A 
ATOM     25  C   UNL     1       1.283   2.949  18.398  0.00  0.00    +0.000 A 
ATOM     26  C   UNL     1       1.938   4.106  17.918  0.00  0.00    +0.000 A 
ATOM     27  C   UNL     1       2.113   5.209  18.786  0.00  0.00    +0.000 A 
ATOM     28  H   UNL     1       2.180   6.240  21.809  0.00  0.00    +0.000 HD
ENDBRANCH  18  19
ENDBRANCH  17  18
ENDBRANCH   3  17
TORSDOF 8
ENDMDL
MODEL 7
REMARK VINA RESULT:      -7.7      4.659      7.851
REMARK  Name = 
REMARK  9 active torsions:
REMARK  status: ('A' for Active; 'I' for Inactive)
REMARK    1  A    between atoms: C_1  and  O_2
REMARK    2  A    between atoms: O_2  and  C_3
REMARK    3  A    between atoms: C_6  and  C_7
REMARK    4  A    between atoms: C_7  and  C_9
REMARK    5  A    between atoms: C_9  and  C_10
REMARK    6  A    between atoms: C_10  and  C_11
REMARK    7  A    between atoms: N_13  and  C_14
REMARK    8  A    between atoms: C_14  and  C_15
REMARK    9  A    between atoms: C_15  and  C_16
REMARK                            x       y       z     vdW  Elec       q    Type
REMARK                         _______ _______ _______ _____ _____    ______ ____
ROOT
ATOM      1  C   UNL     1       2.559   3.348  19.778  0.00  0.00    +0.000 C 
ATOM      2  O   UNL     1       3.158   2.674  20.599  0.00  0.00    +0.000 OA
ATOM      3  N   UNL     1       2.850   3.382  18.422  0.00  0.00    +0.000 N 
ATOM      4  H   UNL     1       2.226   3.871  17.789  0.00  0.00    +0.000 HD
ENDROOT
BRANCH   1   5
ATOM      5  C   UNL     1       1.423   4.308  20.130  0.00  0.00    +0.000 C 
BRANCH   5   6
ATOM      6  C   UNL     1       1.879   5.617  20.783  0.00  0.00    +0.000 C 
BRANCH   6   7
ATOM      7  C   UNL     1       2.406   6.619  19.746  0.00  0.00    +0.000 C 
ATOM      8  O   UNL     1       3.340   6.322  18.998  0.00  0.00    +0.000 OA
BRANCH   7  12
ATOM      9  C   UNL     1       0.630  10.568  19.564  0.00  0.00    +0.000 A 
ATOM     10  C   UNL     1       0.615   9.811  20.741  0.00  0.00    +0.000 A 
ATOM     11  C   UNL     1       1.199   8.536  20.784  0.00  0.00    +0.000 A 
ATOM     12  C   UNL     1       1.798   7.982  19.644  0.00  0.00    +0.000 A 
ATOM     13  C   UNL     1       1.796   8.732  18.459  0.00  0.00    +0.000 A 
ATOM     14  C   UNL     1       1.216  10.020  18.427  0.00  0.00    +0.000 A 
BRANCH   9  16
ATOM     15  C   UNL     1      -0.817  12.162  18.555  0.00  0.00    +0.000 C 
ATOM     16  O   UNL     1       0.012  11.782  19.649  0.00  0.00    +0.000 OA
ENDBRANCH   9  16
ENDBRANCH   7  12
ENDBRANCH   6   7
ENDBRANCH   5   6
ENDBRANCH   1   5
BRANCH   3  17
ATOM     17  C   UNL     1       3.993   2.720  17.820  0.00  0.00    +0.000 C 
BRANCH  17  18
ATOM     18  C   UNL     1       4.566   3.391  16.582  0.00  0.00    +0.000 C 
BRANCH  18  19
ATOM     19  C   UNL     1       5.221   4.739  16.683  0.00  0.00    +0.000 A 
ATOM     20  C   UNL     1       4.884   5.760  15.805  0.00  0.00    +0.000 A 
ATOM     21  N   UNL     1       5.929   6.628  15.779  0.00  0.00    +0.000 N 
ATOM     22  C   UNL     1       6.628   6.513  16.952  0.00  0.00    +0.000 A 
ATOM     23  C   UNL     1       7.560   7.397  17.508  0.00  0.00    +0.000 A 
ATOM     24  C   UNL     1       8.145   7.027  18.715  0.00  0.00    +0.000 A 
ATOM     25  C   UNL     1       7.884   5.785  19.273  0.00  0.00    +0.000 A 
ATOM     26  C   UNL     1       6.978   4.880  18.674  0.00  0.00    +0.000 A 
ATOM     27  C   UNL     1       6.271   5.279  17.516  0.00  0.00    +0.000 A 
ATOM     28  H   UNL     1       6.114   7.308  15.052  0.00  0.00    +0.000 HD
ENDBRANCH  18  19
ENDBRANCH  17  18
ENDBRANCH   3  17
TORSDOF 8
ENDMDL
MODEL 8
REMARK VINA RESULT:      -7.7      6.028      8.725
REMARK  Name = 
REMARK  9 active torsions:
REMARK  status: ('A' for Active; 'I' for Inactive)
REMARK    1  A    between atoms: C_1  and  O_2
REMARK    2  A    between atoms: O_2  and  C_3
REMARK    3  A    between atoms: C_6  and  C_7
REMARK    4  A    between atoms: C_7  and  C_9
REMARK    5  A    between atoms: C_9  and  C_10
REMARK    6  A    between atoms: C_10  and  C_11
REMARK    7  A    between atoms: N_13  and  C_14
REMARK    8  A    between atoms: C_14  and  C_15
REMARK    9  A    between atoms: C_15  and  C_16
REMARK                            x       y       z     vdW  Elec       q    Type
REMARK                         _______ _______ _______ _____ _____    ______ ____
ROOT
ATOM      1  C   UNL     1       1.806   9.189  18.389  0.00  0.00    +0.000 C 
ATOM      2  O   UNL     1       2.003   9.898  17.415  0.00  0.00    +0.000 OA
ATOM      3  N   UNL     1       1.120   9.587  19.528  0.00  0.00    +0.000 N 
ATOM      4  H   UNL     1       0.892   8.900  20.238  0.00  0.00    +0.000 HD
ENDROOT
BRANCH   1   5
ATOM      5  C   UNL     1       2.339   7.763  18.526  0.00  0.00    +0.000 C 
BRANCH   5   6
ATOM      6  C   UNL     1       2.194   7.166  19.929  0.00  0.00    +0.000 C 
BRANCH   6   7
ATOM      7  C   UNL     1       2.528   5.667  19.950  0.00  0.00    +0.000 C 
ATOM      8  O   UNL     1       2.148   4.948  20.876  0.00  0.00    +0.000 OA
BRANCH   7  12
ATOM      9  C   UNL     1       4.974   3.959  16.808  0.00  0.00    +0.000 A 
ATOM     10  C   UNL     1       5.521   4.788  17.793  0.00  0.00    +0.000 A 
ATOM     11  C   UNL     1       4.716   5.330  18.806  0.00  0.00    +0.000 A 
ATOM     12  C   UNL     1       3.339   5.065  18.848  0.00  0.00    +0.000 A 
ATOM     13  C   UNL     1       2.787   4.249  17.849  0.00  0.00    +0.000 A 
ATOM     14  C   UNL     1       3.607   3.699  16.839  0.00  0.00    +0.000 A 
BRANCH   9  16
ATOM     15  C   UNL     1       6.946   4.376  15.546  0.00  0.00    +0.000 C 
ATOM     16  O   UNL     1       5.860   3.513  15.869  0.00  0.00    +0.000 OA
ENDBRANCH   9  16
ENDBRANCH   7  12
ENDBRANCH   6   7
ENDBRANCH   5   6
ENDBRANCH   1   5
BRANCH   3  17
ATOM     17  C   UNL     1       0.658  10.943  19.766  0.00  0.00    +0.000 C 
BRANCH  17  18
ATOM     18  C   UNL     1      -0.764  11.071  20.287  0.00  0.00    +0.000 C 
BRANCH  18  19
ATOM     19  C   UNL     1      -1.883  11.444  19.357  0.00  0.00    +0.000 A 
ATOM     20  C   UNL     1      -2.796  12.432  19.702  0.00  0.00    +0.000 A 
ATOM     21  N   UNL     1      -3.923  12.209  18.977  0.00  0.00    +0.000 N 
ATOM     22  C   UNL     1      -3.590  11.513  17.845  0.00  0.00    +0.000 A 
ATOM     23  C   UNL     1      -4.332  11.340  16.672  0.00  0.00    +0.000 A 
ATOM     24  C   UNL     1      -3.763  10.563  15.669  0.00  0.00    +0.000 A 
ATOM     25  C   UNL     1      -2.560   9.909  15.881  0.00  0.00    +0.000 A 
ATOM     26  C   UNL     1      -1.844  10.052  17.091  0.00  0.00    +0.000 A 
ATOM     27  C   UNL     1      -2.332  10.937  18.080  0.00  0.00    +0.000 A 
ATOM     28  H   UNL     1      -4.844  12.568  19.194  0.00  0.00    +0.000 HD
ENDBRANCH  18  19
ENDBRANCH  17  18
ENDBRANCH   3  17
TORSDOF 8
ENDMDL
MODEL 9
REMARK VINA RESULT:      -7.7      5.396      7.362
REMARK  Name = 
REMARK  9 active torsions:
REMARK  status: ('A' for Active; 'I' for Inactive)
REMARK    1  A    between atoms: C_1  and  O_2
REMARK    2  A    between atoms: O_2  and  C_3
REMARK    3  A    between atoms: C_6  and  C_7
REMARK    4  A    between atoms: C_7  and  C_9
REMARK    5  A    between atoms: C_9  and  C_10
REMARK    6  A    between atoms: C_10  and  C_11
REMARK    7  A    between atoms: N_13  and  C_14
REMARK    8  A    between atoms: C_14  and  C_15
REMARK    9  A    between atoms: C_15  and  C_16
REMARK                            x       y       z     vdW  Elec       q    Type
REMARK                         _______ _______ _______ _____ _____    ______ ____
ROOT
ATOM      1  C   UNL     1       4.769   6.612  17.199  0.00  0.00    +0.000 C 
ATOM      2  O   UNL     1       4.783   6.584  15.979  0.00  0.00    +0.000 OA
ATOM      3  N   UNL     1       5.311   5.629  18.016  0.00  0.00    +0.000 N 
ATOM      4  H   UNL     1       5.370   5.789  19.016  0.00  0.00    +0.000 HD
ENDROOT
BRANCH   1   5
ATOM      5  C   UNL     1       4.098   7.714  18.019  0.00  0.00    +0.000 C 
BRANCH   5   6
ATOM      6  C   UNL     1       2.624   7.453  18.343  0.00  0.00    +0.000 C 
BRANCH   6   7
ATOM      7  C   UNL     1       1.796   8.746  18.317  0.00  0.00    +0.000 C 
ATOM      8  O   UNL     1       1.657   9.386  17.272  0.00  0.00    +0.000 OA
BRANCH   7  12
ATOM      9  C   UNL     1       0.012  10.142  22.010  0.00  0.00    +0.000 A 
ATOM     10  C   UNL     1       0.736   8.947  21.953  0.00  0.00    +0.000 A 
ATOM     11  C   UNL     1       1.312   8.511  20.749  0.00  0.00    +0.000 A 
ATOM     12  C   UNL     1       1.162   9.256  19.571  0.00  0.00    +0.000 A 
ATOM     13  C   UNL     1       0.419  10.445  19.624  0.00  0.00    +0.000 A 
ATOM     14  C   UNL     1      -0.148  10.881  20.842  0.00  0.00    +0.000 A 
BRANCH   9  16
ATOM     15  C   UNL     1      -1.621  11.337  23.259  0.00  0.00    +0.000 C 
ATOM     16  O   UNL     1      -0.513  10.443  23.234  0.00  0.00    +0.000 OA
ENDBRANCH   9  16
ENDBRANCH   7  12
ENDBRANCH   6   7
ENDBRANCH   5   6
ENDBRANCH   1   5
BRANCH   3  17
ATOM     17  C   UNL     1       5.851   4.373  17.528  0.00  0.00    +0.000 C 
BRANCH  17  18
ATOM     18  C   UNL     1       4.824   3.304  17.189  0.00  0.00    +0.000 C 
BRANCH  18  19
ATOM     19  C   UNL     1       3.462   3.331  17.820  0.00  0.00    +0.000 A 
ATOM     20  C   UNL     1       2.337   3.651  17.071  0.00  0.00    +0.000 A 
ATOM     21  N   UNL     1       1.389   4.091  17.939  0.00  0.00    +0.000 N 
ATOM     22  C   UNL     1       1.643   3.562  19.177  0.00  0.00    +0.000 A 
ATOM     23  C   UNL     1       0.790   3.467  20.282  0.00  0.00    +0.000 A 
ATOM     24  C   UNL     1       1.310   2.896  21.439  0.00  0.00    +0.000 A 
ATOM     25  C   UNL     1       2.648   2.540  21.509  0.00  0.00    +0.000 A 
ATOM     26  C   UNL     1       3.512   2.688  20.400  0.00  0.00    +0.000 A 
ATOM     27  C   UNL     1       2.983   3.146  19.171  0.00  0.00    +0.000 A 
ATOM     28  H   UNL     1       0.580   4.649  17.696  0.00  0.00    +0.000 HD
ENDBRANCH  18  19
ENDBRANCH  17  18
ENDBRANCH   3  17
TORSDOF 8
ENDMDL
