MODEL 1
REMARK VINA RESULT:      -7.3      0.000      0.000
REMARK  Name = 
REMARK  8 active torsions:
REMARK  status: ('A' for Active; 'I' for Inactive)
REMARK    1  A    between atoms: C_1  and  C_2
REMARK    2  A    between atoms: C_2  and  C_3
REMARK    3  A    between atoms: C_2  and  C_4
REMARK    4  A    between atoms: C_2  and  N_5
REMARK    5  A    between atoms: C_9  and  N_10
REMARK    6  A    between atoms: C_11  and  C_13
REMARK    7  A    between atoms: C_13  and  O_14
REMARK    8  A    between atoms: O_14  and  C_15
REMARK                            x       y       z     vdW  Elec       q    Type
REMARK                         _______ _______ _______ _____ _____    ______ ____
ROOT
ATOM      1  N   UNL     1       3.009   6.202  20.095  0.00  0.00    +0.000 N 
ATOM      2  C   UNL     1       2.190   7.369  19.812  0.00  0.00    +0.000 C 
ATOM      3  O   UNL     1       1.814   7.619  18.681  0.00  0.00    +0.000 OA
ATOM      4  H   UNL     1       3.342   6.086  21.039  0.00  0.00    +0.000 HD
ENDROOT
BRANCH   1   9
ATOM      5  N   UNL     1       3.042   3.924  19.036  0.00  0.00    +0.000 N 
ATOM      6  N   UNL     1       3.698   3.279  18.033  0.00  0.00    +0.000 NA
ATOM      7  C   UNL     1       4.384   4.233  17.427  0.00  0.00    +0.000 A 
ATOM      8  C   UNL     1       4.243   5.482  18.035  0.00  0.00    +0.000 A 
ATOM      9  C   UNL     1       3.417   5.276  19.128  0.00  0.00    +0.000 A 
ATOM     10  C   UNL     1       4.946   6.591  17.350  0.00  0.00    +0.000 C 
ATOM     11  S   UNL     1       5.518   5.868  15.738  0.00  0.00    +0.000 S 
ATOM     12  C   UNL     1       5.208   4.106  16.206  0.00  0.00    +0.000 C 
BRANCH   5  14
ATOM     13  C   UNL     1       1.763   1.788  19.107  0.00  0.00    +0.000 C 
ATOM     14  C   UNL     1       2.120   3.106  19.857  0.00  0.00    +0.000 C 
ATOM     15  C   UNL     1       0.788   3.828  20.137  0.00  0.00    +0.000 C 
ATOM     16  C   UNL     1       2.756   2.717  21.203  0.00  0.00    +0.000 C 
ENDBRANCH   5  14
ENDBRANCH   1   9
BRANCH   2  17
ATOM     17  C   UNL     1       1.855   8.247  21.006  0.00  0.00    +0.000 C 
BRANCH  17  18
ATOM     18  O   UNL     1       0.439   8.263  21.090  0.00  0.00    +0.000 OA
BRANCH  18  19
ATOM     19  C   UNL     1      -0.177   9.442  21.381  0.00  0.00    +0.000 A 
ATOM     20  C   UNL     1      -0.483  10.470  20.486  0.00  0.00    +0.000 A 
ATOM     21  C   UNL     1      -1.102  11.639  20.952  0.00  0.00    +0.000 A 
ATOM     22  C   UNL     1      -1.417  11.775  22.304  0.00  0.00    +0.000 A 
ATOM     23 CL   UNL     1      -2.181  13.210  22.867  0.00  0.00    +0.000 Cl
ATOM     24  C   UNL     1      -1.124  10.751  23.198  0.00  0.00    +0.000 A 
ATOM     25  C   UNL     1      -0.506   9.591  22.734  0.00  0.00    +0.000 A 
ENDBRANCH  18  19
ENDBRANCH  17  18
ENDBRANCH   2  17
TORSDOF 5
ENDMDL
MODEL 2
REMARK VINA RESULT:      -7.3      0.460      1.385
REMARK  Name = 
REMARK  8 active torsions:
REMARK  status: ('A' for Active; 'I' for Inactive)
REMARK    1  A    between atoms: C_1  and  C_2
REMARK    2  A    between atoms: C_2  and  C_3
REMARK    3  A    between atoms: C_2  and  C_4
REMARK    4  A    between atoms: C_2  and  N_5
REMARK    5  A    between atoms: C_9  and  N_10
REMARK    6  A    between atoms: C_11  and  C_13
REMARK    7  A    between atoms: C_13  and  O_14
REMARK    8  A    between atoms: O_14  and  C_15
REMARK                            x       y       z     vdW  Elec       q    Type
REMARK                         _______ _______ _______ _____ _____    ______ ____
ROOT
ATOM      1  N   UNL     1       2.907   6.245  20.066  0.00  0.00    +0.000 N 
ATOM      2  C   UNL     1       2.111   7.419  19.753  0.00  0.00    +0.000 C 
ATOM      3  O   UNL     1       1.790   7.680  18.608  0.00  0.00    +0.000 OA
ATOM      4  H   UNL     1       3.195   6.121  21.024  0.00  0.00    +0.000 HD
ENDROOT
BRANCH   1   9
ATOM      5  N   UNL     1       3.007   3.963  19.021  0.00  0.00    +0.000 N 
ATOM      6  N   UNL     1       3.696   3.326  18.036  0.00  0.00    +0.000 NA
ATOM      7  C   UNL     1       4.377   4.289  17.440  0.00  0.00    +0.000 A 
ATOM      8  C   UNL     1       4.198   5.538  18.038  0.00  0.00    +0.000 A 
ATOM      9  C   UNL     1       3.354   5.322  19.114  0.00  0.00    +0.000 A 
ATOM     10  C   UNL     1       4.895   6.657  17.362  0.00  0.00    +0.000 C 
ATOM     11  S   UNL     1       5.515   5.938  15.766  0.00  0.00    +0.000 S 
ATOM     12  C   UNL     1       5.229   4.172  16.237  0.00  0.00    +0.000 C 
BRANCH   5  14
ATOM     13  C   UNL     1       2.757   2.739  21.176  0.00  0.00    +0.000 C 
ATOM     14  C   UNL     1       2.084   3.131  19.827  0.00  0.00    +0.000 C 
ATOM     15  C   UNL     1       1.715   1.812  19.119  0.00  0.00    +0.000 C 
ATOM     16  C   UNL     1       0.784   3.886  20.157  0.00  0.00    +0.000 C 
ENDBRANCH   5  14
ENDBRANCH   1   9
BRANCH   2  17
ATOM     17  C   UNL     1       1.726   8.293  20.935  0.00  0.00    +0.000 C 
BRANCH  17  18
ATOM     18  O   UNL     1       1.036   9.404  20.388  0.00  0.00    +0.000 OA
BRANCH  18  19
ATOM     19  C   UNL     1       0.166  10.083  21.187  0.00  0.00    +0.000 A 
ATOM     20  C   UNL     1      -0.135   9.803  22.522  0.00  0.00    +0.000 A 
ATOM     21  C   UNL     1      -1.078  10.587  23.203  0.00  0.00    +0.000 A 
ATOM     22  C   UNL     1      -1.711  11.646  22.553  0.00  0.00    +0.000 A 
ATOM     23 CL   UNL     1      -2.863  12.606  23.396  0.00  0.00    +0.000 Cl
ATOM     24  C   UNL     1      -1.409  11.934  21.226  0.00  0.00    +0.000 A 
ATOM     25  C   UNL     1      -0.473  11.153  20.550  0.00  0.00    +0.000 A 
ENDBRANCH  18  19
ENDBRANCH  17  18
ENDBRANCH   2  17
TORSDOF 5
ENDMDL
MODEL 3
REMARK VINA RESULT:      -7.2      0.613      1.086
REMARK  Name = 
REMARK  8 active torsions:
REMARK  status: ('A' for Active; 'I' for Inactive)
REMARK    1  A    between atoms: C_1  and  C_2
REMARK    2  A    between atoms: C_2  and  C_3
REMARK    3  A    between atoms: C_2  and  C_4
REMARK    4  A    between atoms: C_2  and  N_5
REMARK    5  A    between atoms: C_9  and  N_10
REMARK    6  A    between atoms: C_11  and  C_13
REMARK    7  A    between atoms: C_13  and  O_14
REMARK    8  A    between atoms: O_14  and  C_15
REMARK                            x       y       z     vdW  Elec       q    Type
REMARK                         _______ _______ _______ _____ _____    ______ ____
ROOT
ATOM      1  N   UNL     1       2.979   6.184  20.191  0.00  0.00    +0.000 N 
ATOM      2  C   UNL     1       2.199   7.333  19.763  0.00  0.00    +0.000 C 
ATOM      3  O   UNL     1       1.982   7.547  18.584  0.00  0.00    +0.000 OA
ATOM      4  H   UNL     1       3.179   6.098  21.176  0.00  0.00    +0.000 HD
ENDROOT
BRANCH   1   9
ATOM      5  N   UNL     1       3.174   3.881  19.208  0.00  0.00    +0.000 N 
ATOM      6  N   UNL     1       3.970   3.216  18.327  0.00  0.00    +0.000 NA
ATOM      7  C   UNL     1       4.733   4.159  17.802  0.00  0.00    +0.000 A 
ATOM      8  C   UNL     1       4.501   5.421  18.351  0.00  0.00    +0.000 A 
ATOM      9  C   UNL     1       3.527   5.237  19.318  0.00  0.00    +0.000 A 
ATOM     10  C   UNL     1       5.291   6.518  17.746  0.00  0.00    +0.000 C 
ATOM     11  S   UNL     1       6.093   5.759  16.252  0.00  0.00    +0.000 S 
ATOM     12  C   UNL     1       5.725   4.007  16.717  0.00  0.00    +0.000 C 
BRANCH   5  14
ATOM     13  C   UNL     1       2.636   2.715  21.343  0.00  0.00    +0.000 C 
ATOM     14  C   UNL     1       2.146   3.076  19.909  0.00  0.00    +0.000 C 
ATOM     15  C   UNL     1       1.859   1.742  19.193  0.00  0.00    +0.000 C 
ATOM     16  C   UNL     1       0.823   3.848  20.049  0.00  0.00    +0.000 C 
ENDBRANCH   5  14
ENDBRANCH   1   9
BRANCH   2  17
ATOM     17  C   UNL     1       1.693   8.239  20.872  0.00  0.00    +0.000 C 
BRANCH  17  18
ATOM     18  O   UNL     1       1.092   9.348  20.223  0.00  0.00    +0.000 OA
BRANCH  18  19
ATOM     19  C   UNL     1       0.214  10.113  20.930  0.00  0.00    +0.000 A 
ATOM     20  C   UNL     1      -0.396  11.295  20.504  0.00  0.00    +0.000 A 
ATOM     21  C   UNL     1      -1.263  11.981  21.367  0.00  0.00    +0.000 A 
ATOM     22  C   UNL     1      -1.521  11.485  22.644  0.00  0.00    +0.000 A 
ATOM     23 CL   UNL     1      -2.590  12.330  23.694  0.00  0.00    +0.000 Cl
ATOM     24  C   UNL     1      -0.924  10.303  23.070  0.00  0.00    +0.000 A 
ATOM     25  C   UNL     1      -0.060   9.623  22.213  0.00  0.00    +0.000 A 
ENDBRANCH  18  19
ENDBRANCH  17  18
ENDBRANCH   2  17
TORSDOF 5
ENDMDL
MODEL 4
REMARK VINA RESULT:      -7.2      2.844      4.288
REMARK  Name = 
REMARK  8 active torsions:
REMARK  status: ('A' for Active; 'I' for Inactive)
REMARK    1  A    between atoms: C_1  and  C_2
REMARK    2  A    between atoms: C_2  and  C_3
REMARK    3  A    between atoms: C_2  and  C_4
REMARK    4  A    between atoms: C_2  and  N_5
REMARK    5  A    between atoms: C_9  and  N_10
REMARK    6  A    between atoms: C_11  and  C_13
REMARK    7  A    between atoms: C_13  and  O_14
REMARK    8  A    between atoms: O_14  and  C_15
REMARK                            x       y       z     vdW  Elec       q    Type
REMARK                         _______ _______ _______ _____ _____    ______ ____
ROOT
ATOM      1  N   UNL     1       2.771   6.733  17.850  0.00  0.00    +0.000 N 
ATOM      2  C   UNL     1       2.269   7.824  18.669  0.00  0.00    +0.000 C 
ATOM      3  O   UNL     1       2.327   7.780  19.885  0.00  0.00    +0.000 OA
ATOM      4  H   UNL     1       2.634   6.800  16.853  0.00  0.00    +0.000 HD
ENDROOT
BRANCH   1   9
ATOM      5  N   UNL     1       4.633   5.060  18.050  0.00  0.00    +0.000 N 
ATOM      6  N   UNL     1       4.862   3.861  18.651  0.00  0.00    +0.000 NA
ATOM      7  C   UNL     1       3.805   3.677  19.422  0.00  0.00    +0.000 A 
ATOM      8  C   UNL     1       2.857   4.696  19.307  0.00  0.00    +0.000 A 
ATOM      9  C   UNL     1       3.362   5.573  18.362  0.00  0.00    +0.000 A 
ATOM     10  C   UNL     1       1.685   4.560  20.202  0.00  0.00    +0.000 C 
ATOM     11  S   UNL     1       2.124   3.171  21.354  0.00  0.00    +0.000 S 
ATOM     12  C   UNL     1       3.572   2.569  20.373  0.00  0.00    +0.000 C 
BRANCH   5  14
ATOM     13  C   UNL     1       6.983   4.694  17.310  0.00  0.00    +0.000 C 
ATOM     14  C   UNL     1       5.705   5.572  17.164  0.00  0.00    +0.000 C 
ATOM     15  C   UNL     1       6.119   7.014  17.518  0.00  0.00    +0.000 C 
ATOM     16  C   UNL     1       5.281   5.536  15.686  0.00  0.00    +0.000 C 
ENDBRANCH   5  14
ENDBRANCH   1   9
BRANCH   2  17
ATOM     17  C   UNL     1       1.665   8.995  17.914  0.00  0.00    +0.000 C 
BRANCH  17  18
ATOM     18  O   UNL     1       0.982   9.771  18.885  0.00  0.00    +0.000 OA
BRANCH  18  19
ATOM     19  C   UNL     1      -0.223  10.312  18.550  0.00  0.00    +0.000 A 
ATOM     20  C   UNL     1      -0.833  11.424  19.135  0.00  0.00    +0.000 A 
ATOM     21  C   UNL     1      -2.094  11.842  18.688  0.00  0.00    +0.000 A 
ATOM     22  C   UNL     1      -2.739  11.155  17.660  0.00  0.00    +0.000 A 
ATOM     23 CL   UNL     1      -4.284  11.678  17.115  0.00  0.00    +0.000 Cl
ATOM     24  C   UNL     1      -2.133  10.053  17.068  0.00  0.00    +0.000 A 
ATOM     25  C   UNL     1      -0.879   9.636  17.514  0.00  0.00    +0.000 A 
ENDBRANCH  18  19
ENDBRANCH  17  18
ENDBRANCH   2  17
TORSDOF 5
ENDMDL
MODEL 5
REMARK VINA RESULT:      -7.2      0.469      1.368
REMARK  Name = 
REMARK  8 active torsions:
REMARK  status: ('A' for Active; 'I' for Inactive)
REMARK    1  A    between atoms: C_1  and  C_2
REMARK    2  A    between atoms: C_2  and  C_3
REMARK    3  A    between atoms: C_2  and  C_4
REMARK    4  A    between atoms: C_2  and  N_5
REMARK    5  A    between atoms: C_9  and  N_10
REMARK    6  A    between atoms: C_11  and  C_13
REMARK    7  A    between atoms: C_13  and  O_14
REMARK    8  A    between atoms: O_14  and  C_15
REMARK                            x       y       z     vdW  Elec       q    Type
REMARK                         _______ _______ _______ _____ _____    ______ ____
ROOT
ATOM      1  N   UNL     1       2.953   6.215  20.051  0.00  0.00    +0.000 N 
ATOM      2  C   UNL     1       2.207   7.405  19.681  0.00  0.00    +0.000 C 
ATOM      3  O   UNL     1       1.947   7.653  18.518  0.00  0.00    +0.000 OA
ATOM      4  H   UNL     1       3.193   6.100  21.024  0.00  0.00    +0.000 HD
ENDROOT
BRANCH   1   9
ATOM      5  N   UNL     1       3.058   3.904  19.072  0.00  0.00    +0.000 N 
ATOM      6  N   UNL     1       3.767   3.234  18.124  0.00  0.00    +0.000 NA
ATOM      7  C   UNL     1       4.474   4.174  17.521  0.00  0.00    +0.000 A 
ATOM      8  C   UNL     1       4.292   5.440  18.080  0.00  0.00    +0.000 A 
ATOM      9  C   UNL     1       3.416   5.262  19.138  0.00  0.00    +0.000 A 
ATOM     10  C   UNL     1       5.019   6.533  17.394  0.00  0.00    +0.000 C 
ATOM     11  S   UNL     1       5.676   5.764  15.836  0.00  0.00    +0.000 S 
ATOM     12  C   UNL     1       5.358   4.015  16.346  0.00  0.00    +0.000 C 
BRANCH   5  14
ATOM     13  C   UNL     1       0.809   3.927  20.143  0.00  0.00    +0.000 C 
ATOM     14  C   UNL     1       2.103   3.104  19.874  0.00  0.00    +0.000 C 
ATOM     15  C   UNL     1       2.675   2.720  21.253  0.00  0.00    +0.000 C 
ATOM     16  C   UNL     1       1.692   1.815  19.142  0.00  0.00    +0.000 C 
ENDBRANCH   5  14
ENDBRANCH   1   9
BRANCH   2  17
ATOM     17  C   UNL     1       1.794   8.311  20.829  0.00  0.00    +0.000 C 
BRANCH  17  18
ATOM     18  O   UNL     1       0.627   8.987  20.389  0.00  0.00    +0.000 OA
BRANCH  18  19
ATOM     19  C   UNL     1       0.081   9.932  21.204  0.00  0.00    +0.000 A 
ATOM     20  C   UNL     1      -0.556   9.713  22.428  0.00  0.00    +0.000 A 
ATOM     21  C   UNL     1      -1.090  10.797  23.139  0.00  0.00    +0.000 A 
ATOM     22  C   UNL     1      -0.983  12.092  22.631  0.00  0.00    +0.000 A 
ATOM     23 CL   UNL     1      -1.636  13.417  23.511  0.00  0.00    +0.000 Cl
ATOM     24  C   UNL     1      -0.341  12.316  21.417  0.00  0.00    +0.000 A 
ATOM     25  C   UNL     1       0.187  11.237  20.710  0.00  0.00    +0.000 A 
ENDBRANCH  18  19
ENDBRANCH  17  18
ENDBRANCH   2  17
TORSDOF 5
ENDMDL
MODEL 6
REMARK VINA RESULT:      -7.2      2.621      4.059
REMARK  Name = 
REMARK  8 active torsions:
REMARK  status: ('A' for Active; 'I' for Inactive)
REMARK    1  A    between atoms: C_1  and  C_2
REMARK    2  A    between atoms: C_2  and  C_3
REMARK    3  A    between atoms: C_2  and  C_4
REMARK    4  A    between atoms: C_2  and  N_5
REMARK    5  A    between atoms: C_9  and  N_10
REMARK    6  A    between atoms: C_11  and  C_13
REMARK    7  A    between atoms: C_13  and  O_14
REMARK    8  A    between atoms: O_14  and  C_15
REMARK                            x       y       z     vdW  Elec       q    Type
REMARK                         _______ _______ _______ _____ _____    ______ ____
ROOT
ATOM      1  N   UNL     1       2.823   6.666  17.803  0.00  0.00    +0.000 N 
ATOM      2  C   UNL     1       2.320   7.788  18.577  0.00  0.00    +0.000 C 
ATOM      3  O   UNL     1       2.356   7.784  19.794  0.00  0.00    +0.000 OA
ATOM      4  H   UNL     1       2.704   6.702  16.802  0.00  0.00    +0.000 HD
ENDROOT
BRANCH   1   9
ATOM      5  N   UNL     1       4.662   4.981  18.092  0.00  0.00    +0.000 N 
ATOM      6  N   UNL     1       4.865   3.799  18.735  0.00  0.00    +0.000 NA
ATOM      7  C   UNL     1       3.791   3.650  19.491  0.00  0.00    +0.000 A 
ATOM      8  C   UNL     1       2.858   4.675  19.325  0.00  0.00    +0.000 A 
ATOM      9  C   UNL     1       3.391   5.517  18.363  0.00  0.00    +0.000 A 
ATOM     10  C   UNL     1       1.667   4.580  20.200  0.00  0.00    +0.000 C 
ATOM     11  S   UNL     1       2.067   3.224  21.404  0.00  0.00    +0.000 S 
ATOM     12  C   UNL     1       3.527   2.576  20.471  0.00  0.00    +0.000 C 
BRANCH   5  14
ATOM     13  C   UNL     1       7.067   4.669  17.523  0.00  0.00    +0.000 C 
ATOM     14  C   UNL     1       5.757   5.452  17.213  0.00  0.00    +0.000 C 
ATOM     15  C   UNL     1       6.076   6.945  17.424  0.00  0.00    +0.000 C 
ATOM     16  C   UNL     1       5.423   5.231  15.727  0.00  0.00    +0.000 C 
ENDBRANCH   5  14
ENDBRANCH   1   9
BRANCH   2  17
ATOM     17  C   UNL     1       1.743   8.941  17.774  0.00  0.00    +0.000 C 
BRANCH  17  18
ATOM     18  O   UNL     1       1.213   9.850  18.725  0.00  0.00    +0.000 OA
BRANCH  18  19
ATOM     19  C   UNL     1      -0.083  10.247  18.587  0.00  0.00    +0.000 A 
ATOM     20  C   UNL     1      -0.979   9.847  17.593  0.00  0.00    +0.000 A 
ATOM     21  C   UNL     1      -2.280  10.371  17.575  0.00  0.00    +0.000 A 
ATOM     22  C   UNL     1      -2.682  11.284  18.549  0.00  0.00    +0.000 A 
ATOM     23 CL   UNL     1      -4.281  11.918  18.524  0.00  0.00    +0.000 Cl
ATOM     24  C   UNL     1      -1.797  11.680  19.546  0.00  0.00    +0.000 A 
ATOM     25  C   UNL     1      -0.503  11.160  19.561  0.00  0.00    +0.000 A 
ENDBRANCH  18  19
ENDBRANCH  17  18
ENDBRANCH   2  17
TORSDOF 5
ENDMDL
MODEL 7
REMARK VINA RESULT:      -7.1      2.425      3.842
REMARK  Name = 
REMARK  8 active torsions:
REMARK  status: ('A' for Active; 'I' for Inactive)
REMARK    1  A    between atoms: C_1  and  C_2
REMARK    2  A    between atoms: C_2  and  C_3
REMARK    3  A    between atoms: C_2  and  C_4
REMARK    4  A    between atoms: C_2  and  N_5
REMARK    5  A    between atoms: C_9  and  N_10
REMARK    6  A    between atoms: C_11  and  C_13
REMARK    7  A    between atoms: C_13  and  O_14
REMARK    8  A    between atoms: O_14  and  C_15
REMARK                            x       y       z     vdW  Elec       q    Type
REMARK                         _______ _______ _______ _____ _____    ______ ____
ROOT
ATOM      1  N   UNL     1       3.352   6.710  17.491  0.00  0.00    +0.000 N 
ATOM      2  C   UNL     1       2.690   7.592  18.436  0.00  0.00    +0.000 C 
ATOM      3  O   UNL     1       2.365   7.204  19.543  0.00  0.00    +0.000 OA
ATOM      4  H   UNL     1       3.536   7.071  16.567  0.00  0.00    +0.000 HD
ENDROOT
BRANCH   1   9
ATOM      5  N   UNL     1       4.974   4.835  17.899  0.00  0.00    +0.000 N 
ATOM      6  N   UNL     1       4.945   3.484  18.061  0.00  0.00    +0.000 NA
ATOM      7  C   UNL     1       3.659   3.193  18.140  0.00  0.00    +0.000 A 
ATOM      8  C   UNL     1       2.833   4.308  17.982  0.00  0.00    +0.000 A 
ATOM      9  C   UNL     1       3.684   5.377  17.759  0.00  0.00    +0.000 A 
ATOM     10  C   UNL     1       1.385   4.035  18.128  0.00  0.00    +0.000 C 
ATOM     11  S   UNL     1       1.289   2.293  18.765  0.00  0.00    +0.000 S 
ATOM     12  C   UNL     1       3.055   1.871  18.409  0.00  0.00    +0.000 C 
BRANCH   5  14
ATOM     13  C   UNL     1       6.878   5.633  19.292  0.00  0.00    +0.000 C 
ATOM     14  C   UNL     1       6.312   5.468  17.850  0.00  0.00    +0.000 C 
ATOM     15  C   UNL     1       6.271   6.878  17.230  0.00  0.00    +0.000 C 
ATOM     16  C   UNL     1       7.312   4.614  17.052  0.00  0.00    +0.000 C 
ENDBRANCH   5  14
ENDBRANCH   1   9
BRANCH   2  17
ATOM     17  C   UNL     1       2.422   9.005  17.946  0.00  0.00    +0.000 C 
BRANCH  17  18
ATOM     18  O   UNL     1       1.034   9.059  17.660  0.00  0.00    +0.000 OA
BRANCH  18  19
ATOM     19  C   UNL     1       0.257   9.912  18.385  0.00  0.00    +0.000 A 
ATOM     20  C   UNL     1       0.589  10.519  19.598  0.00  0.00    +0.000 A 
ATOM     21  C   UNL     1      -0.337  11.357  20.235  0.00  0.00    +0.000 A 
ATOM     22  C   UNL     1      -1.586  11.590  19.658  0.00  0.00    +0.000 A 
ATOM     23 CL   UNL     1      -2.715  12.623  20.443  0.00  0.00    +0.000 Cl
ATOM     24  C   UNL     1      -1.919  10.995  18.446  0.00  0.00    +0.000 A 
ATOM     25  C   UNL     1      -0.998  10.160  17.815  0.00  0.00    +0.000 A 
ENDBRANCH  18  19
ENDBRANCH  17  18
ENDBRANCH   2  17
TORSDOF 5
ENDMDL
MODEL 8
REMARK VINA RESULT:      -7.0      4.409      7.951
REMARK  Name = 
REMARK  8 active torsions:
REMARK  status: ('A' for Active; 'I' for Inactive)
REMARK    1  A    between atoms: C_1  and  C_2
REMARK    2  A    between atoms: C_2  and  C_3
REMARK    3  A    between atoms: C_2  and  C_4
REMARK    4  A    between atoms: C_2  and  N_5
REMARK    5  A    between atoms: C_9  and  N_10
REMARK    6  A    between atoms: C_11  and  C_13
REMARK    7  A    between atoms: C_13  and  O_14
REMARK    8  A    between atoms: O_14  and  C_15
REMARK                            x       y       z     vdW  Elec       q    Type
REMARK                         _______ _______ _______ _____ _____    ______ ____
ROOT
ATOM      1  N   UNL     1       0.510   9.136  18.617  0.00  0.00    +0.000 N 
ATOM      2  C   UNL     1       1.794   9.425  18.001  0.00  0.00    +0.000 C 
ATOM      3  O   UNL     1       2.052  10.533  17.566  0.00  0.00    +0.000 OA
ATOM      4  H   UNL     1       0.334   8.183  18.897  0.00  0.00    +0.000 HD
ENDROOT
BRANCH   1   9
ATOM      5  N   UNL     1      -0.635  11.031  19.803  0.00  0.00    +0.000 N 
ATOM      6  N   UNL     1      -1.802  11.725  19.718  0.00  0.00    +0.000 NA
ATOM      7  C   UNL     1      -2.352  11.301  18.594  0.00  0.00    +0.000 A 
ATOM      8  C   UNL     1      -1.607  10.305  17.960  0.00  0.00    +0.000 A 
ATOM      9  C   UNL     1      -0.513  10.075  18.778  0.00  0.00    +0.000 A 
ATOM     10  C   UNL     1      -2.157   9.846  16.664  0.00  0.00    +0.000 C 
ATOM     11  S   UNL     1      -3.523  11.042  16.275  0.00  0.00    +0.000 S 
ATOM     12  C   UNL     1      -3.597  11.792  17.965  0.00  0.00    +0.000 C 
BRANCH   5  14
ATOM     13  C   UNL     1      -0.553  12.133  22.035  0.00  0.00    +0.000 C 
ATOM     14  C   UNL     1       0.247  11.356  20.948  0.00  0.00    +0.000 C 
ATOM     15  C   UNL     1       1.427  12.260  20.539  0.00  0.00    +0.000 C 
ATOM     16  C   UNL     1       0.812  10.085  21.605  0.00  0.00    +0.000 C 
ENDBRANCH   5  14
ENDBRANCH   1   9
BRANCH   2  17
ATOM     17  C   UNL     1       2.769   8.263  17.925  0.00  0.00    +0.000 C 
BRANCH  17  18
ATOM     18  O   UNL     1       2.701   7.617  19.186  0.00  0.00    +0.000 OA
BRANCH  18  19
ATOM     19  C   UNL     1       2.250   6.332  19.231  0.00  0.00    +0.000 A 
ATOM     20  C   UNL     1       1.828   5.633  20.364  0.00  0.00    +0.000 A 
ATOM     21  C   UNL     1       1.412   4.299  20.246  0.00  0.00    +0.000 A 
ATOM     22  C   UNL     1       1.415   3.671  19.001  0.00  0.00    +0.000 A 
ATOM     23 CL   UNL     1       0.899   2.036  18.862  0.00  0.00    +0.000 Cl
ATOM     24  C   UNL     1       1.825   4.365  17.867  0.00  0.00    +0.000 A 
ATOM     25  C   UNL     1       2.240   5.691  17.987  0.00  0.00    +0.000 A 
ENDBRANCH  18  19
ENDBRANCH  17  18
ENDBRANCH   2  17
TORSDOF 5
ENDMDL
MODEL 9
REMARK VINA RESULT:      -6.9      1.508      1.659
REMARK  Name = 
REMARK  8 active torsions:
REMARK  status: ('A' for Active; 'I' for Inactive)
REMARK    1  A    between atoms: C_1  and  C_2
REMARK    2  A    between atoms: C_2  and  C_3
REMARK    3  A    between atoms: C_2  and  C_4
REMARK    4  A    between atoms: C_2  and  N_5
REMARK    5  A    between atoms: C_9  and  N_10
REMARK    6  A    between atoms: C_11  and  C_13
REMARK    7  A    between atoms: C_13  and  O_14
REMARK    8  A    between atoms: O_14  and  C_15
REMARK                            x       y       z     vdW  Elec       q    Type
REMARK                         _______ _______ _______ _____ _____    ______ ____
ROOT
ATOM      1  N   UNL     1       2.901   6.305  20.074  0.00  0.00    +0.000 N 
ATOM      2  C   UNL     1       2.132   7.481  19.704  0.00  0.00    +0.000 C 
ATOM      3  O   UNL     1       1.849   7.712  18.542  0.00  0.00    +0.000 OA
ATOM      4  H   UNL     1       3.159   6.205  21.044  0.00  0.00    +0.000 HD
ENDROOT
BRANCH   1   9
ATOM      5  N   UNL     1       3.016   3.988  19.113  0.00  0.00    +0.000 N 
ATOM      6  N   UNL     1       3.721   3.316  18.162  0.00  0.00    +0.000 NA
ATOM      7  C   UNL     1       4.413   4.257  17.544  0.00  0.00    +0.000 A 
ATOM      8  C   UNL     1       4.226   5.526  18.094  0.00  0.00    +0.000 A 
ATOM      9  C   UNL     1       3.363   5.349  19.163  0.00  0.00    +0.000 A 
ATOM     10  C   UNL     1       4.934   6.620  17.391  0.00  0.00    +0.000 C 
ATOM     11  S   UNL     1       5.581   5.845  15.832  0.00  0.00    +0.000 S 
ATOM     12  C   UNL     1       5.285   4.097  16.361  0.00  0.00    +0.000 C 
BRANCH   5  14
ATOM     13  C   UNL     1       1.684   1.884  19.172  0.00  0.00    +0.000 C 
ATOM     14  C   UNL     1       2.079   3.185  19.932  0.00  0.00    +0.000 C 
ATOM     15  C   UNL     1       0.766   3.938  20.226  0.00  0.00    +0.000 C 
ATOM     16  C   UNL     1       2.712   2.769  21.271  0.00  0.00    +0.000 C 
ENDBRANCH   5  14
ENDBRANCH   1   9
BRANCH   2  17
ATOM     17  C   UNL     1       1.725   8.393  20.848  0.00  0.00    +0.000 C 
BRANCH  17  18
ATOM     18  O   UNL     1       0.380   8.763  20.590  0.00  0.00    +0.000 OA
BRANCH  18  19
ATOM     19  C   UNL     1       0.137  10.003  20.082  0.00  0.00    +0.000 A 
ATOM     20  C   UNL     1      -0.666  10.315  18.982  0.00  0.00    +0.000 A 
ATOM     21  C   UNL     1      -0.795  11.648  18.569  0.00  0.00    +0.000 A 
ATOM     22  C   UNL     1      -0.128  12.663  19.254  0.00  0.00    +0.000 A 
ATOM     23 CL   UNL     1      -0.295  14.297  18.743  0.00  0.00    +0.000 Cl
ATOM     24  C   UNL     1       0.666  12.361  20.355  0.00  0.00    +0.000 A 
ATOM     25  C   UNL     1       0.795  11.034  20.764  0.00  0.00    +0.000 A 
ENDBRANCH  18  19
ENDBRANCH  17  18
ENDBRANCH   2  17
TORSDOF 5
ENDMDL
