MODEL 1
REMARK VINA RESULT:      -8.0      0.000      0.000
REMARK  Name = 
REMARK  11 active torsions:
REMARK  status: ('A' for Active; 'I' for Inactive)
REMARK    1  A    between atoms: C_1  and  O_2
REMARK    2  A    between atoms: O_2  and  C_3
REMARK    3  A    between atoms: C_5  and  C_6
REMARK    4  A    between atoms: C_6  and  C_7
REMARK    5  A    between atoms: C_11  and  O_12
REMARK    6  A    between atoms: O_12  and  C_13
REMARK    7  A    between atoms: C_13  and  C_14
REMARK    8  A    between atoms: N_16  and  C_17
REMARK    9  A    between atoms: C_17  and  C_18
REMARK   10  A    between atoms: C_18  and  C_19
REMARK   11  A    between atoms: C_18  and  N_26
REMARK                            x       y       z     vdW  Elec       q    Type
REMARK                         _______ _______ _______ _____ _____    ______ ____
ROOT
ATOM      1  C   UNL     1       6.849   5.466  18.481  0.00  0.00    +0.000 C 
ATOM      2  O   UNL     1       7.440   5.550  19.554  0.00  0.00    +0.000 OA
ATOM      3  N   UNL     1       5.474   5.435  18.388  0.00  0.00    +0.000 N 
ATOM      4  H   UNL     1       5.104   5.040  17.530  0.00  0.00    +0.000 HD
ENDROOT
BRANCH   1   5
ATOM      5  C   UNL     1       7.569   5.460  17.133  0.00  0.00    +0.000 C 
BRANCH   5   6
ATOM      6  O   UNL     1       6.734   5.957  16.095  0.00  0.00    +0.000 OA
BRANCH   6  12
ATOM      7  C   UNL     1       7.339   5.030  13.849  0.00  0.00    +0.000 A 
ATOM      8  C   UNL     1       6.971   4.148  12.817  0.00  0.00    +0.000 A 
ATOM      9  C   UNL     1       5.756   3.463  12.872  0.00  0.00    +0.000 A 
ATOM     10  C   UNL     1       4.938   3.606  13.991  0.00  0.00    +0.000 A 
ATOM     11  C   UNL     1       5.337   4.427  15.051  0.00  0.00    +0.000 A 
ATOM     12  C   UNL     1       6.532   5.156  14.994  0.00  0.00    +0.000 A 
BRANCH   9  13
ATOM     13  C   UNL     1       5.279   2.630  11.731  0.00  0.00    +0.000 C 
ATOM     14  C   UNL     1       6.130   1.510  11.201  0.00  0.00    +0.000 C 
ATOM     15  O   UNL     1       4.202   2.910  11.199  0.00  0.00    +0.000 OA
ENDBRANCH   9  13
BRANCH   7  17
ATOM     16  C   UNL     1       8.836   6.204  12.444  0.00  0.00    +0.000 C 
ATOM     17  O   UNL     1       8.509   5.733  13.752  0.00  0.00    +0.000 OA
ENDBRANCH   7  17
ENDBRANCH   6  12
ENDBRANCH   5   6
ENDBRANCH   1   5
BRANCH   3  18
ATOM     18  C   UNL     1       4.649   5.309  19.585  0.00  0.00    +0.000 C 
BRANCH  18  19
ATOM     19  C   UNL     1       3.070   5.261  19.386  0.00  0.00    +0.000 C 
BRANCH  19  20
ATOM     20  C   UNL     1       2.475   6.703  19.236  0.00  0.00    +0.000 A 
ATOM     21  C   UNL     1       1.839   7.391  20.292  0.00  0.00    +0.000 A 
ATOM     22  C   UNL     1       1.325   8.686  20.136  0.00  0.00    +0.000 A 
ATOM     23  C   UNL     1       1.470   9.343  18.927  0.00  0.00    +0.000 A 
ATOM     24  F   UNL     1       1.034  10.602  18.794  0.00  0.00    +0.000 F 
ATOM     25  C   UNL     1       2.044   8.697  17.850  0.00  0.00    +0.000 A 
ATOM     26  C   UNL     1       2.483   7.373  17.994  0.00  0.00    +0.000 A 
ENDBRANCH  19  20
BRANCH  19  27
ATOM     27  N   UNL     1       2.774   4.329  18.223  0.00  0.00    +0.000 NA
ATOM     28  C   UNL     1       1.368   3.876  18.064  0.00  0.00    +0.000 C 
ATOM     29  C   UNL     1       0.884   2.929  19.182  0.00  0.00    +0.000 C 
ATOM     30  O   UNL     1       1.694   1.749  19.245  0.00  0.00    +0.000 OA
ATOM     31  C   UNL     1       3.075   2.092  19.412  0.00  0.00    +0.000 C 
ATOM     32  C   UNL     1       3.541   3.044  18.294  0.00  0.00    +0.000 C 
ENDBRANCH  19  27
ENDBRANCH  18  19
ENDBRANCH   3  18
TORSDOF 9
ENDMDL
MODEL 2
REMARK VINA RESULT:      -7.7      5.062      9.402
REMARK  Name = 
REMARK  11 active torsions:
REMARK  status: ('A' for Active; 'I' for Inactive)
REMARK    1  A    between atoms: C_1  and  O_2
REMARK    2  A    between atoms: O_2  and  C_3
REMARK    3  A    between atoms: C_5  and  C_6
REMARK    4  A    between atoms: C_6  and  C_7
REMARK    5  A    between atoms: C_11  and  O_12
REMARK    6  A    between atoms: O_12  and  C_13
REMARK    7  A    between atoms: C_13  and  C_14
REMARK    8  A    between atoms: N_16  and  C_17
REMARK    9  A    between atoms: C_17  and  C_18
REMARK   10  A    between atoms: C_18  and  C_19
REMARK   11  A    between atoms: C_18  and  N_26
REMARK                            x       y       z     vdW  Elec       q    Type
REMARK                         _______ _______ _______ _____ _____    ______ ____
ROOT
ATOM      1  C   UNL     1       1.704   9.475  18.159  0.00  0.00    +0.000 C 
ATOM      2  O   UNL     1       2.287  10.254  17.411  0.00  0.00    +0.000 OA
ATOM      3  N   UNL     1       2.100   8.165  18.326  0.00  0.00    +0.000 N 
ATOM      4  H   UNL     1       1.388   7.537  18.684  0.00  0.00    +0.000 HD
ENDROOT
BRANCH   1   5
ATOM      5  C   UNL     1       0.524   9.890  19.037  0.00  0.00    +0.000 C 
BRANCH   5   6
ATOM      6  O   UNL     1      -0.027  11.132  18.616  0.00  0.00    +0.000 OA
BRANCH   6  12
ATOM      7  C   UNL     1      -2.332  10.740  17.721  0.00  0.00    +0.000 A 
ATOM      8  C   UNL     1      -3.706  10.980  17.902  0.00  0.00    +0.000 A 
ATOM      9  C   UNL     1      -4.149  11.819  18.925  0.00  0.00    +0.000 A 
ATOM     10  C   UNL     1      -3.224  12.366  19.812  0.00  0.00    +0.000 A 
ATOM     11  C   UNL     1      -1.864  12.071  19.678  0.00  0.00    +0.000 A 
ATOM     12  C   UNL     1      -1.396  11.265  18.630  0.00  0.00    +0.000 A 
BRANCH   9  13
ATOM     13  C   UNL     1      -5.585  12.198  19.055  0.00  0.00    +0.000 C 
ATOM     14  C   UNL     1      -6.254  13.019  17.988  0.00  0.00    +0.000 C 
ATOM     15  O   UNL     1      -6.197  11.872  20.076  0.00  0.00    +0.000 OA
ENDBRANCH   9  13
BRANCH   7  17
ATOM     16  C   UNL     1      -2.710  10.033  15.496  0.00  0.00    +0.000 C 
ATOM     17  O   UNL     1      -1.914   9.957  16.679  0.00  0.00    +0.000 OA
ENDBRANCH   7  17
ENDBRANCH   6  12
ENDBRANCH   5   6
ENDBRANCH   1   5
BRANCH   3  18
ATOM     18  C   UNL     1       3.128   7.583  17.470  0.00  0.00    +0.000 C 
BRANCH  18  19
ATOM     19  C   UNL     1       3.931   6.330  18.036  0.00  0.00    +0.000 C 
BRANCH  19  20
ATOM     20  C   UNL     1       2.974   5.334  18.778  0.00  0.00    +0.000 A 
ATOM     21  C   UNL     1       2.991   5.142  20.177  0.00  0.00    +0.000 A 
ATOM     22  C   UNL     1       2.117   4.253  20.818  0.00  0.00    +0.000 A 
ATOM     23  C   UNL     1       1.175   3.561  20.079  0.00  0.00    +0.000 A 
ATOM     24  F   UNL     1       0.299   2.758  20.696  0.00  0.00    +0.000 F 
ATOM     25  C   UNL     1       1.148   3.679  18.703  0.00  0.00    +0.000 A 
ATOM     26  C   UNL     1       2.078   4.510  18.064  0.00  0.00    +0.000 A 
ENDBRANCH  19  20
BRANCH  19  27
ATOM     27  N   UNL     1       4.714   5.719  16.886  0.00  0.00    +0.000 NA
ATOM     28  C   UNL     1       5.524   4.511  17.191  0.00  0.00    +0.000 C 
ATOM     29  C   UNL     1       6.734   4.782  18.110  0.00  0.00    +0.000 C 
ATOM     30  O   UNL     1       7.623   5.739  17.523  0.00  0.00    +0.000 OA
ATOM     31  C   UNL     1       6.925   6.950  17.206  0.00  0.00    +0.000 C 
ATOM     32  C   UNL     1       5.717   6.663  16.296  0.00  0.00    +0.000 C 
ENDBRANCH  19  27
ENDBRANCH  18  19
ENDBRANCH   3  18
TORSDOF 9
ENDMDL
MODEL 3
REMARK VINA RESULT:      -7.6      4.402      8.599
REMARK  Name = 
REMARK  11 active torsions:
REMARK  status: ('A' for Active; 'I' for Inactive)
REMARK    1  A    between atoms: C_1  and  O_2
REMARK    2  A    between atoms: O_2  and  C_3
REMARK    3  A    between atoms: C_5  and  C_6
REMARK    4  A    between atoms: C_6  and  C_7
REMARK    5  A    between atoms: C_11  and  O_12
REMARK    6  A    between atoms: O_12  and  C_13
REMARK    7  A    between atoms: C_13  and  C_14
REMARK    8  A    between atoms: N_16  and  C_17
REMARK    9  A    between atoms: C_17  and  C_18
REMARK   10  A    between atoms: C_18  and  C_19
REMARK   11  A    between atoms: C_18  and  N_26
REMARK                            x       y       z     vdW  Elec       q    Type
REMARK                         _______ _______ _______ _____ _____    ______ ____
ROOT
ATOM      1  C   UNL     1       2.830   7.892  18.109  0.00  0.00    +0.000 C 
ATOM      2  O   UNL     1       3.900   7.906  17.508  0.00  0.00    +0.000 OA
ATOM      3  N   UNL     1       2.585   7.053  19.174  0.00  0.00    +0.000 N 
ATOM      4  H   UNL     1       1.605   6.881  19.377  0.00  0.00    +0.000 HD
ENDROOT
BRANCH   1   5
ATOM      5  C   UNL     1       1.684   8.852  17.789  0.00  0.00    +0.000 C 
BRANCH   5   6
ATOM      6  O   UNL     1       1.184   9.475  18.966  0.00  0.00    +0.000 OA
BRANCH   6  12
ATOM      7  C   UNL     1      -0.558  11.084  19.770  0.00  0.00    +0.000 A 
ATOM      8  C   UNL     1      -1.812  11.665  19.511  0.00  0.00    +0.000 A 
ATOM      9  C   UNL     1      -2.578  11.241  18.424  0.00  0.00    +0.000 A 
ATOM     10  C   UNL     1      -2.060  10.284  17.553  0.00  0.00    +0.000 A 
ATOM     11  C   UNL     1      -0.783   9.757  17.768  0.00  0.00    +0.000 A 
ATOM     12  C   UNL     1      -0.018  10.139  18.880  0.00  0.00    +0.000 A 
BRANCH   9  13
ATOM     13  C   UNL     1      -3.965  11.741  18.205  0.00  0.00    +0.000 C 
ATOM     14  C   UNL     1      -4.792  12.220  19.366  0.00  0.00    +0.000 C 
ATOM     15  O   UNL     1      -4.438  11.705  17.066  0.00  0.00    +0.000 OA
ENDBRANCH   9  13
BRANCH   7  17
ATOM     16  C   UNL     1      -0.407  12.559  21.613  0.00  0.00    +0.000 C 
ATOM     17  O   UNL     1       0.154  11.475  20.872  0.00  0.00    +0.000 OA
ENDBRANCH   7  17
ENDBRANCH   6  12
ENDBRANCH   5   6
ENDBRANCH   1   5
BRANCH   3  18
ATOM     18  C   UNL     1       3.528   5.995  19.522  0.00  0.00    +0.000 C 
BRANCH  18  19
ATOM     19  C   UNL     1       3.505   4.671  18.639  0.00  0.00    +0.000 C 
BRANCH  19  20
ATOM     20  C   UNL     1       4.688   4.657  17.611  0.00  0.00    +0.000 A 
ATOM     21  C   UNL     1       6.019   4.974  17.959  0.00  0.00    +0.000 A 
ATOM     22  C   UNL     1       7.062   4.943  17.022  0.00  0.00    +0.000 A 
ATOM     23  C   UNL     1       6.806   4.556  15.719  0.00  0.00    +0.000 A 
ATOM     24  F   UNL     1       7.811   4.467  14.839  0.00  0.00    +0.000 F 
ATOM     25  C   UNL     1       5.514   4.281  15.318  0.00  0.00    +0.000 A 
ATOM     26  C   UNL     1       4.466   4.391  16.242  0.00  0.00    +0.000 A 
ENDBRANCH  19  20
BRANCH  19  27
ATOM     27  N   UNL     1       3.472   3.481  19.583  0.00  0.00    +0.000 NA
ATOM     28  C   UNL     1       3.187   2.153  18.981  0.00  0.00    +0.000 C 
ATOM     29  C   UNL     1       1.747   2.000  18.449  0.00  0.00    +0.000 C 
ATOM     30  O   UNL     1       0.787   2.196  19.495  0.00  0.00    +0.000 OA
ATOM     31  C   UNL     1       0.980   3.467  20.127  0.00  0.00    +0.000 C 
ATOM     32  C   UNL     1       2.423   3.607  20.646  0.00  0.00    +0.000 C 
ENDBRANCH  19  27
ENDBRANCH  18  19
ENDBRANCH   3  18
TORSDOF 9
ENDMDL
MODEL 4
REMARK VINA RESULT:      -7.6      4.735      8.683
REMARK  Name = 
REMARK  11 active torsions:
REMARK  status: ('A' for Active; 'I' for Inactive)
REMARK    1  A    between atoms: C_1  and  O_2
REMARK    2  A    between atoms: O_2  and  C_3
REMARK    3  A    between atoms: C_5  and  C_6
REMARK    4  A    between atoms: C_6  and  C_7
REMARK    5  A    between atoms: C_11  and  O_12
REMARK    6  A    between atoms: O_12  and  C_13
REMARK    7  A    between atoms: C_13  and  C_14
REMARK    8  A    between atoms: N_16  and  C_17
REMARK    9  A    between atoms: C_17  and  C_18
REMARK   10  A    between atoms: C_18  and  C_19
REMARK   11  A    between atoms: C_18  and  N_26
REMARK                            x       y       z     vdW  Elec       q    Type
REMARK                         _______ _______ _______ _____ _____    ______ ____
ROOT
ATOM      1  C   UNL     1       2.015   8.100  19.246  0.00  0.00    +0.000 C 
ATOM      2  O   UNL     1       1.659   7.831  20.389  0.00  0.00    +0.000 OA
ATOM      3  N   UNL     1       2.840   7.277  18.509  0.00  0.00    +0.000 N 
ATOM      4  H   UNL     1       3.331   7.726  17.742  0.00  0.00    +0.000 HD
ENDROOT
BRANCH   1   5
ATOM      5  C   UNL     1       1.527   9.337  18.492  0.00  0.00    +0.000 C 
BRANCH   5   6
ATOM      6  O   UNL     1       0.778  10.200  19.338  0.00  0.00    +0.000 OA
BRANCH   6  12
ATOM      7  C   UNL     1      -1.378  11.457  19.548  0.00  0.00    +0.000 A 
ATOM      8  C   UNL     1      -2.621  11.741  18.955  0.00  0.00    +0.000 A 
ATOM      9  C   UNL     1      -3.011  11.090  17.784  0.00  0.00    +0.000 A 
ATOM     10  C   UNL     1      -2.130  10.206  17.165  0.00  0.00    +0.000 A 
ATOM     11  C   UNL     1      -0.864   9.977  17.715  0.00  0.00    +0.000 A 
ATOM     12  C   UNL     1      -0.473  10.588  18.914  0.00  0.00    +0.000 A 
BRANCH   9  13
ATOM     13  C   UNL     1      -4.375  11.270  17.210  0.00  0.00    +0.000 C 
ATOM     14  C   UNL     1      -5.576  11.336  18.112  0.00  0.00    +0.000 C 
ATOM     15  O   UNL     1      -4.505  11.309  15.984  0.00  0.00    +0.000 OA
ENDBRANCH   9  13
BRANCH   7  17
ATOM     16  C   UNL     1      -0.376  13.325  20.597  0.00  0.00    +0.000 C 
ATOM     17  O   UNL     1      -1.036  12.065  20.726  0.00  0.00    +0.000 OA
ENDBRANCH   7  17
ENDBRANCH   6  12
ENDBRANCH   5   6
ENDBRANCH   1   5
BRANCH   3  18
ATOM     18  C   UNL     1       3.488   6.126  19.127  0.00  0.00    +0.000 C 
BRANCH  18  19
ATOM     19  C   UNL     1       3.591   4.791  18.265  0.00  0.00    +0.000 C 
BRANCH  19  20
ATOM     20  C   UNL     1       4.733   4.896  17.196  0.00  0.00    +0.000 A 
ATOM     21  C   UNL     1       5.935   5.604  17.414  0.00  0.00    +0.000 A 
ATOM     22  C   UNL     1       6.946   5.673  16.445  0.00  0.00    +0.000 A 
ATOM     23  C   UNL     1       6.796   5.002  15.245  0.00  0.00    +0.000 A 
ATOM     24  F   UNL     1       7.786   5.017  14.344  0.00  0.00    +0.000 F 
ATOM     25  C   UNL     1       5.621   4.334  14.965  0.00  0.00    +0.000 A 
ATOM     26  C   UNL     1       4.584   4.337  15.908  0.00  0.00    +0.000 A 
ENDBRANCH  19  20
BRANCH  19  27
ATOM     27  N   UNL     1       3.731   3.624  19.228  0.00  0.00    +0.000 NA
ATOM     28  C   UNL     1       3.488   2.265  18.676  0.00  0.00    +0.000 C 
ATOM     29  C   UNL     1       2.020   2.000  18.282  0.00  0.00    +0.000 C 
ATOM     30  O   UNL     1       1.148   2.152  19.408  0.00  0.00    +0.000 OA
ATOM     31  C   UNL     1       1.305   3.447  19.999  0.00  0.00    +0.000 C 
ATOM     32  C   UNL     1       2.776   3.700  20.380  0.00  0.00    +0.000 C 
ENDBRANCH  19  27
ENDBRANCH  18  19
ENDBRANCH   3  18
TORSDOF 9
ENDMDL
MODEL 5
REMARK VINA RESULT:      -7.6      4.076      8.689
REMARK  Name = 
REMARK  11 active torsions:
REMARK  status: ('A' for Active; 'I' for Inactive)
REMARK    1  A    between atoms: C_1  and  O_2
REMARK    2  A    between atoms: O_2  and  C_3
REMARK    3  A    between atoms: C_5  and  C_6
REMARK    4  A    between atoms: C_6  and  C_7
REMARK    5  A    between atoms: C_11  and  O_12
REMARK    6  A    between atoms: O_12  and  C_13
REMARK    7  A    between atoms: C_13  and  C_14
REMARK    8  A    between atoms: N_16  and  C_17
REMARK    9  A    between atoms: C_17  and  C_18
REMARK   10  A    between atoms: C_18  and  C_19
REMARK   11  A    between atoms: C_18  and  N_26
REMARK                            x       y       z     vdW  Elec       q    Type
REMARK                         _______ _______ _______ _____ _____    ______ ____
ROOT
ATOM      1  C   UNL     1       2.652   7.875  18.071  0.00  0.00    +0.000 C 
ATOM      2  O   UNL     1       3.727   7.987  17.491  0.00  0.00    +0.000 OA
ATOM      3  N   UNL     1       2.455   6.992  19.111  0.00  0.00    +0.000 N 
ATOM      4  H   UNL     1       1.489   6.740  19.292  0.00  0.00    +0.000 HD
ENDROOT
BRANCH   1   5
ATOM      5  C   UNL     1       1.439   8.750  17.753  0.00  0.00    +0.000 C 
BRANCH   5   6
ATOM      6  O   UNL     1       1.737  10.131  17.916  0.00  0.00    +0.000 OA
BRANCH   6  12
ATOM      7  C   UNL     1       1.507  12.051  19.507  0.00  0.00    +0.000 A 
ATOM      8  C   UNL     1       0.812  12.565  20.616  0.00  0.00    +0.000 A 
ATOM      9  C   UNL     1      -0.146  11.790  21.272  0.00  0.00    +0.000 A 
ATOM     10  C   UNL     1      -0.459  10.525  20.779  0.00  0.00    +0.000 A 
ATOM     11  C   UNL     1       0.180  10.040  19.633  0.00  0.00    +0.000 A 
ATOM     12  C   UNL     1       1.175  10.787  18.987  0.00  0.00    +0.000 A 
BRANCH   9  13
ATOM     13  C   UNL     1      -0.798  12.257  22.529  0.00  0.00    +0.000 C 
ATOM     14  C   UNL     1      -1.053  13.721  22.755  0.00  0.00    +0.000 C 
ATOM     15  O   UNL     1      -1.075  11.427  23.399  0.00  0.00    +0.000 OA
ENDBRANCH   9  13
BRANCH   7  17
ATOM     16  C   UNL     1       2.272  14.218  18.948  0.00  0.00    +0.000 C 
ATOM     17  O   UNL     1       2.480  12.806  18.910  0.00  0.00    +0.000 OA
ENDBRANCH   7  17
ENDBRANCH   6  12
ENDBRANCH   5   6
ENDBRANCH   1   5
BRANCH   3  18
ATOM     18  C   UNL     1       3.472   6.003  19.452  0.00  0.00    +0.000 C 
BRANCH  18  19
ATOM     19  C   UNL     1       3.454   4.626  18.654  0.00  0.00    +0.000 C 
BRANCH  19  20
ATOM     20  C   UNL     1       4.622   4.563  17.610  0.00  0.00    +0.000 A 
ATOM     21  C   UNL     1       4.412   4.424  16.221  0.00  0.00    +0.000 A 
ATOM     22  C   UNL     1       5.474   4.382  15.307  0.00  0.00    +0.000 A 
ATOM     23  C   UNL     1       6.775   4.516  15.756  0.00  0.00    +0.000 A 
ATOM     24  F   UNL     1       7.786   4.537  14.879  0.00  0.00    +0.000 F 
ATOM     25  C   UNL     1       7.036   4.608  17.109  0.00  0.00    +0.000 A 
ATOM     26  C   UNL     1       5.973   4.570  18.021  0.00  0.00    +0.000 A 
ENDBRANCH  19  20
BRANCH  19  27
ATOM     27  N   UNL     1       3.451   3.497  19.671  0.00  0.00    +0.000 NA
ATOM     28  C   UNL     1       3.070   2.148  19.178  0.00  0.00    +0.000 C 
ATOM     29  C   UNL     1       1.587   2.026  18.767  0.00  0.00    +0.000 C 
ATOM     30  O   UNL     1       0.721   2.324  19.869  0.00  0.00    +0.000 OA
ATOM     31  C   UNL     1       1.011   3.622  20.404  0.00  0.00    +0.000 C 
ATOM     32  C   UNL     1       2.495   3.731  20.801  0.00  0.00    +0.000 C 
ENDBRANCH  19  27
ENDBRANCH  18  19
ENDBRANCH   3  18
TORSDOF 9
ENDMDL
MODEL 6
REMARK VINA RESULT:      -7.5      4.529      8.673
REMARK  Name = 
REMARK  11 active torsions:
REMARK  status: ('A' for Active; 'I' for Inactive)
REMARK    1  A    between atoms: C_1  and  O_2
REMARK    2  A    between atoms: O_2  and  C_3
REMARK    3  A    between atoms: C_5  and  C_6
REMARK    4  A    between atoms: C_6  and  C_7
REMARK    5  A    between atoms: C_11  and  O_12
REMARK    6  A    between atoms: O_12  and  C_13
REMARK    7  A    between atoms: C_13  and  C_14
REMARK    8  A    between atoms: N_16  and  C_17
REMARK    9  A    between atoms: C_17  and  C_18
REMARK   10  A    between atoms: C_18  and  C_19
REMARK   11  A    between atoms: C_18  and  N_26
REMARK                            x       y       z     vdW  Elec       q    Type
REMARK                         _______ _______ _______ _____ _____    ______ ____
ROOT
ATOM      1  C   UNL     1       2.417   7.781  18.941  0.00  0.00    +0.000 C 
ATOM      2  O   UNL     1       3.117   7.994  17.956  0.00  0.00    +0.000 OA
ATOM      3  N   UNL     1       2.738   6.837  19.893  0.00  0.00    +0.000 N 
ATOM      4  H   UNL     1       1.964   6.510  20.462  0.00  0.00    +0.000 HD
ENDROOT
BRANCH   1   5
ATOM      5  C   UNL     1       1.156   8.585  19.256  0.00  0.00    +0.000 C 
BRANCH   5   6
ATOM      6  O   UNL     1       0.925   9.593  18.280  0.00  0.00    +0.000 OA
BRANCH   6  12
ATOM      7  C   UNL     1      -0.665  11.325  19.144  0.00  0.00    +0.000 A 
ATOM      8  C   UNL     1      -1.950  11.882  19.031  0.00  0.00    +0.000 A 
ATOM      9  C   UNL     1      -2.891  11.321  18.166  0.00  0.00    +0.000 A 
ATOM     10  C   UNL     1      -2.526  10.243  17.361  0.00  0.00    +0.000 A 
ATOM     11  C   UNL     1      -1.225   9.733  17.420  0.00  0.00    +0.000 A 
ATOM     12  C   UNL     1      -0.281  10.256  18.315  0.00  0.00    +0.000 A 
BRANCH   9  13
ATOM     13  C   UNL     1      -4.301  11.805  18.127  0.00  0.00    +0.000 C 
ATOM     14  C   UNL     1      -5.012  12.178  19.398  0.00  0.00    +0.000 C 
ATOM     15  O   UNL     1      -4.887  11.844  17.042  0.00  0.00    +0.000 OA
ENDBRANCH   9  13
BRANCH   7  17
ATOM     16  C   UNL     1      -0.246  11.975  21.379  0.00  0.00    +0.000 C 
ATOM     17  O   UNL     1       0.227  11.856  20.037  0.00  0.00    +0.000 OA
ENDBRANCH   7  17
ENDBRANCH   6  12
ENDBRANCH   5   6
ENDBRANCH   1   5
BRANCH   3  18
ATOM     18  C   UNL     1       3.839   5.904  19.676  0.00  0.00    +0.000 C 
BRANCH  18  19
ATOM     19  C   UNL     1       3.579   4.675  18.698  0.00  0.00    +0.000 C 
BRANCH  19  20
ATOM     20  C   UNL     1       4.684   4.592  17.589  0.00  0.00    +0.000 A 
ATOM     21  C   UNL     1       4.396   4.361  16.227  0.00  0.00    +0.000 A 
ATOM     22  C   UNL     1       5.402   4.302  15.252  0.00  0.00    +0.000 A 
ATOM     23  C   UNL     1       6.721   4.512  15.611  0.00  0.00    +0.000 A 
ATOM     24  F   UNL     1       7.676   4.516  14.672  0.00  0.00    +0.000 F 
ATOM     25  C   UNL     1       7.060   4.695  16.937  0.00  0.00    +0.000 A 
ATOM     26  C   UNL     1       6.055   4.673  17.914  0.00  0.00    +0.000 A 
ENDBRANCH  19  20
BRANCH  19  27
ATOM     27  N   UNL     1       3.438   3.424  19.549  0.00  0.00    +0.000 NA
ATOM     28  C   UNL     1       3.044   2.175  18.847  0.00  0.00    +0.000 C 
ATOM     29  C   UNL     1       1.599   2.188  18.305  0.00  0.00    +0.000 C 
ATOM     30  O   UNL     1       0.653   2.385  19.363  0.00  0.00    +0.000 OA
ATOM     31  C   UNL     1       0.951   3.583  20.091  0.00  0.00    +0.000 C 
ATOM     32  C   UNL     1       2.398   3.558  20.619  0.00  0.00    +0.000 C 
ENDBRANCH  19  27
ENDBRANCH  18  19
ENDBRANCH   3  18
TORSDOF 9
ENDMDL
MODEL 7
REMARK VINA RESULT:      -7.5      4.874      9.849
REMARK  Name = 
REMARK  11 active torsions:
REMARK  status: ('A' for Active; 'I' for Inactive)
REMARK    1  A    between atoms: C_1  and  O_2
REMARK    2  A    between atoms: O_2  and  C_3
REMARK    3  A    between atoms: C_5  and  C_6
REMARK    4  A    between atoms: C_6  and  C_7
REMARK    5  A    between atoms: C_11  and  O_12
REMARK    6  A    between atoms: O_12  and  C_13
REMARK    7  A    between atoms: C_13  and  C_14
REMARK    8  A    between atoms: N_16  and  C_17
REMARK    9  A    between atoms: C_17  and  C_18
REMARK   10  A    between atoms: C_18  and  C_19
REMARK   11  A    between atoms: C_18  and  N_26
REMARK                            x       y       z     vdW  Elec       q    Type
REMARK                         _______ _______ _______ _____ _____    ______ ____
ROOT
ATOM      1  C   UNL     1       1.688   9.256  18.377  0.00  0.00    +0.000 C 
ATOM      2  O   UNL     1       2.062  10.041  17.510  0.00  0.00    +0.000 OA
ATOM      3  N   UNL     1       2.309   8.047  18.605  0.00  0.00    +0.000 N 
ATOM      4  H   UNL     1       1.747   7.353  19.087  0.00  0.00    +0.000 HD
ENDROOT
BRANCH   1   5
ATOM      5  C   UNL     1       0.543   9.566  19.341  0.00  0.00    +0.000 C 
BRANCH   5   6
ATOM      6  O   UNL     1       1.030   9.970  20.614  0.00  0.00    +0.000 OA
BRANCH   6  12
ATOM      7  C   UNL     1       0.634  12.398  21.083  0.00  0.00    +0.000 A 
ATOM      8  C   UNL     1      -0.123  13.333  21.811  0.00  0.00    +0.000 A 
ATOM      9  C   UNL     1      -1.046  12.906  22.767  0.00  0.00    +0.000 A 
ATOM     10  C   UNL     1      -1.265  11.541  22.947  0.00  0.00    +0.000 A 
ATOM     11  C   UNL     1      -0.565  10.610  22.173  0.00  0.00    +0.000 A 
ATOM     12  C   UNL     1       0.398  11.020  21.240  0.00  0.00    +0.000 A 
BRANCH   9  13
ATOM     13  C   UNL     1      -1.761  13.874  23.647  0.00  0.00    +0.000 C 
ATOM     14  C   UNL     1      -1.091  15.149  24.076  0.00  0.00    +0.000 C 
ATOM     15  O   UNL     1      -2.888  13.584  24.059  0.00  0.00    +0.000 OA
ENDBRANCH   9  13
BRANCH   7  17
ATOM     16  C   UNL     1       1.376  14.161  19.693  0.00  0.00    +0.000 C 
ATOM     17  O   UNL     1       1.573  12.837  20.189  0.00  0.00    +0.000 OA
ENDBRANCH   7  17
ENDBRANCH   6  12
ENDBRANCH   5   6
ENDBRANCH   1   5
BRANCH   3  18
ATOM     18  C   UNL     1       3.334   7.552  17.693  0.00  0.00    +0.000 C 
BRANCH  18  19
ATOM     19  C   UNL     1       4.082   6.204  18.091  0.00  0.00    +0.000 C 
BRANCH  19  20
ATOM     20  C   UNL     1       3.087   5.174  18.731  0.00  0.00    +0.000 A 
ATOM     21  C   UNL     1       3.075   4.863  20.107  0.00  0.00    +0.000 A 
ATOM     22  C   UNL     1       2.167   3.946  20.657  0.00  0.00    +0.000 A 
ATOM     23  C   UNL     1       1.220   3.346  19.847  0.00  0.00    +0.000 A 
ATOM     24  F   UNL     1       0.313   2.518  20.380  0.00  0.00    +0.000 F 
ATOM     25  C   UNL     1       1.219   3.583  18.486  0.00  0.00    +0.000 A 
ATOM     26  C   UNL     1       2.182   4.439  17.935  0.00  0.00    +0.000 A 
ENDBRANCH  19  20
BRANCH  19  27
ATOM     27  N   UNL     1       4.815   5.696  16.861  0.00  0.00    +0.000 NA
ATOM     28  C   UNL     1       5.593   4.439  17.013  0.00  0.00    +0.000 C 
ATOM     29  C   UNL     1       6.833   4.574  17.921  0.00  0.00    +0.000 C 
ATOM     30  O   UNL     1       7.739   5.561  17.414  0.00  0.00    +0.000 OA
ATOM     31  C   UNL     1       7.073   6.819  17.247  0.00  0.00    +0.000 C 
ATOM     32  C   UNL     1       5.833   6.667  16.346  0.00  0.00    +0.000 C 
ENDBRANCH  19  27
ENDBRANCH  18  19
ENDBRANCH   3  18
TORSDOF 9
ENDMDL
MODEL 8
REMARK VINA RESULT:      -7.5      4.715      8.687
REMARK  Name = 
REMARK  11 active torsions:
REMARK  status: ('A' for Active; 'I' for Inactive)
REMARK    1  A    between atoms: C_1  and  O_2
REMARK    2  A    between atoms: O_2  and  C_3
REMARK    3  A    between atoms: C_5  and  C_6
REMARK    4  A    between atoms: C_6  and  C_7
REMARK    5  A    between atoms: C_11  and  O_12
REMARK    6  A    between atoms: O_12  and  C_13
REMARK    7  A    between atoms: C_13  and  C_14
REMARK    8  A    between atoms: N_16  and  C_17
REMARK    9  A    between atoms: C_17  and  C_18
REMARK   10  A    between atoms: C_18  and  C_19
REMARK   11  A    between atoms: C_18  and  N_26
REMARK                            x       y       z     vdW  Elec       q    Type
REMARK                         _______ _______ _______ _____ _____    ______ ____
ROOT
ATOM      1  C   UNL     1       1.733   8.226  19.798  0.00  0.00    +0.000 C 
ATOM      2  O   UNL     1       1.541   8.200  21.009  0.00  0.00    +0.000 OA
ATOM      3  N   UNL     1       2.146   7.122  19.084  0.00  0.00    +0.000 N 
ATOM      4  H   UNL     1       2.585   7.319  18.191  0.00  0.00    +0.000 HD
ENDROOT
BRANCH   1   5
ATOM      5  C   UNL     1       1.467   9.463  18.939  0.00  0.00    +0.000 C 
BRANCH   5   6
ATOM      6  O   UNL     1       0.695  10.428  19.643  0.00  0.00    +0.000 OA
BRANCH   6  12
ATOM      7  C   UNL     1      -1.467  11.692  19.631  0.00  0.00    +0.000 A 
ATOM      8  C   UNL     1      -2.681  11.913  18.956  0.00  0.00    +0.000 A 
ATOM      9  C   UNL     1      -3.017  11.150  17.837  0.00  0.00    +0.000 A 
ATOM     10  C   UNL     1      -2.109  10.213  17.348  0.00  0.00    +0.000 A 
ATOM     11  C   UNL     1      -0.871  10.042  17.975  0.00  0.00    +0.000 A 
ATOM     12  C   UNL     1      -0.534  10.768  19.127  0.00  0.00    +0.000 A 
BRANCH   9  13
ATOM     13  C   UNL     1      -4.353  11.268  17.186  0.00  0.00    +0.000 C 
ATOM     14  C   UNL     1      -5.579  11.540  18.012  0.00  0.00    +0.000 C 
ATOM     15  O   UNL     1      -4.440  11.086  15.969  0.00  0.00    +0.000 OA
ENDBRANCH   9  13
BRANCH   7  17
ATOM     16  C   UNL     1      -2.093  12.249  21.842  0.00  0.00    +0.000 C 
ATOM     17  O   UNL     1      -1.179  12.413  20.759  0.00  0.00    +0.000 OA
ENDBRANCH   7  17
ENDBRANCH   6  12
ENDBRANCH   5   6
ENDBRANCH   1   5
BRANCH   3  18
ATOM     18  C   UNL     1       2.561   5.904  19.772  0.00  0.00    +0.000 C 
BRANCH  18  19
ATOM     19  C   UNL     1       3.478   4.882  18.966  0.00  0.00    +0.000 C 
BRANCH  19  20
ATOM     20  C   UNL     1       4.780   5.582  18.442  0.00  0.00    +0.000 A 
ATOM     21  C   UNL     1       4.802   6.425  17.310  0.00  0.00    +0.000 A 
ATOM     22  C   UNL     1       5.977   7.049  16.869  0.00  0.00    +0.000 A 
ATOM     23  C   UNL     1       7.155   6.877  17.574  0.00  0.00    +0.000 A 
ATOM     24  F   UNL     1       8.264   7.521  17.190  0.00  0.00    +0.000 F 
ATOM     25  C   UNL     1       7.195   6.027  18.662  0.00  0.00    +0.000 A 
ATOM     26  C   UNL     1       6.033   5.345  19.047  0.00  0.00    +0.000 A 
ENDBRANCH  19  20
BRANCH  19  27
ATOM     27  N   UNL     1       3.723   3.673  19.854  0.00  0.00    +0.000 NA
ATOM     28  C   UNL     1       3.994   2.381  19.172  0.00  0.00    +0.000 C 
ATOM     29  C   UNL     1       2.781   1.805  18.413  0.00  0.00    +0.000 C 
ATOM     30  O   UNL     1       1.677   1.582  19.298  0.00  0.00    +0.000 OA
ATOM     31  C   UNL     1       1.335   2.787  19.994  0.00  0.00    +0.000 C 
ATOM     32  C   UNL     1       2.557   3.354  20.740  0.00  0.00    +0.000 C 
ENDBRANCH  19  27
ENDBRANCH  18  19
ENDBRANCH   3  18
TORSDOF 9
ENDMDL
MODEL 9
REMARK VINA RESULT:      -7.5      4.439      9.133
REMARK  Name = 
REMARK  11 active torsions:
REMARK  status: ('A' for Active; 'I' for Inactive)
REMARK    1  A    between atoms: C_1  and  O_2
REMARK    2  A    between atoms: O_2  and  C_3
REMARK    3  A    between atoms: C_5  and  C_6
REMARK    4  A    between atoms: C_6  and  C_7
REMARK    5  A    between atoms: C_11  and  O_12
REMARK    6  A    between atoms: O_12  and  C_13
REMARK    7  A    between atoms: C_13  and  C_14
REMARK    8  A    between atoms: N_16  and  C_17
REMARK    9  A    between atoms: C_17  and  C_18
REMARK   10  A    between atoms: C_18  and  C_19
REMARK   11  A    between atoms: C_18  and  N_26
REMARK                            x       y       z     vdW  Elec       q    Type
REMARK                         _______ _______ _______ _____ _____    ______ ____
ROOT
ATOM      1  C   UNL     1       2.285   8.260  18.244  0.00  0.00    +0.000 C 
ATOM      2  O   UNL     1       3.292   8.505  17.587  0.00  0.00    +0.000 OA
ATOM      3  N   UNL     1       2.249   7.284  19.216  0.00  0.00    +0.000 N 
ATOM      4  H   UNL     1       1.324   6.940  19.455  0.00  0.00    +0.000 HD
ENDROOT
BRANCH   1   5
ATOM      5  C   UNL     1       0.987   9.055  18.105  0.00  0.00    +0.000 C 
BRANCH   5   6
ATOM      6  O   UNL     1       1.183  10.429  18.419  0.00  0.00    +0.000 OA
BRANCH   6  12
ATOM      7  C   UNL     1      -0.643  11.898  19.301  0.00  0.00    +0.000 A 
ATOM      8  C   UNL     1      -1.325  12.344  20.448  0.00  0.00    +0.000 A 
ATOM      9  C   UNL     1      -0.900  11.955  21.719  0.00  0.00    +0.000 A 
ATOM     10  C   UNL     1       0.163  11.062  21.844  0.00  0.00    +0.000 A 
ATOM     11  C   UNL     1       0.796  10.561  20.702  0.00  0.00    +0.000 A 
ATOM     12  C   UNL     1       0.412  10.975  19.419  0.00  0.00    +0.000 A 
BRANCH   9  13
ATOM     13  C   UNL     1      -1.517  12.519  22.953  0.00  0.00    +0.000 C 
ATOM     14  C   UNL     1      -2.902  12.106  23.369  0.00  0.00    +0.000 C 
ATOM     15  O   UNL     1      -0.894  13.369  23.595  0.00  0.00    +0.000 OA
ENDBRANCH   9  13
BRANCH   7  17
ATOM     16  C   UNL     1      -2.064  11.558  17.442  0.00  0.00    +0.000 C 
ATOM     17  O   UNL     1      -1.041  12.333  18.066  0.00  0.00    +0.000 OA
ENDBRANCH   7  17
ENDBRANCH   6  12
ENDBRANCH   5   6
ENDBRANCH   1   5
BRANCH   3  18
ATOM     18  C   UNL     1       3.363   6.357  19.384  0.00  0.00    +0.000 C 
BRANCH  18  19
ATOM     19  C   UNL     1       3.336   5.014  18.530  0.00  0.00    +0.000 C 
BRANCH  19  20
ATOM     20  C   UNL     1       4.476   5.006  17.454  0.00  0.00    +0.000 A 
ATOM     21  C   UNL     1       4.456   4.176  16.312  0.00  0.00    +0.000 A 
ATOM     22  C   UNL     1       5.483   4.196  15.358  0.00  0.00    +0.000 A 
ATOM     23  C   UNL     1       6.539   5.078  15.501  0.00  0.00    +0.000 A 
ATOM     24  F   UNL     1       7.489   5.141  14.560  0.00  0.00    +0.000 F 
ATOM     25  C   UNL     1       6.628   5.878  16.623  0.00  0.00    +0.000 A 
ATOM     26  C   UNL     1       5.637   5.793  17.611  0.00  0.00    +0.000 A 
ENDBRANCH  19  20
BRANCH  19  27
ATOM     27  N   UNL     1       3.371   3.844  19.499  0.00  0.00    +0.000 NA
ATOM     28  C   UNL     1       2.966   2.517  18.966  0.00  0.00    +0.000 C 
ATOM     29  C   UNL     1       1.468   2.414  18.612  0.00  0.00    +0.000 C 
ATOM     30  O   UNL     1       0.648   2.667  19.759  0.00  0.00    +0.000 OA
ATOM     31  C   UNL     1       0.963   3.941  20.335  0.00  0.00    +0.000 C 
ATOM     32  C   UNL     1       2.462   4.032  20.675  0.00  0.00    +0.000 C 
ENDBRANCH  19  27
ENDBRANCH  18  19
ENDBRANCH   3  18
TORSDOF 9
ENDMDL
