MODEL 1
REMARK VINA RESULT:      -8.1      0.000      0.000
REMARK  Name = 
REMARK  10 active torsions:
REMARK  status: ('A' for Active; 'I' for Inactive)
REMARK    1  A    between atoms: C_1  and  C_2
REMARK    2  A    between atoms: C_2  and  C_3
REMARK    3  A    between atoms: C_3  and  N_4
REMARK    4  A    between atoms: N_4  and  C_5
REMARK    5  A    between atoms: C_5  and  C_6
REMARK    6  A    between atoms: C_6  and  C_7
REMARK    7  A    between atoms: C_8  and  C_10
REMARK    8  A    between atoms: C_10  and  C_11
REMARK    9  A    between atoms: C_12  and  C_13
REMARK   10  A    between atoms: C_23  and  N_24
REMARK                            x       y       z     vdW  Elec       q    Type
REMARK                         _______ _______ _______ _____ _____    ______ ____
ROOT
ATOM      1  C   UNL     1       3.425   5.882  19.279  0.00  0.00    +0.000 A 
ATOM      2  C   UNL     1       2.327   6.587  19.757  0.00  0.00    +0.000 A 
ATOM      3  N   UNL     1       1.595   5.809  20.632  0.00  0.00    +0.000 NA
ATOM      4  C   UNL     1       2.253   4.682  20.751  0.00  0.00    +0.000 A 
ATOM      5  C   UNL     1       1.968   3.515  21.518  0.00  0.00    +0.000 A 
ATOM      6  C   UNL     1       2.802   2.462  21.472  0.00  0.00    +0.000 A 
ATOM      7  C   UNL     1       4.008   2.504  20.657  0.00  0.00    +0.000 A 
ATOM      8  C   UNL     1       4.288   3.598  19.924  0.00  0.00    +0.000 A 
ATOM      9  N   UNL     1       3.402   4.680  19.965  0.00  0.00    +0.000 N 
ENDROOT
BRANCH   2  10
ATOM     10  C   UNL     1       1.882   7.929  19.388  0.00  0.00    +0.000 A 
ATOM     11  C   UNL     1       1.252   8.725  20.356  0.00  0.00    +0.000 A 
ATOM     12  C   UNL     1       0.794  10.010  20.048  0.00  0.00    +0.000 A 
ATOM     13  C   UNL     1       0.960  10.520  18.764  0.00  0.00    +0.000 A 
ATOM     14  C   UNL     1       1.608   9.755  17.798  0.00  0.00    +0.000 A 
ATOM     15  C   UNL     1       2.080   8.477  18.116  0.00  0.00    +0.000 A 
ENDBRANCH   2  10
BRANCH   7  16
ATOM     16  N   UNL     1       4.930   1.369  20.592  0.00  0.00    +0.000 N 
ATOM     17  O   UNL     1       4.930   0.671  19.567  0.00  0.00    +0.000 OA
ATOM     18  O   UNL     1       5.646   1.163  21.582  0.00  0.00    +0.000 OA
ENDBRANCH   7  16
BRANCH   1  19
ATOM     19  C   UNL     1       4.479   6.218  18.264  0.00  0.00    +0.000 C 
BRANCH  19  21
ATOM     20  N   UNL     1       5.675   4.978  16.437  0.00  0.00    +0.000 N 
ATOM     21  C   UNL     1       4.471   5.216  17.106  0.00  0.00    +0.000 C 
ATOM     22  O   UNL     1       3.434   4.628  16.786  0.00  0.00    +0.000 OA
BRANCH  20  23
ATOM     23  C   UNL     1       5.686   3.940  15.395  0.00  0.00    +0.000 C 
BRANCH  23  25
ATOM     24  C   UNL     1       5.991   3.564  12.869  0.00  0.00    +0.000 C 
ATOM     25  C   UNL     1       6.471   4.288  14.116  0.00  0.00    +0.000 C 
ENDBRANCH  23  25
ENDBRANCH  20  23
BRANCH  20  26
ATOM     26  C   UNL     1       6.964   5.576  16.814  0.00  0.00    +0.000 C 
BRANCH  26  27
ATOM     27  C   UNL     1       7.718   4.877  17.954  0.00  0.00    +0.000 C 
ATOM     28  C   UNL     1       7.960   5.735  19.186  0.00  0.00    +0.000 C 
ENDBRANCH  26  27
ENDBRANCH  20  26
ENDBRANCH  19  21
ENDBRANCH   1  19
TORSDOF 8
ENDMDL
MODEL 2
REMARK VINA RESULT:      -7.9      0.202      1.099
REMARK  Name = 
REMARK  10 active torsions:
REMARK  status: ('A' for Active; 'I' for Inactive)
REMARK    1  A    between atoms: C_1  and  C_2
REMARK    2  A    between atoms: C_2  and  C_3
REMARK    3  A    between atoms: C_3  and  N_4
REMARK    4  A    between atoms: N_4  and  C_5
REMARK    5  A    between atoms: C_5  and  C_6
REMARK    6  A    between atoms: C_6  and  C_7
REMARK    7  A    between atoms: C_8  and  C_10
REMARK    8  A    between atoms: C_10  and  C_11
REMARK    9  A    between atoms: C_12  and  C_13
REMARK   10  A    between atoms: C_23  and  N_24
REMARK                            x       y       z     vdW  Elec       q    Type
REMARK                         _______ _______ _______ _____ _____    ______ ____
ROOT
ATOM      1  C   UNL     1       3.405   5.891  19.309  0.00  0.00    +0.000 A 
ATOM      2  C   UNL     1       2.309   6.593  19.800  0.00  0.00    +0.000 A 
ATOM      3  N   UNL     1       1.583   5.808  20.673  0.00  0.00    +0.000 NA
ATOM      4  C   UNL     1       2.241   4.679  20.779  0.00  0.00    +0.000 A 
ATOM      5  C   UNL     1       1.960   3.506  21.538  0.00  0.00    +0.000 A 
ATOM      6  C   UNL     1       2.793   2.453  21.478  0.00  0.00    +0.000 A 
ATOM      7  C   UNL     1       3.994   2.502  20.656  0.00  0.00    +0.000 A 
ATOM      8  C   UNL     1       4.270   3.601  19.931  0.00  0.00    +0.000 A 
ATOM      9  N   UNL     1       3.386   4.683  19.986  0.00  0.00    +0.000 N 
ENDROOT
BRANCH   2  10
ATOM     10  C   UNL     1       1.864   7.937  19.445  0.00  0.00    +0.000 A 
ATOM     11  C   UNL     1       2.076   8.400  18.137  0.00  0.00    +0.000 A 
ATOM     12  C   UNL     1       1.682   9.686  17.754  0.00  0.00    +0.000 A 
ATOM     13  C   UNL     1       1.068  10.530  18.673  0.00  0.00    +0.000 A 
ATOM     14  C   UNL     1       0.824  10.079  19.967  0.00  0.00    +0.000 A 
ATOM     15  C   UNL     1       1.204   8.785  20.342  0.00  0.00    +0.000 A 
ENDBRANCH   2  10
BRANCH   7  16
ATOM     16  N   UNL     1       4.916   1.367  20.576  0.00  0.00    +0.000 N 
ATOM     17  O   UNL     1       5.657   1.143  21.545  0.00  0.00    +0.000 OA
ATOM     18  O   UNL     1       4.912   0.706  19.528  0.00  0.00    +0.000 OA
ENDBRANCH   7  16
BRANCH   1  19
ATOM     19  C   UNL     1       4.452   6.234  18.290  0.00  0.00    +0.000 C 
BRANCH  19  21
ATOM     20  N   UNL     1       5.692   4.969  16.511  0.00  0.00    +0.000 N 
ATOM     21  C   UNL     1       4.474   5.209  17.153  0.00  0.00    +0.000 C 
ATOM     22  O   UNL     1       3.448   4.606  16.826  0.00  0.00    +0.000 OA
BRANCH  20  23
ATOM     23  C   UNL     1       5.732   3.911  15.490  0.00  0.00    +0.000 C 
BRANCH  23  25
ATOM     24  C   UNL     1       6.228   3.545  12.993  0.00  0.00    +0.000 C 
ATOM     25  C   UNL     1       5.503   4.375  14.039  0.00  0.00    +0.000 C 
ENDBRANCH  23  25
ENDBRANCH  20  23
BRANCH  20  26
ATOM     26  C   UNL     1       6.969   5.586  16.898  0.00  0.00    +0.000 C 
BRANCH  26  27
ATOM     27  C   UNL     1       7.728   4.893  18.039  0.00  0.00    +0.000 C 
ATOM     28  C   UNL     1       7.917   5.734  19.291  0.00  0.00    +0.000 C 
ENDBRANCH  26  27
ENDBRANCH  20  26
ENDBRANCH  19  21
ENDBRANCH   1  19
TORSDOF 8
ENDMDL
MODEL 3
REMARK VINA RESULT:      -7.8      2.858      6.185
REMARK  Name = 
REMARK  10 active torsions:
REMARK  status: ('A' for Active; 'I' for Inactive)
REMARK    1  A    between atoms: C_1  and  C_2
REMARK    2  A    between atoms: C_2  and  C_3
REMARK    3  A    between atoms: C_3  and  N_4
REMARK    4  A    between atoms: N_4  and  C_5
REMARK    5  A    between atoms: C_5  and  C_6
REMARK    6  A    between atoms: C_6  and  C_7
REMARK    7  A    between atoms: C_8  and  C_10
REMARK    8  A    between atoms: C_10  and  C_11
REMARK    9  A    between atoms: C_12  and  C_13
REMARK   10  A    between atoms: C_23  and  N_24
REMARK                            x       y       z     vdW  Elec       q    Type
REMARK                         _______ _______ _______ _____ _____    ______ ____
ROOT
ATOM      1  C   UNL     1       2.770   6.837  18.241  0.00  0.00    +0.000 A 
ATOM      2  C   UNL     1       2.522   5.775  19.104  0.00  0.00    +0.000 A 
ATOM      3  N   UNL     1       1.864   6.214  20.236  0.00  0.00    +0.000 NA
ATOM      4  C   UNL     1       1.646   7.493  20.055  0.00  0.00    +0.000 A 
ATOM      5  C   UNL     1       1.010   8.456  20.891  0.00  0.00    +0.000 A 
ATOM      6  C   UNL     1       0.910   9.734  20.487  0.00  0.00    +0.000 A 
ATOM      7  C   UNL     1       1.433  10.147  19.192  0.00  0.00    +0.000 A 
ATOM      8  C   UNL     1       2.040   9.249  18.393  0.00  0.00    +0.000 A 
ATOM      9  N   UNL     1       2.154   7.927  18.833  0.00  0.00    +0.000 N 
ENDROOT
BRANCH   2  10
ATOM     10  C   UNL     1       2.927   4.379  18.960  0.00  0.00    +0.000 A 
ATOM     11  C   UNL     1       2.172   3.535  18.132  0.00  0.00    +0.000 A 
ATOM     12  C   UNL     1       2.509   2.187  17.975  0.00  0.00    +0.000 A 
ATOM     13  C   UNL     1       3.610   1.661  18.645  0.00  0.00    +0.000 A 
ATOM     14  C   UNL     1       4.387   2.490  19.449  0.00  0.00    +0.000 A 
ATOM     15  C   UNL     1       4.056   3.842  19.589  0.00  0.00    +0.000 A 
ENDBRANCH   2  10
BRANCH   7  16
ATOM     16  N   UNL     1       1.335  11.533  18.731  0.00  0.00    +0.000 N 
ATOM     17  O   UNL     1       2.359  12.081  18.297  0.00  0.00    +0.000 OA
ATOM     18  O   UNL     1       0.229  12.084  18.825  0.00  0.00    +0.000 OA
ENDBRANCH   7  16
BRANCH   1  19
ATOM     19  C   UNL     1       3.510   6.930  16.939  0.00  0.00    +0.000 C 
BRANCH  19  21
ATOM     20  N   UNL     1       5.671   5.669  16.721  0.00  0.00    +0.000 N 
ATOM     21  C   UNL     1       5.023   6.829  17.154  0.00  0.00    +0.000 C 
ATOM     22  O   UNL     1       5.649   7.753  17.681  0.00  0.00    +0.000 OA
BRANCH  20  23
ATOM     23  C   UNL     1       7.137   5.619  16.836  0.00  0.00    +0.000 C 
BRANCH  23  25
ATOM     24  C   UNL     1       7.849   5.639  19.307  0.00  0.00    +0.000 C 
ATOM     25  C   UNL     1       7.685   4.824  18.035  0.00  0.00    +0.000 C 
ENDBRANCH  23  25
ENDBRANCH  20  23
BRANCH  20  26
ATOM     26  C   UNL     1       5.008   4.565  16.012  0.00  0.00    +0.000 C 
BRANCH  26  27
ATOM     27  C   UNL     1       5.931   3.628  15.220  0.00  0.00    +0.000 C 
ATOM     28  C   UNL     1       6.044   3.938  13.736  0.00  0.00    +0.000 C 
ENDBRANCH  26  27
ENDBRANCH  20  26
ENDBRANCH  19  21
ENDBRANCH   1  19
TORSDOF 8
ENDMDL
MODEL 4
REMARK VINA RESULT:      -7.7      2.848      6.139
REMARK  Name = 
REMARK  10 active torsions:
REMARK  status: ('A' for Active; 'I' for Inactive)
REMARK    1  A    between atoms: C_1  and  C_2
REMARK    2  A    between atoms: C_2  and  C_3
REMARK    3  A    between atoms: C_3  and  N_4
REMARK    4  A    between atoms: N_4  and  C_5
REMARK    5  A    between atoms: C_5  and  C_6
REMARK    6  A    between atoms: C_6  and  C_7
REMARK    7  A    between atoms: C_8  and  C_10
REMARK    8  A    between atoms: C_10  and  C_11
REMARK    9  A    between atoms: C_12  and  C_13
REMARK   10  A    between atoms: C_23  and  N_24
REMARK                            x       y       z     vdW  Elec       q    Type
REMARK                         _______ _______ _______ _____ _____    ______ ____
ROOT
ATOM      1  C   UNL     1       2.734   6.794  18.340  0.00  0.00    +0.000 A 
ATOM      2  C   UNL     1       2.491   5.712  19.178  0.00  0.00    +0.000 A 
ATOM      3  N   UNL     1       1.853   6.125  20.330  0.00  0.00    +0.000 NA
ATOM      4  C   UNL     1       1.641   7.410  20.186  0.00  0.00    +0.000 A 
ATOM      5  C   UNL     1       1.024   8.355  21.057  0.00  0.00    +0.000 A 
ATOM      6  C   UNL     1       0.927   9.644  20.688  0.00  0.00    +0.000 A 
ATOM      7  C   UNL     1       1.434  10.087  19.397  0.00  0.00    +0.000 A 
ATOM      8  C   UNL     1       2.023   9.207  18.566  0.00  0.00    +0.000 A 
ATOM      9  N   UNL     1       2.135   7.873  18.969  0.00  0.00    +0.000 N 
ENDROOT
BRANCH   2  10
ATOM     10  C   UNL     1       2.883   4.318  18.991  0.00  0.00    +0.000 A 
ATOM     11  C   UNL     1       3.984   3.820  19.706  0.00  0.00    +0.000 A 
ATOM     12  C   UNL     1       4.409   2.497  19.550  0.00  0.00    +0.000 A 
ATOM     13  C   UNL     1       3.738   1.649  18.674  0.00  0.00    +0.000 A 
ATOM     14  C   UNL     1       2.628   2.116  17.977  0.00  0.00    +0.000 A 
ATOM     15  C   UNL     1       2.195   3.436  18.150  0.00  0.00    +0.000 A 
ENDBRANCH   2  10
BRANCH   7  16
ATOM     16  N   UNL     1       1.339  11.486  18.975  0.00  0.00    +0.000 N 
ATOM     17  O   UNL     1       0.364  12.150  19.358  0.00  0.00    +0.000 OA
ATOM     18  O   UNL     1       2.236  11.917  18.237  0.00  0.00    +0.000 OA
ENDBRANCH   7  16
BRANCH   1  19
ATOM     19  C   UNL     1       3.455   6.917  17.029  0.00  0.00    +0.000 C 
BRANCH  19  21
ATOM     20  N   UNL     1       5.621   5.668  16.799  0.00  0.00    +0.000 N 
ATOM     21  C   UNL     1       4.972   6.830  17.223  0.00  0.00    +0.000 C 
ATOM     22  O   UNL     1       5.599   7.767  17.726  0.00  0.00    +0.000 OA
BRANCH  20  23
ATOM     23  C   UNL     1       7.089   5.630  16.892  0.00  0.00    +0.000 C 
BRANCH  23  25
ATOM     24  C   UNL     1       7.792   5.668  19.366  0.00  0.00    +0.000 C 
ATOM     25  C   UNL     1       7.661   4.851  18.091  0.00  0.00    +0.000 C 
ENDBRANCH  23  25
ENDBRANCH  20  23
BRANCH  20  26
ATOM     26  C   UNL     1       4.955   4.548  16.117  0.00  0.00    +0.000 C 
BRANCH  26  27
ATOM     27  C   UNL     1       5.861   3.655  15.257  0.00  0.00    +0.000 C 
ATOM     28  C   UNL     1       5.943   4.045  13.790  0.00  0.00    +0.000 C 
ENDBRANCH  26  27
ENDBRANCH  20  26
ENDBRANCH  19  21
ENDBRANCH   1  19
TORSDOF 8
ENDMDL
MODEL 5
REMARK VINA RESULT:      -7.6      5.603      9.352
REMARK  Name = 
REMARK  10 active torsions:
REMARK  status: ('A' for Active; 'I' for Inactive)
REMARK    1  A    between atoms: C_1  and  C_2
REMARK    2  A    between atoms: C_2  and  C_3
REMARK    3  A    between atoms: C_3  and  N_4
REMARK    4  A    between atoms: N_4  and  C_5
REMARK    5  A    between atoms: C_5  and  C_6
REMARK    6  A    between atoms: C_6  and  C_7
REMARK    7  A    between atoms: C_8  and  C_10
REMARK    8  A    between atoms: C_10  and  C_11
REMARK    9  A    between atoms: C_12  and  C_13
REMARK   10  A    between atoms: C_23  and  N_24
REMARK                            x       y       z     vdW  Elec       q    Type
REMARK                         _______ _______ _______ _____ _____    ______ ____
ROOT
ATOM      1  C   UNL     1      -0.852  11.684  20.985  0.00  0.00    +0.000 A 
ATOM      2  C   UNL     1      -1.023  11.700  22.364  0.00  0.00    +0.000 A 
ATOM      3  N   UNL     1      -0.379  10.625  22.944  0.00  0.00    +0.000 NA
ATOM      4  C   UNL     1       0.232   9.999  21.969  0.00  0.00    +0.000 A 
ATOM      5  C   UNL     1       1.044   8.827  21.979  0.00  0.00    +0.000 A 
ATOM      6  C   UNL     1       1.564   8.362  20.830  0.00  0.00    +0.000 A 
ATOM      7  C   UNL     1       1.322   9.052  19.571  0.00  0.00    +0.000 A 
ATOM      8  C   UNL     1       0.555  10.158  19.546  0.00  0.00    +0.000 A 
ATOM      9  N   UNL     1       0.003  10.621  20.744  0.00  0.00    +0.000 N 
ENDROOT
BRANCH   2  10
ATOM     10  C   UNL     1      -1.814  12.628  23.167  0.00  0.00    +0.000 A 
ATOM     11  C   UNL     1      -3.076  12.223  23.628  0.00  0.00    +0.000 A 
ATOM     12  C   UNL     1      -3.878  13.082  24.386  0.00  0.00    +0.000 A 
ATOM     13  C   UNL     1      -3.429  14.361  24.697  0.00  0.00    +0.000 A 
ATOM     14  C   UNL     1      -2.169  14.771  24.272  0.00  0.00    +0.000 A 
ATOM     15  C   UNL     1      -1.362  13.903  23.529  0.00  0.00    +0.000 A 
ENDBRANCH   2  10
BRANCH   7  16
ATOM     16  N   UNL     1       1.879   8.564  18.309  0.00  0.00    +0.000 N 
ATOM     17  O   UNL     1       2.225   7.374  18.241  0.00  0.00    +0.000 OA
ATOM     18  O   UNL     1       1.991   9.381  17.385  0.00  0.00    +0.000 OA
ENDBRANCH   7  16
BRANCH   1  19
ATOM     19  C   UNL     1      -1.396  12.553  19.888  0.00  0.00    +0.000 C 
BRANCH  19  21
ATOM     20  N   UNL     1      -3.144  11.574  18.375  0.00  0.00    +0.000 N 
ATOM     21  C   UNL     1      -2.858  12.211  19.586  0.00  0.00    +0.000 C 
ATOM     22  O   UNL     1      -3.749  12.480  20.395  0.00  0.00    +0.000 OA
BRANCH  20  23
ATOM     23  C   UNL     1      -4.533  11.155  18.134  0.00  0.00    +0.000 C 
BRANCH  23  25
ATOM     24  C   UNL     1      -6.890  12.113  17.755  0.00  0.00    +0.000 C 
ATOM     25  C   UNL     1      -5.416  12.173  17.388  0.00  0.00    +0.000 C 
ENDBRANCH  23  25
ENDBRANCH  20  23
BRANCH  20  26
ATOM     26  C   UNL     1      -2.128  11.149  17.401  0.00  0.00    +0.000 C 
BRANCH  26  27
ATOM     27  C   UNL     1      -2.513   9.961  16.509  0.00  0.00    +0.000 C 
ATOM     28  C   UNL     1      -2.860  10.320  15.073  0.00  0.00    +0.000 C 
ENDBRANCH  26  27
ENDBRANCH  20  26
ENDBRANCH  19  21
ENDBRANCH   1  19
TORSDOF 8
ENDMDL
MODEL 6
REMARK VINA RESULT:      -7.3      1.110      2.410
REMARK  Name = 
REMARK  10 active torsions:
REMARK  status: ('A' for Active; 'I' for Inactive)
REMARK    1  A    between atoms: C_1  and  C_2
REMARK    2  A    between atoms: C_2  and  C_3
REMARK    3  A    between atoms: C_3  and  N_4
REMARK    4  A    between atoms: N_4  and  C_5
REMARK    5  A    between atoms: C_5  and  C_6
REMARK    6  A    between atoms: C_6  and  C_7
REMARK    7  A    between atoms: C_8  and  C_10
REMARK    8  A    between atoms: C_10  and  C_11
REMARK    9  A    between atoms: C_12  and  C_13
REMARK   10  A    between atoms: C_23  and  N_24
REMARK                            x       y       z     vdW  Elec       q    Type
REMARK                         _______ _______ _______ _____ _____    ______ ____
ROOT
ATOM      1  C   UNL     1       2.843   6.110  18.729  0.00  0.00    +0.000 A 
ATOM      2  C   UNL     1       2.135   6.954  19.577  0.00  0.00    +0.000 A 
ATOM      3  N   UNL     1       1.775   6.289  20.732  0.00  0.00    +0.000 NA
ATOM      4  C   UNL     1       2.301   5.092  20.640  0.00  0.00    +0.000 A 
ATOM      5  C   UNL     1       2.255   3.984  21.535  0.00  0.00    +0.000 A 
ATOM      6  C   UNL     1       2.875   2.836  21.214  0.00  0.00    +0.000 A 
ATOM      7  C   UNL     1       3.611   2.714  19.964  0.00  0.00    +0.000 A 
ATOM      8  C   UNL     1       3.660   3.751  19.106  0.00  0.00    +0.000 A 
ATOM      9  N   UNL     1       2.994   4.933  19.443  0.00  0.00    +0.000 N 
ENDROOT
BRANCH   2  10
ATOM     10  C   UNL     1       1.716   8.333  19.338  0.00  0.00    +0.000 A 
ATOM     11  C   UNL     1       1.111   9.049  20.382  0.00  0.00    +0.000 A 
ATOM     12  C   UNL     1       0.677  10.366  20.198  0.00  0.00    +0.000 A 
ATOM     13  C   UNL     1       0.843  10.988  18.964  0.00  0.00    +0.000 A 
ATOM     14  C   UNL     1       1.466  10.303  17.925  0.00  0.00    +0.000 A 
ATOM     15  C   UNL     1       1.914   8.992  18.119  0.00  0.00    +0.000 A 
ENDBRANCH   2  10
BRANCH   7  16
ATOM     16  N   UNL     1       4.295   1.473  19.594  0.00  0.00    +0.000 N 
ATOM     17  O   UNL     1       3.940   0.895  18.556  0.00  0.00    +0.000 OA
ATOM     18  O   UNL     1       5.179   1.063  20.359  0.00  0.00    +0.000 OA
ENDBRANCH   7  16
BRANCH   1  19
ATOM     19  C   UNL     1       3.387   6.294  17.341  0.00  0.00    +0.000 C 
BRANCH  19  21
ATOM     20  N   UNL     1       5.829   5.931  16.886  0.00  0.00    +0.000 N 
ATOM     21  C   UNL     1       4.837   6.784  17.376  0.00  0.00    +0.000 C 
ATOM     22  O   UNL     1       5.114   7.905  17.812  0.00  0.00    +0.000 OA
BRANCH  20  23
ATOM     23  C   UNL     1       7.206   6.445  16.825  0.00  0.00    +0.000 C 
BRANCH  23  25
ATOM     24  C   UNL     1       7.918   5.733  19.192  0.00  0.00    +0.000 C 
ATOM     25  C   UNL     1       7.823   6.858  18.174  0.00  0.00    +0.000 C 
ENDBRANCH  23  25
ENDBRANCH  20  23
BRANCH  20  26
ATOM     26  C   UNL     1       5.566   4.619  16.276  0.00  0.00    +0.000 C 
BRANCH  26  27
ATOM     27  C   UNL     1       6.610   4.133  15.260  0.00  0.00    +0.000 C 
ATOM     28  C   UNL     1       6.088   3.937  13.845  0.00  0.00    +0.000 C 
ENDBRANCH  26  27
ENDBRANCH  20  26
ENDBRANCH  19  21
ENDBRANCH   1  19
TORSDOF 8
ENDMDL
MODEL 7
REMARK VINA RESULT:      -7.3      1.074      2.629
REMARK  Name = 
REMARK  10 active torsions:
REMARK  status: ('A' for Active; 'I' for Inactive)
REMARK    1  A    between atoms: C_1  and  C_2
REMARK    2  A    between atoms: C_2  and  C_3
REMARK    3  A    between atoms: C_3  and  N_4
REMARK    4  A    between atoms: N_4  and  C_5
REMARK    5  A    between atoms: C_5  and  C_6
REMARK    6  A    between atoms: C_6  and  C_7
REMARK    7  A    between atoms: C_8  and  C_10
REMARK    8  A    between atoms: C_10  and  C_11
REMARK    9  A    between atoms: C_12  and  C_13
REMARK   10  A    between atoms: C_23  and  N_24
REMARK                            x       y       z     vdW  Elec       q    Type
REMARK                         _______ _______ _______ _____ _____    ______ ____
ROOT
ATOM      1  C   UNL     1       2.824   6.274  18.720  0.00  0.00    +0.000 A 
ATOM      2  C   UNL     1       2.080   7.100  19.555  0.00  0.00    +0.000 A 
ATOM      3  N   UNL     1       1.655   6.405  20.670  0.00  0.00    +0.000 NA
ATOM      4  C   UNL     1       2.174   5.206  20.568  0.00  0.00    +0.000 A 
ATOM      5  C   UNL     1       2.071   4.072  21.427  0.00  0.00    +0.000 A 
ATOM      6  C   UNL     1       2.698   2.928  21.103  0.00  0.00    +0.000 A 
ATOM      7  C   UNL     1       3.496   2.835  19.889  0.00  0.00    +0.000 A 
ATOM      8  C   UNL     1       3.599   3.897  19.067  0.00  0.00    +0.000 A 
ATOM      9  N   UNL     1       2.927   5.075  19.405  0.00  0.00    +0.000 N 
ENDROOT
BRANCH   2  10
ATOM     10  C   UNL     1       1.686   8.489  19.337  0.00  0.00    +0.000 A 
ATOM     11  C   UNL     1       2.047   9.117  18.135  0.00  0.00    +0.000 A 
ATOM     12  C   UNL     1       1.708  10.451  17.886  0.00  0.00    +0.000 A 
ATOM     13  C   UNL     1       1.000  11.179  18.837  0.00  0.00    +0.000 A 
ATOM     14  C   UNL     1       0.609  10.565  20.023  0.00  0.00    +0.000 A 
ATOM     15  C   UNL     1       0.935   9.225  20.261  0.00  0.00    +0.000 A 
ENDBRANCH   2  10
BRANCH   7  16
ATOM     16  N   UNL     1       4.187   1.599  19.518  0.00  0.00    +0.000 N 
ATOM     17  O   UNL     1       5.140   1.226  20.219  0.00  0.00    +0.000 OA
ATOM     18  O   UNL     1       3.786   1.008  18.506  0.00  0.00    +0.000 OA
ENDBRANCH   7  16
BRANCH   1  19
ATOM     19  C   UNL     1       3.440   6.494  17.369  0.00  0.00    +0.000 C 
BRANCH  19  21
ATOM     20  N   UNL     1       5.684   5.536  16.777  0.00  0.00    +0.000 N 
ATOM     21  C   UNL     1       4.968   6.525  17.456  0.00  0.00    +0.000 C 
ATOM     22  O   UNL     1       5.546   7.408  18.097  0.00  0.00    +0.000 OA
BRANCH  20  23
ATOM     23  C   UNL     1       7.152   5.629  16.779  0.00  0.00    +0.000 C 
BRANCH  23  25
ATOM     24  C   UNL     1       8.043   5.627  19.191  0.00  0.00    +0.000 C 
ATOM     25  C   UNL     1       7.868   4.849  17.897  0.00  0.00    +0.000 C 
ENDBRANCH  23  25
ENDBRANCH  20  23
BRANCH  20  26
ATOM     26  C   UNL     1       5.070   4.504  15.928  0.00  0.00    +0.000 C 
BRANCH  26  27
ATOM     27  C   UNL     1       6.041   3.676  15.074  0.00  0.00    +0.000 C 
ATOM     28  C   UNL     1       5.944   3.914  13.575  0.00  0.00    +0.000 C 
ENDBRANCH  26  27
ENDBRANCH  20  26
ENDBRANCH  19  21
ENDBRANCH   1  19
TORSDOF 8
ENDMDL
MODEL 8
REMARK VINA RESULT:      -7.2      1.204      1.466
REMARK  Name = 
REMARK  10 active torsions:
REMARK  status: ('A' for Active; 'I' for Inactive)
REMARK    1  A    between atoms: C_1  and  C_2
REMARK    2  A    between atoms: C_2  and  C_3
REMARK    3  A    between atoms: C_3  and  N_4
REMARK    4  A    between atoms: N_4  and  C_5
REMARK    5  A    between atoms: C_5  and  C_6
REMARK    6  A    between atoms: C_6  and  C_7
REMARK    7  A    between atoms: C_8  and  C_10
REMARK    8  A    between atoms: C_10  and  C_11
REMARK    9  A    between atoms: C_12  and  C_13
REMARK   10  A    between atoms: C_23  and  N_24
REMARK                            x       y       z     vdW  Elec       q    Type
REMARK                         _______ _______ _______ _____ _____    ______ ____
ROOT
ATOM      1  C   UNL     1       3.048   6.218  19.688  0.00  0.00    +0.000 A 
ATOM      2  C   UNL     1       1.863   6.787  20.142  0.00  0.00    +0.000 A 
ATOM      3  N   UNL     1       0.960   5.805  20.500  0.00  0.00    +0.000 NA
ATOM      4  C   UNL     1       1.585   4.664  20.342  0.00  0.00    +0.000 A 
ATOM      5  C   UNL     1       1.145   3.325  20.557  0.00  0.00    +0.000 A 
ATOM      6  C   UNL     1       1.978   2.299  20.314  0.00  0.00    +0.000 A 
ATOM      7  C   UNL     1       3.336   2.539  19.846  0.00  0.00    +0.000 A 
ATOM      8  C   UNL     1       3.764   3.797  19.635  0.00  0.00    +0.000 A 
ATOM      9  N   UNL     1       2.882   4.856  19.874  0.00  0.00    +0.000 N 
ENDROOT
BRANCH   2  10
ATOM     10  C   UNL     1       1.501   8.201  20.196  0.00  0.00    +0.000 A 
ATOM     11  C   UNL     1       1.237   8.787  21.444  0.00  0.00    +0.000 A 
ATOM     12  C   UNL     1       0.870  10.133  21.546  0.00  0.00    +0.000 A 
ATOM     13  C   UNL     1       0.762  10.915  20.400  0.00  0.00    +0.000 A 
ATOM     14  C   UNL     1       1.046  10.358  19.157  0.00  0.00    +0.000 A 
ATOM     15  C   UNL     1       1.430   9.016  19.061  0.00  0.00    +0.000 A 
ENDBRANCH   2  10
BRANCH   7  16
ATOM     16  N   UNL     1       4.260   1.436  19.575  0.00  0.00    +0.000 N 
ATOM     17  O   UNL     1       5.209   1.261  20.354  0.00  0.00    +0.000 OA
ATOM     18  O   UNL     1       4.045   0.752  18.565  0.00  0.00    +0.000 OA
ENDBRANCH   7  16
BRANCH   1  19
ATOM     19  C   UNL     1       4.299   6.814  19.112  0.00  0.00    +0.000 C 
BRANCH  19  21
ATOM     20  N   UNL     1       5.448   6.019  17.025  0.00  0.00    +0.000 N 
ATOM     21  C   UNL     1       4.338   6.653  17.590  0.00  0.00    +0.000 C 
ATOM     22  O   UNL     1       3.408   7.061  16.888  0.00  0.00    +0.000 OA
BRANCH  20  23
ATOM     23  C   UNL     1       5.434   5.776  15.575  0.00  0.00    +0.000 C 
BRANCH  23  25
ATOM     24  C   UNL     1       6.056   3.978  13.844  0.00  0.00    +0.000 C 
ATOM     25  C   UNL     1       6.493   4.785  15.055  0.00  0.00    +0.000 C 
ENDBRANCH  23  25
ENDBRANCH  20  23
BRANCH  20  26
ATOM     26  C   UNL     1       6.552   5.435  17.802  0.00  0.00    +0.000 C 
BRANCH  26  27
ATOM     27  C   UNL     1       7.652   6.413  18.239  0.00  0.00    +0.000 C 
ATOM     28  C   UNL     1       7.639   7.757  17.528  0.00  0.00    +0.000 C 
ENDBRANCH  26  27
ENDBRANCH  20  26
ENDBRANCH  19  21
ENDBRANCH   1  19
TORSDOF 8
ENDMDL
MODEL 9
REMARK VINA RESULT:      -7.2      3.033      6.274
REMARK  Name = 
REMARK  10 active torsions:
REMARK  status: ('A' for Active; 'I' for Inactive)
REMARK    1  A    between atoms: C_1  and  C_2
REMARK    2  A    between atoms: C_2  and  C_3
REMARK    3  A    between atoms: C_3  and  N_4
REMARK    4  A    between atoms: N_4  and  C_5
REMARK    5  A    between atoms: C_5  and  C_6
REMARK    6  A    between atoms: C_6  and  C_7
REMARK    7  A    between atoms: C_8  and  C_10
REMARK    8  A    between atoms: C_10  and  C_11
REMARK    9  A    between atoms: C_12  and  C_13
REMARK   10  A    between atoms: C_23  and  N_24
REMARK                            x       y       z     vdW  Elec       q    Type
REMARK                         _______ _______ _______ _____ _____    ______ ____
ROOT
ATOM      1  C   UNL     1       1.726   7.334  19.222  0.00  0.00    +0.000 A 
ATOM      2  C   UNL     1       1.486   6.614  20.387  0.00  0.00    +0.000 A 
ATOM      3  N   UNL     1       1.192   7.467  21.431  0.00  0.00    +0.000 NA
ATOM      4  C   UNL     1       1.178   8.674  20.920  0.00  0.00    +0.000 A 
ATOM      5  C   UNL     1       0.934   9.940  21.529  0.00  0.00    +0.000 A 
ATOM      6  C   UNL     1       0.983  11.060  20.789  0.00  0.00    +0.000 A 
ATOM      7  C   UNL     1       1.269  10.997  19.362  0.00  0.00    +0.000 A 
ATOM      8  C   UNL     1       1.505   9.809  18.775  0.00  0.00    +0.000 A 
ATOM      9  N   UNL     1       1.470   8.652  19.559  0.00  0.00    +0.000 N 
ENDROOT
BRANCH   2  10
ATOM     10  C   UNL     1       1.584   5.172  20.596  0.00  0.00    +0.000 A 
ATOM     11  C   UNL     1       0.705   4.324  19.904  0.00  0.00    +0.000 A 
ATOM     12  C   UNL     1       0.748   2.938  20.083  0.00  0.00    +0.000 A 
ATOM     13  C   UNL     1       1.674   2.377  20.957  0.00  0.00    +0.000 A 
ATOM     14  C   UNL     1       2.572   3.199  21.631  0.00  0.00    +0.000 A 
ATOM     15  C   UNL     1       2.537   4.584  21.436  0.00  0.00    +0.000 A 
ENDBRANCH   2  10
BRANCH   7  16
ATOM     16  N   UNL     1       1.327  12.205  18.537  0.00  0.00    +0.000 N 
ATOM     17  O   UNL     1       2.397  12.480  17.974  0.00  0.00    +0.000 OA
ATOM     18  O   UNL     1       0.300  12.894  18.469  0.00  0.00    +0.000 OA
ENDBRANCH   7  16
BRANCH   1  19
ATOM     19  C   UNL     1       2.158   6.916  17.846  0.00  0.00    +0.000 C 
BRANCH  19  21
ATOM     20  N   UNL     1       4.272   5.580  17.617  0.00  0.00    +0.000 N 
ATOM     21  C   UNL     1       3.685   6.841  17.746  0.00  0.00    +0.000 C 
ATOM     22  O   UNL     1       4.370   7.868  17.764  0.00  0.00    +0.000 OA
BRANCH  20  23
ATOM     23  C   UNL     1       5.728   5.519  17.418  0.00  0.00    +0.000 C 
BRANCH  23  25
ATOM     24  C   UNL     1       6.588   4.152  15.416  0.00  0.00    +0.000 C 
ATOM     25  C   UNL     1       6.200   5.520  15.952  0.00  0.00    +0.000 C 
ENDBRANCH  23  25
ENDBRANCH  20  23
BRANCH  20  26
ATOM     26  C   UNL     1       3.518   4.322  17.504  0.00  0.00    +0.000 C 
BRANCH  26  27
ATOM     27  C   UNL     1       4.096   3.125  18.272  0.00  0.00    +0.000 C 
ATOM     28  C   UNL     1       3.491   1.777  17.912  0.00  0.00    +0.000 C 
ENDBRANCH  26  27
ENDBRANCH  20  26
ENDBRANCH  19  21
ENDBRANCH   1  19
TORSDOF 8
ENDMDL
