MODEL 1
REMARK VINA RESULT:      -9.1      0.000      0.000
REMARK  Name = 
REMARK  12 active torsions:
REMARK  status: ('A' for Active; 'I' for Inactive)
REMARK    1  A    between atoms: C_1  and  C_2
REMARK    2  A    between atoms: C_2  and  C_3
REMARK    3  A    between atoms: C_2  and  C_4
REMARK    4  A    between atoms: C_4  and  N_5
REMARK    5  A    between atoms: C_6  and  C_8
REMARK    6  A    between atoms: C_14  and  C_15
REMARK    7  A    between atoms: C_18  and  C_19
REMARK    8  A    between atoms: C_19  and  O_20
REMARK    9  A    between atoms: O_20  and  C_21
REMARK   10  A    between atoms: C_21  and  C_23
REMARK   11  A    between atoms: C_26  and  O_27
REMARK   12  A    between atoms: C_29  and  O_30
REMARK                            x       y       z     vdW  Elec       q    Type
REMARK                         _______ _______ _______ _____ _____    ______ ____
ROOT
ATOM      1  C   UNL     1       0.978   9.651  19.972  0.00  0.00    +0.000 A 
ATOM      2  C   UNL     1       1.394   9.900  18.658  0.00  0.00    +0.000 A 
ATOM      3  C   UNL     1       2.162   8.967  17.963  0.00  0.00    +0.000 A 
ATOM      4  C   UNL     1       2.531   7.761  18.570  0.00  0.00    +0.000 A 
ATOM      5  C   UNL     1       2.128   7.509  19.887  0.00  0.00    +0.000 A 
ATOM      6  C   UNL     1       1.363   8.449  20.584  0.00  0.00    +0.000 A 
ENDROOT
BRANCH   1  13
ATOM      7  C   UNL     1      -2.784  12.631  20.616  0.00  0.00    +0.000 A 
ATOM      8  C   UNL     1      -3.071  13.605  21.593  0.00  0.00    +0.000 A 
ATOM      9  C   UNL     1      -2.212  13.836  22.675  0.00  0.00    +0.000 A 
ATOM     10  C   UNL     1      -1.033  13.097  22.828  0.00  0.00    +0.000 A 
ATOM     11  C   UNL     1      -0.729  12.129  21.864  0.00  0.00    +0.000 A 
ATOM     12  N   UNL     1       0.343  11.284  21.761  0.00  0.00    +0.000 NA
ATOM     13  C   UNL     1       0.123  10.626  20.637  0.00  0.00    +0.000 A 
ATOM     14  O   UNL     1      -1.047  10.958  20.006  0.00  0.00    +0.000 OA
ATOM     15  C   UNL     1      -1.594  11.932  20.798  0.00  0.00    +0.000 A 
BRANCH   7  17
ATOM     16  N   UNL     1      -3.195  11.767  18.376  0.00  0.00    +0.000 N 
ATOM     17  C   UNL     1      -3.713  12.393  19.488  0.00  0.00    +0.000 C 
ATOM     18  O   UNL     1      -4.886  12.745  19.578  0.00  0.00    +0.000 OA
ATOM     19  H   UNL     1      -2.215  11.508  18.368  0.00  0.00    +0.000 HD
BRANCH  16  20
ATOM     20  C   UNL     1      -3.979  11.497  17.187  0.00  0.00    +0.000 C 
BRANCH  20  22
ATOM     21  C   UNL     1      -3.319  10.598  14.909  0.00  0.00    +0.000 C 
ATOM     22  C   UNL     1      -3.467  10.281  16.399  0.00  0.00    +0.000 C 
ATOM     23  C   UNL     1      -2.123   9.814  16.962  0.00  0.00    +0.000 C 
ENDBRANCH  20  22
ENDBRANCH  16  20
ENDBRANCH   7  17
ENDBRANCH   1  13
BRANCH   4  24
ATOM     24  C   UNL     1       3.372   6.766  17.811  0.00  0.00    +0.000 C 
BRANCH  24  25
ATOM     25  O   UNL     1       2.614   5.584  17.531  0.00  0.00    +0.000 OA
BRANCH  25  26
ATOM     26  C   UNL     1       3.266   4.421  17.766  0.00  0.00    +0.000 C 
ATOM     27  O   UNL     1       4.193   3.965  17.114  0.00  0.00    +0.000 OA
BRANCH  26  28
ATOM     28  C   UNL     1       2.781   3.781  19.009  0.00  0.00    +0.000 A 
ATOM     29  C   UNL     1       1.431   3.982  19.342  0.00  0.00    +0.000 A 
ATOM     30  C   UNL     1       0.907   3.454  20.524  0.00  0.00    +0.000 A 
ATOM     31  C   UNL     1       1.736   2.730  21.371  0.00  0.00    +0.000 A 
ATOM     32  C   UNL     1       3.076   2.522  21.058  0.00  0.00    +0.000 A 
ATOM     33  C   UNL     1       3.602   3.050  19.877  0.00  0.00    +0.000 A 
BRANCH  31  34
ATOM     34  O   UNL     1       1.274   2.205  22.541  0.00  0.00    +0.000 OA
ATOM     35  H   UNL     1       1.961   1.633  22.923  0.00  0.00    +0.000 HD
ENDBRANCH  31  34
BRANCH  33  36
ATOM     36  O   UNL     1       4.931   2.877  19.608  0.00  0.00    +0.000 OA
ATOM     37  H   UNL     1       5.338   2.354  20.319  0.00  0.00    +0.000 HD
ENDBRANCH  33  36
ENDBRANCH  26  28
ENDBRANCH  25  26
ENDBRANCH  24  25
ENDBRANCH   4  24
TORSDOF 10
ENDMDL
MODEL 2
REMARK VINA RESULT:      -9.1      2.578      9.639
REMARK  Name = 
REMARK  12 active torsions:
REMARK  status: ('A' for Active; 'I' for Inactive)
REMARK    1  A    between atoms: C_1  and  C_2
REMARK    2  A    between atoms: C_2  and  C_3
REMARK    3  A    between atoms: C_2  and  C_4
REMARK    4  A    between atoms: C_4  and  N_5
REMARK    5  A    between atoms: C_6  and  C_8
REMARK    6  A    between atoms: C_14  and  C_15
REMARK    7  A    between atoms: C_18  and  C_19
REMARK    8  A    between atoms: C_19  and  O_20
REMARK    9  A    between atoms: O_20  and  C_21
REMARK   10  A    between atoms: C_21  and  C_23
REMARK   11  A    between atoms: C_26  and  O_27
REMARK   12  A    between atoms: C_29  and  O_30
REMARK                            x       y       z     vdW  Elec       q    Type
REMARK                         _______ _______ _______ _____ _____    ______ ____
ROOT
ATOM      1  C   UNL     1       2.333   8.241  18.490  0.00  0.00    +0.000 A 
ATOM      2  C   UNL     1       2.029   9.441  17.836  0.00  0.00    +0.000 A 
ATOM      3  C   UNL     1       1.261  10.422  18.463  0.00  0.00    +0.000 A 
ATOM      4  C   UNL     1       0.780  10.221  19.762  0.00  0.00    +0.000 A 
ATOM      5  C   UNL     1       1.070   9.019  20.418  0.00  0.00    +0.000 A 
ATOM      6  C   UNL     1       1.835   8.035  19.785  0.00  0.00    +0.000 A 
ENDROOT
BRANCH   1  13
ATOM      7  C   UNL     1       4.290   3.935  17.453  0.00  0.00    +0.000 A 
ATOM      8  C   UNL     1       5.375   3.553  16.640  0.00  0.00    +0.000 A 
ATOM      9  C   UNL     1       6.099   4.491  15.891  0.00  0.00    +0.000 A 
ATOM     10  C   UNL     1       5.759   5.849  15.918  0.00  0.00    +0.000 A 
ATOM     11  C   UNL     1       4.687   6.247  16.725  0.00  0.00    +0.000 A 
ATOM     12  N   UNL     1       4.154   7.488  16.944  0.00  0.00    +0.000 NA
ATOM     13  C   UNL     1       3.190   7.271  17.821  0.00  0.00    +0.000 A 
ATOM     14  O   UNL     1       3.029   5.955  18.170  0.00  0.00    +0.000 OA
ATOM     15  C   UNL     1       3.998   5.296  17.463  0.00  0.00    +0.000 A 
BRANCH   7  17
ATOM     16  N   UNL     1       2.191   3.174  18.428  0.00  0.00    +0.000 N 
ATOM     17  C   UNL     1       3.531   2.926  18.226  0.00  0.00    +0.000 C 
ATOM     18  O   UNL     1       4.101   1.922  18.646  0.00  0.00    +0.000 OA
ATOM     19  H   UNL     1       1.787   4.025  18.055  0.00  0.00    +0.000 HD
BRANCH  16  20
ATOM     20  C   UNL     1       1.332   2.290  19.189  0.00  0.00    +0.000 C 
BRANCH  20  22
ATOM     21  C   UNL     1       1.878   2.398  21.664  0.00  0.00    +0.000 C 
ATOM     22  C   UNL     1       0.937   2.873  20.555  0.00  0.00    +0.000 C 
ATOM     23  C   UNL     1       0.940   4.402  20.498  0.00  0.00    +0.000 C 
ENDBRANCH  20  22
ENDBRANCH  16  20
ENDBRANCH   7  17
ENDBRANCH   1  13
BRANCH   4  24
ATOM     24  C   UNL     1      -0.059  11.285  20.423  0.00  0.00    +0.000 C 
BRANCH  24  25
ATOM     25  O   UNL     1      -0.782  12.033  19.439  0.00  0.00    +0.000 OA
BRANCH  25  26
ATOM     26  C   UNL     1      -2.129  11.965  19.551  0.00  0.00    +0.000 C 
ATOM     27  O   UNL     1      -2.796  12.324  20.510  0.00  0.00    +0.000 OA
BRANCH  26  28
ATOM     28  C   UNL     1      -2.744  11.480  18.295  0.00  0.00    +0.000 A 
ATOM     29  C   UNL     1      -1.934  10.702  17.451  0.00  0.00    +0.000 A 
ATOM     30  C   UNL     1      -2.421  10.248  16.224  0.00  0.00    +0.000 A 
ATOM     31  C   UNL     1      -3.717  10.576  15.843  0.00  0.00    +0.000 A 
ATOM     32  C   UNL     1      -4.532  11.348  16.666  0.00  0.00    +0.000 A 
ATOM     33  C   UNL     1      -4.046  11.803  17.893  0.00  0.00    +0.000 A 
BRANCH  31  34
ATOM     34  O   UNL     1      -4.233  10.166  14.650  0.00  0.00    +0.000 OA
ATOM     35  H   UNL     1      -4.122  10.878  13.998  0.00  0.00    +0.000 HD
ENDBRANCH  31  34
BRANCH  33  36
ATOM     36  O   UNL     1      -4.843  12.599  18.667  0.00  0.00    +0.000 OA
ATOM     37  H   UNL     1      -4.286  13.152  19.240  0.00  0.00    +0.000 HD
ENDBRANCH  33  36
ENDBRANCH  26  28
ENDBRANCH  25  26
ENDBRANCH  24  25
ENDBRANCH   4  24
TORSDOF 10
ENDMDL
MODEL 3
REMARK VINA RESULT:      -8.7      2.903      9.943
REMARK  Name = 
REMARK  12 active torsions:
REMARK  status: ('A' for Active; 'I' for Inactive)
REMARK    1  A    between atoms: C_1  and  C_2
REMARK    2  A    between atoms: C_2  and  C_3
REMARK    3  A    between atoms: C_2  and  C_4
REMARK    4  A    between atoms: C_4  and  N_5
REMARK    5  A    between atoms: C_6  and  C_8
REMARK    6  A    between atoms: C_14  and  C_15
REMARK    7  A    between atoms: C_18  and  C_19
REMARK    8  A    between atoms: C_19  and  O_20
REMARK    9  A    between atoms: O_20  and  C_21
REMARK   10  A    between atoms: C_21  and  C_23
REMARK   11  A    between atoms: C_26  and  O_27
REMARK   12  A    between atoms: C_29  and  O_30
REMARK                            x       y       z     vdW  Elec       q    Type
REMARK                         _______ _______ _______ _____ _____    ______ ____
ROOT
ATOM      1  C   UNL     1       1.893   8.403  18.730  0.00  0.00    +0.000 A 
ATOM      2  C   UNL     1       1.269   9.399  17.968  0.00  0.00    +0.000 A 
ATOM      3  C   UNL     1       0.338  10.261  18.546  0.00  0.00    +0.000 A 
ATOM      4  C   UNL     1       0.011  10.144  19.902  0.00  0.00    +0.000 A 
ATOM      5  C   UNL     1       0.622   9.144  20.667  0.00  0.00    +0.000 A 
ATOM      6  C   UNL     1       1.551   8.277  20.084  0.00  0.00    +0.000 A 
ENDROOT
BRANCH   1  13
ATOM      7  C   UNL     1       4.647   4.496  17.957  0.00  0.00    +0.000 A 
ATOM      8  C   UNL     1       5.758   4.264  17.122  0.00  0.00    +0.000 A 
ATOM      9  C   UNL     1       6.248   5.252  16.258  0.00  0.00    +0.000 A 
ATOM     10  C   UNL     1       5.640   6.512  16.188  0.00  0.00    +0.000 A 
ATOM     11  C   UNL     1       4.539   6.762  17.015  0.00  0.00    +0.000 A 
ATOM     12  N   UNL     1       3.772   7.886  17.157  0.00  0.00    +0.000 NA
ATOM     13  C   UNL     1       2.905   7.565  18.100  0.00  0.00    +0.000 A 
ATOM     14  O   UNL     1       3.028   6.282  18.568  0.00  0.00    +0.000 OA
ATOM     15  C   UNL     1       4.086   5.766  17.867  0.00  0.00    +0.000 A 
BRANCH   7  17
ATOM     16  N   UNL     1       2.800   3.124  18.755  0.00  0.00    +0.000 N 
ATOM     17  C   UNL     1       4.138   3.433  18.853  0.00  0.00    +0.000 C 
ATOM     18  O   UNL     1       4.905   2.869  19.630  0.00  0.00    +0.000 OA
ATOM     19  H   UNL     1       2.224   3.633  18.094  0.00  0.00    +0.000 HD
BRANCH  16  20
ATOM     20  C   UNL     1       2.158   2.127  19.588  0.00  0.00    +0.000 C 
BRANCH  20  22
ATOM     21  C   UNL     1       2.026   2.894  22.002  0.00  0.00    +0.000 C 
ATOM     22  C   UNL     1       1.270   2.743  20.680  0.00  0.00    +0.000 C 
ATOM     23  C   UNL     1       0.748   4.109  20.227  0.00  0.00    +0.000 C 
ENDBRANCH  20  22
ENDBRANCH  16  20
ENDBRANCH   7  17
ENDBRANCH   1  13
BRANCH   4  24
ATOM     24  C   UNL     1      -1.006  11.076  20.511  0.00  0.00    +0.000 C 
BRANCH  24  25
ATOM     25  O   UNL     1      -0.440  11.768  21.630  0.00  0.00    +0.000 OA
BRANCH  25  26
ATOM     26  C   UNL     1      -0.985  11.452  22.828  0.00  0.00    +0.000 C 
ATOM     27  O   UNL     1      -0.744  10.457  23.495  0.00  0.00    +0.000 OA
BRANCH  26  28
ATOM     28  C   UNL     1      -1.868  12.536  23.314  0.00  0.00    +0.000 A 
ATOM     29  C   UNL     1      -3.185  12.179  23.651  0.00  0.00    +0.000 A 
ATOM     30  C   UNL     1      -4.097  13.150  24.070  0.00  0.00    +0.000 A 
ATOM     31  C   UNL     1      -3.689  14.476  24.146  0.00  0.00    +0.000 A 
ATOM     32  C   UNL     1      -2.390  14.849  23.815  0.00  0.00    +0.000 A 
ATOM     33  C   UNL     1      -1.478  13.879  23.395  0.00  0.00    +0.000 A 
BRANCH  31  34
ATOM     34  O   UNL     1      -4.546  15.461  24.538  0.00  0.00    +0.000 OA
ATOM     35  H   UNL     1      -5.336  15.436  23.972  0.00  0.00    +0.000 HD
ENDBRANCH  31  34
BRANCH  33  36
ATOM     36  O   UNL     1      -0.220  14.267  23.027  0.00  0.00    +0.000 OA
ATOM     37  H   UNL     1      -0.153  15.235  23.083  0.00  0.00    +0.000 HD
ENDBRANCH  33  36
ENDBRANCH  26  28
ENDBRANCH  25  26
ENDBRANCH  24  25
ENDBRANCH   4  24
TORSDOF 10
ENDMDL
MODEL 4
REMARK VINA RESULT:      -8.6      3.169      9.930
REMARK  Name = 
REMARK  12 active torsions:
REMARK  status: ('A' for Active; 'I' for Inactive)
REMARK    1  A    between atoms: C_1  and  C_2
REMARK    2  A    between atoms: C_2  and  C_3
REMARK    3  A    between atoms: C_2  and  C_4
REMARK    4  A    between atoms: C_4  and  N_5
REMARK    5  A    between atoms: C_6  and  C_8
REMARK    6  A    between atoms: C_14  and  C_15
REMARK    7  A    between atoms: C_18  and  C_19
REMARK    8  A    between atoms: C_19  and  O_20
REMARK    9  A    between atoms: O_20  and  C_21
REMARK   10  A    between atoms: C_21  and  C_23
REMARK   11  A    between atoms: C_26  and  O_27
REMARK   12  A    between atoms: C_29  and  O_30
REMARK                            x       y       z     vdW  Elec       q    Type
REMARK                         _______ _______ _______ _____ _____    ______ ____
ROOT
ATOM      1  C   UNL     1       2.383   8.111  18.414  0.00  0.00    +0.000 A 
ATOM      2  C   UNL     1       2.022   7.856  19.743  0.00  0.00    +0.000 A 
ATOM      3  C   UNL     1       1.118   8.683  20.409  0.00  0.00    +0.000 A 
ATOM      4  C   UNL     1       0.554   9.785  19.756  0.00  0.00    +0.000 A 
ATOM      5  C   UNL     1       0.918  10.053  18.431  0.00  0.00    +0.000 A 
ATOM      6  C   UNL     1       1.829   9.226  17.767  0.00  0.00    +0.000 A 
ENDROOT
BRANCH   1  13
ATOM      7  C   UNL     1       4.380   3.874  17.191  0.00  0.00    +0.000 A 
ATOM      8  C   UNL     1       5.524   3.541  16.436  0.00  0.00    +0.000 A 
ATOM      9  C   UNL     1       6.311   4.525  15.823  0.00  0.00    +0.000 A 
ATOM     10  C   UNL     1       5.981   5.882  15.932  0.00  0.00    +0.000 A 
ATOM     11  C   UNL     1       4.852   6.230  16.683  0.00  0.00    +0.000 A 
ATOM     12  N   UNL     1       4.314   7.457  16.959  0.00  0.00    +0.000 NA
ATOM     13  C   UNL     1       3.283   7.185  17.738  0.00  0.00    +0.000 A 
ATOM     14  O   UNL     1       3.083   5.848  17.967  0.00  0.00    +0.000 OA
ATOM     15  C   UNL     1       4.100   5.233  17.287  0.00  0.00    +0.000 A 
BRANCH   7  17
ATOM     16  N   UNL     1       2.661   3.218  18.787  0.00  0.00    +0.000 N 
ATOM     17  C   UNL     1       3.555   2.817  17.819  0.00  0.00    +0.000 C 
ATOM     18  O   UNL     1       3.683   1.649  17.462  0.00  0.00    +0.000 OA
ATOM     19  H   UNL     1       2.611   4.200  19.034  0.00  0.00    +0.000 HD
BRANCH  16  20
ATOM     20  C   UNL     1       1.811   2.292  19.507  0.00  0.00    +0.000 C 
BRANCH  20  22
ATOM     21  C   UNL     1       1.565   2.531  22.020  0.00  0.00    +0.000 C 
ATOM     22  C   UNL     1       1.034   2.961  20.650  0.00  0.00    +0.000 C 
ATOM     23  C   UNL     1       1.113   4.484  20.523  0.00  0.00    +0.000 C 
ENDBRANCH  20  22
ENDBRANCH  16  20
ENDBRANCH   7  17
ENDBRANCH   1  13
BRANCH   4  24
ATOM     24  C   UNL     1      -0.414  10.678  20.491  0.00  0.00    +0.000 C 
BRANCH  24  25
ATOM     25  O   UNL     1       0.177  11.162  21.702  0.00  0.00    +0.000 OA
BRANCH  25  26
ATOM     26  C   UNL     1      -0.593  11.020  22.806  0.00  0.00    +0.000 C 
ATOM     27  O   UNL     1      -0.561  10.090  23.598  0.00  0.00    +0.000 OA
BRANCH  26  28
ATOM     28  C   UNL     1      -1.445  12.211  23.017  0.00  0.00    +0.000 A 
ATOM     29  C   UNL     1      -2.799  11.978  23.316  0.00  0.00    +0.000 A 
ATOM     30  C   UNL     1      -3.682  13.047  23.480  0.00  0.00    +0.000 A 
ATOM     31  C   UNL     1      -3.210  14.346  23.340  0.00  0.00    +0.000 A 
ATOM     32  C   UNL     1      -1.874  14.596  23.043  0.00  0.00    +0.000 A 
ATOM     33  C   UNL     1      -0.990  13.528  22.878  0.00  0.00    +0.000 A 
BRANCH  31  34
ATOM     34  O   UNL     1      -4.036  15.421  23.479  0.00  0.00    +0.000 OA
ATOM     35  H   UNL     1      -3.605  16.079  24.051  0.00  0.00    +0.000 HD
ENDBRANCH  31  34
BRANCH  33  36
ATOM     36  O   UNL     1       0.309  13.789  22.539  0.00  0.00    +0.000 OA
ATOM     37  H   UNL     1       0.612  14.581  23.015  0.00  0.00    +0.000 HD
ENDBRANCH  33  36
ENDBRANCH  26  28
ENDBRANCH  25  26
ENDBRANCH  24  25
ENDBRANCH   4  24
TORSDOF 10
ENDMDL
MODEL 5
REMARK VINA RESULT:      -8.5      3.392      9.826
REMARK  Name = 
REMARK  12 active torsions:
REMARK  status: ('A' for Active; 'I' for Inactive)
REMARK    1  A    between atoms: C_1  and  C_2
REMARK    2  A    between atoms: C_2  and  C_3
REMARK    3  A    between atoms: C_2  and  C_4
REMARK    4  A    between atoms: C_4  and  N_5
REMARK    5  A    between atoms: C_6  and  C_8
REMARK    6  A    between atoms: C_14  and  C_15
REMARK    7  A    between atoms: C_18  and  C_19
REMARK    8  A    between atoms: C_19  and  O_20
REMARK    9  A    between atoms: O_20  and  C_21
REMARK   10  A    between atoms: C_21  and  C_23
REMARK   11  A    between atoms: C_26  and  O_27
REMARK   12  A    between atoms: C_29  and  O_30
REMARK                            x       y       z     vdW  Elec       q    Type
REMARK                         _______ _______ _______ _____ _____    ______ ____
ROOT
ATOM      1  C   UNL     1       2.441   8.038  18.513  0.00  0.00    +0.000 A 
ATOM      2  C   UNL     1       2.116   7.739  19.841  0.00  0.00    +0.000 A 
ATOM      3  C   UNL     1       1.290   8.583  20.583  0.00  0.00    +0.000 A 
ATOM      4  C   UNL     1       0.770   9.748  20.007  0.00  0.00    +0.000 A 
ATOM      5  C   UNL     1       1.099  10.060  18.683  0.00  0.00    +0.000 A 
ATOM      6  C   UNL     1       1.932   9.215  17.943  0.00  0.00    +0.000 A 
ENDROOT
BRANCH   1  13
ATOM      7  C   UNL     1       4.245   3.765  17.122  0.00  0.00    +0.000 A 
ATOM      8  C   UNL     1       5.304   3.413  16.261  0.00  0.00    +0.000 A 
ATOM      9  C   UNL     1       6.042   4.381  15.568  0.00  0.00    +0.000 A 
ATOM     10  C   UNL     1       5.744   5.743  15.702  0.00  0.00    +0.000 A 
ATOM     11  C   UNL     1       4.700   6.112  16.558  0.00  0.00    +0.000 A 
ATOM     12  N   UNL     1       4.210   7.348  16.879  0.00  0.00    +0.000 NA
ATOM     13  C   UNL     1       3.256   7.096  17.757  0.00  0.00    +0.000 A 
ATOM     14  O   UNL     1       3.060   5.763  18.011  0.00  0.00    +0.000 OA
ATOM     15  C   UNL     1       3.996   5.130  17.238  0.00  0.00    +0.000 A 
BRANCH   7  17
ATOM     16  N   UNL     1       2.314   3.130  18.464  0.00  0.00    +0.000 N 
ATOM     17  C   UNL     1       3.470   2.724  17.834  0.00  0.00    +0.000 C 
ATOM     18  O   UNL     1       3.865   1.561  17.835  0.00  0.00    +0.000 OA
ATOM     19  H   UNL     1       2.050   4.108  18.426  0.00  0.00    +0.000 HD
BRANCH  16  20
ATOM     20  C   UNL     1       1.472   2.228  19.223  0.00  0.00    +0.000 C 
BRANCH  20  22
ATOM     21  C   UNL     1       1.977   2.436  21.700  0.00  0.00    +0.000 C 
ATOM     22  C   UNL     1       1.022   2.820  20.567  0.00  0.00    +0.000 C 
ATOM     23  C   UNL     1       0.928   4.344  20.468  0.00  0.00    +0.000 C 
ENDBRANCH  20  22
ENDBRANCH  16  20
ENDBRANCH   7  17
ENDBRANCH   1  13
BRANCH   4  24
ATOM     24  C   UNL     1      -0.113  10.658  20.823  0.00  0.00    +0.000 C 
BRANCH  24  25
ATOM     25  O   UNL     1       0.669  11.683  21.447  0.00  0.00    +0.000 OA
BRANCH  25  26
ATOM     26  C   UNL     1       0.395  12.940  21.029  0.00  0.00    +0.000 C 
ATOM     27  O   UNL     1      -0.569  13.618  21.353  0.00  0.00    +0.000 OA
BRANCH  26  28
ATOM     28  C   UNL     1       1.483  13.468  20.177  0.00  0.00    +0.000 A 
ATOM     29  C   UNL     1       1.280  13.426  18.787  0.00  0.00    +0.000 A 
ATOM     30  C   UNL     1       2.278  13.858  17.911  0.00  0.00    +0.000 A 
ATOM     31  C   UNL     1       3.479  14.327  18.429  0.00  0.00    +0.000 A 
ATOM     32  C   UNL     1       3.699  14.374  19.802  0.00  0.00    +0.000 A 
ATOM     33  C   UNL     1       2.702  13.942  20.679  0.00  0.00    +0.000 A 
BRANCH  31  34
ATOM     34  O   UNL     1       4.488  14.748  17.614  0.00  0.00    +0.000 OA
ATOM     35  H   UNL     1       5.186  15.148  18.159  0.00  0.00    +0.000 HD
ENDBRANCH  31  34
BRANCH  33  36
ATOM     36  O   UNL     1       2.952  13.951  22.023  0.00  0.00    +0.000 OA
ATOM     37  H   UNL     1       2.451  14.673  22.438  0.00  0.00    +0.000 HD
ENDBRANCH  33  36
ENDBRANCH  26  28
ENDBRANCH  25  26
ENDBRANCH  24  25
ENDBRANCH   4  24
TORSDOF 10
ENDMDL
MODEL 6
REMARK VINA RESULT:      -8.4      1.209      1.587
REMARK  Name = 
REMARK  12 active torsions:
REMARK  status: ('A' for Active; 'I' for Inactive)
REMARK    1  A    between atoms: C_1  and  C_2
REMARK    2  A    between atoms: C_2  and  C_3
REMARK    3  A    between atoms: C_2  and  C_4
REMARK    4  A    between atoms: C_4  and  N_5
REMARK    5  A    between atoms: C_6  and  C_8
REMARK    6  A    between atoms: C_14  and  C_15
REMARK    7  A    between atoms: C_18  and  C_19
REMARK    8  A    between atoms: C_19  and  O_20
REMARK    9  A    between atoms: O_20  and  C_21
REMARK   10  A    between atoms: C_21  and  C_23
REMARK   11  A    between atoms: C_26  and  O_27
REMARK   12  A    between atoms: C_29  and  O_30
REMARK                            x       y       z     vdW  Elec       q    Type
REMARK                         _______ _______ _______ _____ _____    ______ ____
ROOT
ATOM      1  C   UNL     1       1.697   8.206  19.781  0.00  0.00    +0.000 A 
ATOM      2  C   UNL     1       2.104   8.471  18.468  0.00  0.00    +0.000 A 
ATOM      3  C   UNL     1       2.926   7.579  17.780  0.00  0.00    +0.000 A 
ATOM      4  C   UNL     1       3.358   6.398  18.395  0.00  0.00    +0.000 A 
ATOM      5  C   UNL     1       2.964   6.131  19.711  0.00  0.00    +0.000 A 
ATOM      6  C   UNL     1       2.145   7.030  20.401  0.00  0.00    +0.000 A 
ENDROOT
BRANCH   1  13
ATOM      7  C   UNL     1      -1.611  11.717  20.200  0.00  0.00    +0.000 A 
ATOM      8  C   UNL     1      -2.119  12.419  21.310  0.00  0.00    +0.000 A 
ATOM      9  C   UNL     1      -1.711  12.122  22.618  0.00  0.00    +0.000 A 
ATOM     10  C   UNL     1      -0.784  11.103  22.868  0.00  0.00    +0.000 A 
ATOM     11  C   UNL     1      -0.264  10.399  21.775  0.00  0.00    +0.000 A 
ATOM     12  N   UNL     1       0.648   9.380  21.729  0.00  0.00    +0.000 NA
ATOM     13  C   UNL     1       0.788   9.135  20.438  0.00  0.00    +0.000 A 
ATOM     14  O   UNL     1      -0.003   9.907  19.627  0.00  0.00    +0.000 OA
ATOM     15  C   UNL     1      -0.680  10.725  20.493  0.00  0.00    +0.000 A 
BRANCH   7  17
ATOM     16  N   UNL     1      -3.167  11.355  18.361  0.00  0.00    +0.000 N 
ATOM     17  C   UNL     1      -2.066  12.038  18.828  0.00  0.00    +0.000 C 
ATOM     18  O   UNL     1      -1.469  12.886  18.169  0.00  0.00    +0.000 OA
ATOM     19  H   UNL     1      -3.608  10.665  18.959  0.00  0.00    +0.000 HD
BRANCH  16  20
ATOM     20  C   UNL     1      -3.705  11.544  17.030  0.00  0.00    +0.000 C 
BRANCH  20  22
ATOM     21  C   UNL     1      -2.023   9.717  16.514  0.00  0.00    +0.000 C 
ATOM     22  C   UNL     1      -2.861  10.862  15.942  0.00  0.00    +0.000 C 
ATOM     23  C   UNL     1      -3.766  10.330  14.828  0.00  0.00    +0.000 C 
ENDBRANCH  20  22
ENDBRANCH  16  20
ENDBRANCH   7  17
ENDBRANCH   1  13
BRANCH   4  24
ATOM     24  C   UNL     1       4.256   5.447  17.644  0.00  0.00    +0.000 C 
BRANCH  24  25
ATOM     25  O   UNL     1       3.481   4.413  17.026  0.00  0.00    +0.000 OA
BRANCH  25  26
ATOM     26  C   UNL     1       3.721   3.167  17.494  0.00  0.00    +0.000 C 
ATOM     27  O   UNL     1       4.473   2.339  17.001  0.00  0.00    +0.000 OA
BRANCH  26  28
ATOM     28  C   UNL     1       3.023   2.936  18.778  0.00  0.00    +0.000 A 
ATOM     29  C   UNL     1       1.633   3.144  18.792  0.00  0.00    +0.000 A 
ATOM     30  C   UNL     1       0.906   2.997  19.975  0.00  0.00    +0.000 A 
ATOM     31  C   UNL     1       1.573   2.646  21.142  0.00  0.00    +0.000 A 
ATOM     32  C   UNL     1       2.948   2.438  21.149  0.00  0.00    +0.000 A 
ATOM     33  C   UNL     1       3.677   2.585  19.966  0.00  0.00    +0.000 A 
BRANCH  31  34
ATOM     34  O   UNL     1       0.908   2.503  22.324  0.00  0.00    +0.000 OA
ATOM     35  H   UNL     1       0.514   1.615  22.358  0.00  0.00    +0.000 HD
ENDBRANCH  31  34
BRANCH  33  36
ATOM     36  O   UNL     1       5.034   2.423  19.999  0.00  0.00    +0.000 OA
ATOM     37  H   UNL     1       5.245   1.570  20.414  0.00  0.00    +0.000 HD
ENDBRANCH  33  36
ENDBRANCH  26  28
ENDBRANCH  25  26
ENDBRANCH  24  25
ENDBRANCH   4  24
TORSDOF 10
ENDMDL
MODEL 7
REMARK VINA RESULT:      -8.4      3.355      9.693
REMARK  Name = 
REMARK  12 active torsions:
REMARK  status: ('A' for Active; 'I' for Inactive)
REMARK    1  A    between atoms: C_1  and  C_2
REMARK    2  A    between atoms: C_2  and  C_3
REMARK    3  A    between atoms: C_2  and  C_4
REMARK    4  A    between atoms: C_4  and  N_5
REMARK    5  A    between atoms: C_6  and  C_8
REMARK    6  A    between atoms: C_14  and  C_15
REMARK    7  A    between atoms: C_18  and  C_19
REMARK    8  A    between atoms: C_19  and  O_20
REMARK    9  A    between atoms: O_20  and  C_21
REMARK   10  A    between atoms: C_21  and  C_23
REMARK   11  A    between atoms: C_26  and  O_27
REMARK   12  A    between atoms: C_29  and  O_30
REMARK                            x       y       z     vdW  Elec       q    Type
REMARK                         _______ _______ _______ _____ _____    ______ ____
ROOT
ATOM      1  C   UNL     1       1.982   8.312  18.617  0.00  0.00    +0.000 A 
ATOM      2  C   UNL     1       1.232   9.155  17.788  0.00  0.00    +0.000 A 
ATOM      3  C   UNL     1       0.292  10.034  18.325  0.00  0.00    +0.000 A 
ATOM      4  C   UNL     1       0.083  10.088  19.708  0.00  0.00    +0.000 A 
ATOM      5  C   UNL     1       0.821   9.241  20.543  0.00  0.00    +0.000 A 
ATOM      6  C   UNL     1       1.759   8.356  20.001  0.00  0.00    +0.000 A 
ENDROOT
BRANCH   1  13
ATOM      7  C   UNL     1       4.665   4.344  17.910  0.00  0.00    +0.000 A 
ATOM      8  C   UNL     1       5.802   4.091  17.116  0.00  0.00    +0.000 A 
ATOM      9  C   UNL     1       6.349   5.075  16.282  0.00  0.00    +0.000 A 
ATOM     10  C   UNL     1       5.776   6.351  16.202  0.00  0.00    +0.000 A 
ATOM     11  C   UNL     1       4.650   6.621  16.988  0.00  0.00    +0.000 A 
ATOM     12  N   UNL     1       3.908   7.763  17.113  0.00  0.00    +0.000 NA
ATOM     13  C   UNL     1       2.997   7.455  18.018  0.00  0.00    +0.000 A 
ATOM     14  O   UNL     1       3.069   6.165  18.476  0.00  0.00    +0.000 OA
ATOM     15  C   UNL     1       4.140   5.629  17.812  0.00  0.00    +0.000 A 
BRANCH   7  17
ATOM     16  N   UNL     1       2.749   3.031  18.641  0.00  0.00    +0.000 N 
ATOM     17  C   UNL     1       4.095   3.285  18.774  0.00  0.00    +0.000 C 
ATOM     18  O   UNL     1       4.822   2.679  19.557  0.00  0.00    +0.000 OA
ATOM     19  H   UNL     1       2.208   3.574  17.976  0.00  0.00    +0.000 HD
BRANCH  16  20
ATOM     20  C   UNL     1       2.050   2.045  19.440  0.00  0.00    +0.000 C 
BRANCH  20  22
ATOM     21  C   UNL     1       1.955   2.629  21.907  0.00  0.00    +0.000 C 
ATOM     22  C   UNL     1       1.216   2.673  20.567  0.00  0.00    +0.000 C 
ATOM     23  C   UNL     1       0.865   4.121  20.220  0.00  0.00    +0.000 C 
ENDBRANCH  20  22
ENDBRANCH  16  20
ENDBRANCH   7  17
ENDBRANCH   1  13
BRANCH   4  24
ATOM     24  C   UNL     1      -0.944  11.035  20.274  0.00  0.00    +0.000 C 
BRANCH  24  25
ATOM     25  O   UNL     1      -0.570  12.392  20.010  0.00  0.00    +0.000 OA
BRANCH  25  26
ATOM     26  C   UNL     1       0.332  12.911  20.875  0.00  0.00    +0.000 C 
ATOM     27  O   UNL     1       0.274  12.870  22.095  0.00  0.00    +0.000 OA
BRANCH  26  28
ATOM     28  C   UNL     1       1.498  13.471  20.156  0.00  0.00    +0.000 A 
ATOM     29  C   UNL     1       1.563  13.235  18.772  0.00  0.00    +0.000 A 
ATOM     30  C   UNL     1       2.655  13.686  18.027  0.00  0.00    +0.000 A 
ATOM     31  C   UNL     1       3.680  14.368  18.670  0.00  0.00    +0.000 A 
ATOM     32  C   UNL     1       3.634  14.609  20.040  0.00  0.00    +0.000 A 
ATOM     33  C   UNL     1       2.543  14.157  20.786  0.00  0.00    +0.000 A 
BRANCH  31  34
ATOM     34  O   UNL     1       4.772  14.817  17.989  0.00  0.00    +0.000 OA
ATOM     35  H   UNL     1       4.655  14.625  17.043  0.00  0.00    +0.000 HD
ENDBRANCH  31  34
BRANCH  33  36
ATOM     36  O   UNL     1       2.535  14.361  22.138  0.00  0.00    +0.000 OA
ATOM     37  H   UNL     1       3.283  14.931  22.382  0.00  0.00    +0.000 HD
ENDBRANCH  33  36
ENDBRANCH  26  28
ENDBRANCH  25  26
ENDBRANCH  24  25
ENDBRANCH   4  24
TORSDOF 10
ENDMDL
MODEL 8
REMARK VINA RESULT:      -8.4      2.571      9.782
REMARK  Name = 
REMARK  12 active torsions:
REMARK  status: ('A' for Active; 'I' for Inactive)
REMARK    1  A    between atoms: C_1  and  C_2
REMARK    2  A    between atoms: C_2  and  C_3
REMARK    3  A    between atoms: C_2  and  C_4
REMARK    4  A    between atoms: C_4  and  N_5
REMARK    5  A    between atoms: C_6  and  C_8
REMARK    6  A    between atoms: C_14  and  C_15
REMARK    7  A    between atoms: C_18  and  C_19
REMARK    8  A    between atoms: C_19  and  O_20
REMARK    9  A    between atoms: O_20  and  C_21
REMARK   10  A    between atoms: C_21  and  C_23
REMARK   11  A    between atoms: C_26  and  O_27
REMARK   12  A    between atoms: C_29  and  O_30
REMARK                            x       y       z     vdW  Elec       q    Type
REMARK                         _______ _______ _______ _____ _____    ______ ____
ROOT
ATOM      1  C   UNL     1       2.296   8.230  18.558  0.00  0.00    +0.000 A 
ATOM      2  C   UNL     1       1.959   9.442  17.944  0.00  0.00    +0.000 A 
ATOM      3  C   UNL     1       1.221  10.408  18.627  0.00  0.00    +0.000 A 
ATOM      4  C   UNL     1       0.804  10.180  19.944  0.00  0.00    +0.000 A 
ATOM      5  C   UNL     1       1.127   8.966  20.561  0.00  0.00    +0.000 A 
ATOM      6  C   UNL     1       1.862   7.996  19.872  0.00  0.00    +0.000 A 
ENDROOT
BRANCH   1  13
ATOM      7  C   UNL     1       4.282   3.967  17.404  0.00  0.00    +0.000 A 
ATOM      8  C   UNL     1       5.305   3.605  16.505  0.00  0.00    +0.000 A 
ATOM      9  C   UNL     1       5.935   4.553  15.688  0.00  0.00    +0.000 A 
ATOM     10  C   UNL     1       5.560   5.902  15.729  0.00  0.00    +0.000 A 
ATOM     11  C   UNL     1       4.549   6.280  16.620  0.00  0.00    +0.000 A 
ATOM     12  N   UNL     1       4.001   7.508  16.871  0.00  0.00    +0.000 NA
ATOM     13  C   UNL     1       3.122   7.276  17.829  0.00  0.00    +0.000 A 
ATOM     14  O   UNL     1       3.028   5.961  18.204  0.00  0.00    +0.000 OA
ATOM     15  C   UNL     1       3.953   5.319  17.424  0.00  0.00    +0.000 A 
BRANCH   7  17
ATOM     16  N   UNL     1       2.258   3.062  18.412  0.00  0.00    +0.000 N 
ATOM     17  C   UNL     1       3.620   2.947  18.248  0.00  0.00    +0.000 C 
ATOM     18  O   UNL     1       4.287   2.050  18.758  0.00  0.00    +0.000 OA
ATOM     19  H   UNL     1       1.771   3.831  17.965  0.00  0.00    +0.000 HD
BRANCH  16  20
ATOM     20  C   UNL     1       1.484   2.154  19.234  0.00  0.00    +0.000 C 
BRANCH  20  22
ATOM     21  C   UNL     1       2.103   2.475  21.673  0.00  0.00    +0.000 C 
ATOM     22  C   UNL     1       1.073   2.771  20.580  0.00  0.00    +0.000 C 
ATOM     23  C   UNL     1       0.897   4.284  20.437  0.00  0.00    +0.000 C 
ENDBRANCH  20  22
ENDBRANCH  16  20
ENDBRANCH   7  17
ENDBRANCH   1  13
BRANCH   4  24
ATOM     24  C   UNL     1      -0.004  11.228  20.667  0.00  0.00    +0.000 C 
BRANCH  24  25
ATOM     25  O   UNL     1      -1.378  11.157  20.273  0.00  0.00    +0.000 OA
BRANCH  25  26
ATOM     26  C   UNL     1      -1.962  12.354  20.029  0.00  0.00    +0.000 C 
ATOM     27  O   UNL     1      -1.508  13.453  20.309  0.00  0.00    +0.000 OA
BRANCH  26  28
ATOM     28  C   UNL     1      -3.218  12.187  19.264  0.00  0.00    +0.000 A 
ATOM     29  C   UNL     1      -4.398  12.643  19.875  0.00  0.00    +0.000 A 
ATOM     30  C   UNL     1      -5.633  12.478  19.243  0.00  0.00    +0.000 A 
ATOM     31  C   UNL     1      -5.682  11.854  18.002  0.00  0.00    +0.000 A 
ATOM     32  C   UNL     1      -4.524  11.395  17.383  0.00  0.00    +0.000 A 
ATOM     33  C   UNL     1      -3.289  11.559  18.015  0.00  0.00    +0.000 A 
BRANCH  31  34
ATOM     34  O   UNL     1      -6.864  11.660  17.351  0.00  0.00    +0.000 OA
ATOM     35  H   UNL     1      -6.703  11.118  16.560  0.00  0.00    +0.000 HD
ENDBRANCH  31  34
BRANCH  33  36
ATOM     36  O   UNL     1      -2.167  11.061  17.414  0.00  0.00    +0.000 OA
ATOM     37  H   UNL     1      -2.019  10.148  17.715  0.00  0.00    +0.000 HD
ENDBRANCH  33  36
ENDBRANCH  26  28
ENDBRANCH  25  26
ENDBRANCH  24  25
ENDBRANCH   4  24
TORSDOF 10
ENDMDL
MODEL 9
REMARK VINA RESULT:      -8.4      1.418      1.941
REMARK  Name = 
REMARK  12 active torsions:
REMARK  status: ('A' for Active; 'I' for Inactive)
REMARK    1  A    between atoms: C_1  and  C_2
REMARK    2  A    between atoms: C_2  and  C_3
REMARK    3  A    between atoms: C_2  and  C_4
REMARK    4  A    between atoms: C_4  and  N_5
REMARK    5  A    between atoms: C_6  and  C_8
REMARK    6  A    between atoms: C_14  and  C_15
REMARK    7  A    between atoms: C_18  and  C_19
REMARK    8  A    between atoms: C_19  and  O_20
REMARK    9  A    between atoms: O_20  and  C_21
REMARK   10  A    between atoms: C_21  and  C_23
REMARK   11  A    between atoms: C_26  and  O_27
REMARK   12  A    between atoms: C_29  and  O_30
REMARK                            x       y       z     vdW  Elec       q    Type
REMARK                         _______ _______ _______ _____ _____    ______ ____
ROOT
ATOM      1  C   UNL     1       1.144   9.249  19.621  0.00  0.00    +0.000 A 
ATOM      2  C   UNL     1       1.690   9.392  18.339  0.00  0.00    +0.000 A 
ATOM      3  C   UNL     1       2.548   8.426  17.816  0.00  0.00    +0.000 A 
ATOM      4  C   UNL     1       2.878   7.291  18.567  0.00  0.00    +0.000 A 
ATOM      5  C   UNL     1       2.344   7.146  19.853  0.00  0.00    +0.000 A 
ATOM      6  C   UNL     1       1.489   8.119  20.378  0.00  0.00    +0.000 A 
ENDROOT
BRANCH   1  13
ATOM      7  C   UNL     1      -2.786  12.077  19.646  0.00  0.00    +0.000 A 
ATOM      8  C   UNL     1      -3.183  13.149  20.470  0.00  0.00    +0.000 A 
ATOM      9  C   UNL     1      -2.410  13.561  21.563  0.00  0.00    +0.000 A 
ATOM     10  C   UNL     1      -1.211  12.912  21.882  0.00  0.00    +0.000 A 
ATOM     11  C   UNL     1      -0.798  11.849  21.070  0.00  0.00    +0.000 A 
ATOM     12  N   UNL     1       0.315  11.057  21.143  0.00  0.00    +0.000 NA
ATOM     13  C   UNL     1       0.203  10.252  20.102  0.00  0.00    +0.000 A 
ATOM     14  O   UNL     1      -0.937  10.438  19.363  0.00  0.00    +0.000 OA
ATOM     15  C   UNL     1      -1.581  11.472  19.989  0.00  0.00    +0.000 A 
BRANCH   7  17
ATOM     16  N   UNL     1      -4.664  12.480  18.149  0.00  0.00    +0.000 N 
ATOM     17  C   UNL     1      -3.626  11.649  18.504  0.00  0.00    +0.000 C 
ATOM     18  O   UNL     1      -3.374  10.598  17.921  0.00  0.00    +0.000 OA
ATOM     19  H   UNL     1      -4.817  13.331  18.678  0.00  0.00    +0.000 HD
BRANCH  16  20
ATOM     20  C   UNL     1      -5.585  12.176  17.072  0.00  0.00    +0.000 C 
BRANCH  20  22
ATOM     21  C   UNL     1      -7.361  12.597  18.834  0.00  0.00    +0.000 C 
ATOM     22  C   UNL     1      -7.011  12.679  17.346  0.00  0.00    +0.000 C 
ATOM     23  C   UNL     1      -7.164  14.122  16.860  0.00  0.00    +0.000 C 
ENDBRANCH  20  22
ENDBRANCH  16  20
ENDBRANCH   7  17
ENDBRANCH   1  13
BRANCH   4  24
ATOM     24  C   UNL     1       3.816   6.259  17.994  0.00  0.00    +0.000 C 
BRANCH  24  25
ATOM     25  O   UNL     1       3.078   5.239  17.312  0.00  0.00    +0.000 OA
BRANCH  25  26
ATOM     26  C   UNL     1       3.487   3.975  17.568  0.00  0.00    +0.000 C 
ATOM     27  O   UNL     1       4.264   3.313  16.896  0.00  0.00    +0.000 OA
BRANCH  26  28
ATOM     28  C   UNL     1       2.947   3.492  18.859  0.00  0.00    +0.000 A 
ATOM     29  C   UNL     1       1.577   3.700  19.092  0.00  0.00    +0.000 A 
ATOM     30  C   UNL     1       0.999   3.320  20.305  0.00  0.00    +0.000 A 
ATOM     31  C   UNL     1       1.794   2.735  21.283  0.00  0.00    +0.000 A 
ATOM     32  C   UNL     1       3.153   2.523  21.071  0.00  0.00    +0.000 A 
ATOM     33  C   UNL     1       3.733   2.904  19.858  0.00  0.00    +0.000 A 
BRANCH  31  34
ATOM     34  O   UNL     1       1.279   2.359  22.487  0.00  0.00    +0.000 OA
ATOM     35  H   UNL     1       1.974   1.919  23.004  0.00  0.00    +0.000 HD
ENDBRANCH  31  34
BRANCH  33  36
ATOM     36  O   UNL     1       5.077   2.732  19.684  0.00  0.00    +0.000 OA
ATOM     37  H   UNL     1       5.340   1.868  20.044  0.00  0.00    +0.000 HD
ENDBRANCH  33  36
ENDBRANCH  26  28
ENDBRANCH  25  26
ENDBRANCH  24  25
ENDBRANCH   4  24
TORSDOF 10
ENDMDL
