MODEL 1
REMARK VINA RESULT:      -8.2      0.000      0.000
REMARK  Name = 
REMARK  5 active torsions:
REMARK  status: ('A' for Active; 'I' for Inactive)
REMARK    1  A    between atoms: N_4  and  C_5
REMARK    2  A    between atoms: C_5  and  C_6
REMARK    3  A    between atoms: C_6  and  C_7
REMARK    4  A    between atoms: N_15  and  C_16
REMARK    5  A    between atoms: C_18  and  C_19
REMARK                            x       y       z     vdW  Elec       q    Type
REMARK                         _______ _______ _______ _____ _____    ______ ____
ROOT
ATOM      1  O   UNL     1       3.510   3.436  19.635  0.00  0.00    +0.000 OA
ATOM      2  C   UNL     1       3.314   4.625  19.414  0.00  0.00    +0.000 C 
ATOM      3  C   UNL     1       2.300   5.436  20.197  0.00  0.00    +0.000 C 
ATOM      4  N   UNL     1       2.473   6.748  19.633  0.00  0.00    +0.000 N 
ATOM      5  C   UNL     1       3.408   6.740  18.605  0.00  0.00    +0.000 C 
ATOM      6  O   UNL     1       3.674   7.719  17.921  0.00  0.00    +0.000 OA
ATOM      7  N   UNL     1       3.920   5.461  18.510  0.00  0.00    +0.000 N 
ENDROOT
BRANCH   7   8
ATOM      8  C   UNL     1       4.939   5.128  17.638  0.00  0.00    +0.000 A 
ATOM      9  C   UNL     1       4.912   4.877  16.282  0.00  0.00    +0.000 A 
ATOM     10  C   UNL     1       6.229   4.652  15.753  0.00  0.00    +0.000 A 
ATOM     11  N   UNL     1       7.196   4.616  16.674  0.00  0.00    +0.000 NA
ATOM     12  S   UNL     1       6.554   4.967  18.158  0.00  0.00    +0.000 S 
BRANCH  10  13
ATOM     13  C   UNL     1       6.549   4.497  14.331  0.00  0.00    +0.000 A 
ATOM     14  C   UNL     1       7.543   5.293  13.740  0.00  0.00    +0.000 A 
ATOM     15  C   UNL     1       7.872   5.135  12.394  0.00  0.00    +0.000 A 
ATOM     16  C   UNL     1       7.212   4.180  11.625  0.00  0.00    +0.000 A 
ATOM     17  C   UNL     1       6.222   3.383  12.199  0.00  0.00    +0.000 A 
ATOM     18  C   UNL     1       5.893   3.538  13.548  0.00  0.00    +0.000 A 
ENDBRANCH  10  13
ENDBRANCH   7   8
BRANCH   4  19
ATOM     19  C   UNL     1       1.578   7.866  19.920  0.00  0.00    +0.000 C 
BRANCH  19  20
ATOM     20  C   UNL     1       1.403   8.107  21.420  0.00  0.00    +0.000 C 
BRANCH  20  21
ATOM     21  C   UNL     1       0.564   9.314  21.741  0.00  0.00    +0.000 A 
ATOM     22  C   UNL     1      -0.211   9.356  22.907  0.00  0.00    +0.000 A 
ATOM     23  C   UNL     1      -0.952  10.497  23.218  0.00  0.00    +0.000 A 
ATOM     24  C   UNL     1      -0.931  11.598  22.365  0.00  0.00    +0.000 A 
ATOM     25  C   UNL     1      -0.175  11.559  21.195  0.00  0.00    +0.000 A 
ATOM     26  C   UNL     1       0.566  10.420  20.882  0.00  0.00    +0.000 A 
ENDBRANCH  20  21
ENDBRANCH  19  20
ENDBRANCH   4  19
TORSDOF 5
ENDMDL
MODEL 2
REMARK VINA RESULT:      -8.1      0.418      1.394
REMARK  Name = 
REMARK  5 active torsions:
REMARK  status: ('A' for Active; 'I' for Inactive)
REMARK    1  A    between atoms: N_4  and  C_5
REMARK    2  A    between atoms: C_5  and  C_6
REMARK    3  A    between atoms: C_6  and  C_7
REMARK    4  A    between atoms: N_15  and  C_16
REMARK    5  A    between atoms: C_18  and  C_19
REMARK                            x       y       z     vdW  Elec       q    Type
REMARK                         _______ _______ _______ _____ _____    ______ ____
ROOT
ATOM      1  O   UNL     1       3.336   3.797  20.015  0.00  0.00    +0.000 OA
ATOM      2  C   UNL     1       3.151   4.965  19.695  0.00  0.00    +0.000 C 
ATOM      3  C   UNL     1       2.160   5.853  20.421  0.00  0.00    +0.000 C 
ATOM      4  N   UNL     1       2.338   7.109  19.742  0.00  0.00    +0.000 N 
ATOM      5  C   UNL     1       3.255   7.000  18.704  0.00  0.00    +0.000 C 
ATOM      6  O   UNL     1       3.520   7.913  17.934  0.00  0.00    +0.000 OA
ATOM      7  N   UNL     1       3.750   5.711  18.713  0.00  0.00    +0.000 N 
ENDROOT
BRANCH   7   8
ATOM      8  C   UNL     1       4.751   5.291  17.856  0.00  0.00    +0.000 A 
ATOM      9  C   UNL     1       4.715   5.006  16.507  0.00  0.00    +0.000 A 
ATOM     10  C   UNL     1       6.017   4.683  15.993  0.00  0.00    +0.000 A 
ATOM     11  N   UNL     1       6.975   4.610  16.922  0.00  0.00    +0.000 NA
ATOM     12  S   UNL     1       6.350   5.041  18.391  0.00  0.00    +0.000 S 
BRANCH  10  13
ATOM     13  C   UNL     1       6.334   4.471  14.578  0.00  0.00    +0.000 A 
ATOM     14  C   UNL     1       5.568   3.580  13.808  0.00  0.00    +0.000 A 
ATOM     15  C   UNL     1       5.846   3.391  12.455  0.00  0.00    +0.000 A 
ATOM     16  C   UNL     1       6.891   4.089  11.856  0.00  0.00    +0.000 A 
ATOM     17  C   UNL     1       7.660   4.976  12.609  0.00  0.00    +0.000 A 
ATOM     18  C   UNL     1       7.381   5.169  13.964  0.00  0.00    +0.000 A 
ENDBRANCH  10  13
ENDBRANCH   7   8
BRANCH   4  19
ATOM     19  C   UNL     1       1.461   8.259  19.946  0.00  0.00    +0.000 C 
BRANCH  19  20
ATOM     20  C   UNL     1       0.784   8.246  21.316  0.00  0.00    +0.000 C 
BRANCH  20  21
ATOM     21  C   UNL     1       0.223   9.581  21.723  0.00  0.00    +0.000 A 
ATOM     22  C   UNL     1       0.570  10.745  21.024  0.00  0.00    +0.000 A 
ATOM     23  C   UNL     1       0.012  11.973  21.382  0.00  0.00    +0.000 A 
ATOM     24  C   UNL     1      -0.890  12.049  22.442  0.00  0.00    +0.000 A 
ATOM     25  C   UNL     1      -1.230  10.899  23.151  0.00  0.00    +0.000 A 
ATOM     26  C   UNL     1      -0.673   9.670  22.796  0.00  0.00    +0.000 A 
ENDBRANCH  20  21
ENDBRANCH  19  20
ENDBRANCH   4  19
TORSDOF 5
ENDMDL
MODEL 3
REMARK VINA RESULT:      -8.1      0.647      1.140
REMARK  Name = 
REMARK  5 active torsions:
REMARK  status: ('A' for Active; 'I' for Inactive)
REMARK    1  A    between atoms: N_4  and  C_5
REMARK    2  A    between atoms: C_5  and  C_6
REMARK    3  A    between atoms: C_6  and  C_7
REMARK    4  A    between atoms: N_15  and  C_16
REMARK    5  A    between atoms: C_18  and  C_19
REMARK                            x       y       z     vdW  Elec       q    Type
REMARK                         _______ _______ _______ _____ _____    ______ ____
ROOT
ATOM      1  O   UNL     1       4.052   4.129  19.681  0.00  0.00    +0.000 OA
ATOM      2  C   UNL     1       3.634   5.243  19.389  0.00  0.00    +0.000 C 
ATOM      3  C   UNL     1       2.565   5.943  20.204  0.00  0.00    +0.000 C 
ATOM      4  N   UNL     1       2.457   7.207  19.525  0.00  0.00    +0.000 N 
ATOM      5  C   UNL     1       3.289   7.259  18.413  0.00  0.00    +0.000 C 
ATOM      6  O   UNL     1       3.321   8.200  17.632  0.00  0.00    +0.000 OA
ATOM      7  N   UNL     1       4.006   6.080  18.367  0.00  0.00    +0.000 N 
ENDROOT
BRANCH   7   8
ATOM      8  C   UNL     1       4.990   5.841  17.426  0.00  0.00    +0.000 A 
ATOM      9  C   UNL     1       4.943   5.144  16.237  0.00  0.00    +0.000 A 
ATOM     10  C   UNL     1       6.187   5.220  15.522  0.00  0.00    +0.000 A 
ATOM     11  N   UNL     1       7.167   5.843  16.183  0.00  0.00    +0.000 NA
ATOM     12  S   UNL     1       6.576   6.439  17.608  0.00  0.00    +0.000 S 
BRANCH  10  13
ATOM     13  C   UNL     1       6.412   4.705  14.168  0.00  0.00    +0.000 A 
ATOM     14  C   UNL     1       7.473   5.199  13.392  0.00  0.00    +0.000 A 
ATOM     15  C   UNL     1       7.710   4.696  12.113  0.00  0.00    +0.000 A 
ATOM     16  C   UNL     1       6.891   3.695  11.596  0.00  0.00    +0.000 A 
ATOM     17  C   UNL     1       5.833   3.196  12.357  0.00  0.00    +0.000 A 
ATOM     18  C   UNL     1       5.596   3.697  13.639  0.00  0.00    +0.000 A 
ENDBRANCH  10  13
ENDBRANCH   7   8
BRANCH   4  19
ATOM     19  C   UNL     1       1.410   8.183  19.812  0.00  0.00    +0.000 C 
BRANCH  19  20
ATOM     20  C   UNL     1       1.157   8.349  21.311  0.00  0.00    +0.000 C 
BRANCH  20  21
ATOM     21  C   UNL     1       0.293   9.534  21.647  0.00  0.00    +0.000 A 
ATOM     22  C   UNL     1       0.066  10.544  20.703  0.00  0.00    +0.000 A 
ATOM     23  C   UNL     1      -0.770  11.619  21.009  0.00  0.00    +0.000 A 
ATOM     24  C   UNL     1      -1.379  11.696  22.261  0.00  0.00    +0.000 A 
ATOM     25  C   UNL     1      -1.147  10.703  23.210  0.00  0.00    +0.000 A 
ATOM     26  C   UNL     1      -0.311   9.629  22.907  0.00  0.00    +0.000 A 
ENDBRANCH  20  21
ENDBRANCH  19  20
ENDBRANCH   4  19
TORSDOF 5
ENDMDL
MODEL 4
REMARK VINA RESULT:      -7.8      0.818      1.647
REMARK  Name = 
REMARK  5 active torsions:
REMARK  status: ('A' for Active; 'I' for Inactive)
REMARK    1  A    between atoms: N_4  and  C_5
REMARK    2  A    between atoms: C_5  and  C_6
REMARK    3  A    between atoms: C_6  and  C_7
REMARK    4  A    between atoms: N_15  and  C_16
REMARK    5  A    between atoms: C_18  and  C_19
REMARK                            x       y       z     vdW  Elec       q    Type
REMARK                         _______ _______ _______ _____ _____    ______ ____
ROOT
ATOM      1  O   UNL     1       4.205   3.083  19.914  0.00  0.00    +0.000 OA
ATOM      2  C   UNL     1       3.692   4.178  19.722  0.00  0.00    +0.000 C 
ATOM      3  C   UNL     1       2.547   4.694  20.573  0.00  0.00    +0.000 C 
ATOM      4  N   UNL     1       2.337   6.005  20.019  0.00  0.00    +0.000 N 
ATOM      5  C   UNL     1       3.180   6.244  18.941  0.00  0.00    +0.000 C 
ATOM      6  O   UNL     1       3.139   7.258  18.258  0.00  0.00    +0.000 OA
ATOM      7  N   UNL     1       4.004   5.144  18.799  0.00  0.00    +0.000 N 
ENDROOT
BRANCH   7   8
ATOM      8  C   UNL     1       5.022   5.091  17.866  0.00  0.00    +0.000 A 
ATOM      9  C   UNL     1       5.021   4.641  16.562  0.00  0.00    +0.000 A 
ATOM     10  C   UNL     1       6.291   4.851  15.922  0.00  0.00    +0.000 A 
ATOM     11  N   UNL     1       7.244   5.329  16.728  0.00  0.00    +0.000 NA
ATOM     12  S   UNL     1       6.598   5.636  18.219  0.00  0.00    +0.000 S 
BRANCH  10  13
ATOM     13  C   UNL     1       6.567   4.610  14.503  0.00  0.00    +0.000 A 
ATOM     14  C   UNL     1       5.827   3.652  13.792  0.00  0.00    +0.000 A 
ATOM     15  C   UNL     1       6.065   3.434  12.435  0.00  0.00    +0.000 A 
ATOM     16  C   UNL     1       7.046   4.170  11.775  0.00  0.00    +0.000 A 
ATOM     17  C   UNL     1       7.789   5.124  12.470  0.00  0.00    +0.000 A 
ATOM     18  C   UNL     1       7.550   5.346  13.828  0.00  0.00    +0.000 A 
ENDBRANCH  10  13
ENDBRANCH   7   8
BRANCH   4  19
ATOM     19  C   UNL     1       1.198   6.848  20.373  0.00  0.00    +0.000 C 
BRANCH  19  20
ATOM     20  C   UNL     1       1.610   8.088  21.167  0.00  0.00    +0.000 C 
BRANCH  20  21
ATOM     21  C   UNL     1       0.904   9.343  20.732  0.00  0.00    +0.000 A 
ATOM     22  C   UNL     1       0.713   9.622  19.372  0.00  0.00    +0.000 A 
ATOM     23  C   UNL     1       0.020  10.767  18.978  0.00  0.00    +0.000 A 
ATOM     24  C   UNL     1      -0.481  11.645  19.938  0.00  0.00    +0.000 A 
ATOM     25  C   UNL     1      -0.284  11.383  21.292  0.00  0.00    +0.000 A 
ATOM     26  C   UNL     1       0.410  10.239  21.688  0.00  0.00    +0.000 A 
ENDBRANCH  20  21
ENDBRANCH  19  20
ENDBRANCH   4  19
TORSDOF 5
ENDMDL
MODEL 5
REMARK VINA RESULT:      -7.6      0.660      1.168
REMARK  Name = 
REMARK  5 active torsions:
REMARK  status: ('A' for Active; 'I' for Inactive)
REMARK    1  A    between atoms: N_4  and  C_5
REMARK    2  A    between atoms: C_5  and  C_6
REMARK    3  A    between atoms: C_6  and  C_7
REMARK    4  A    between atoms: N_15  and  C_16
REMARK    5  A    between atoms: C_18  and  C_19
REMARK                            x       y       z     vdW  Elec       q    Type
REMARK                         _______ _______ _______ _____ _____    ______ ____
ROOT
ATOM      1  O   UNL     1       3.930   2.864  19.539  0.00  0.00    +0.000 OA
ATOM      2  C   UNL     1       3.525   4.020  19.521  0.00  0.00    +0.000 C 
ATOM      3  C   UNL     1       2.425   4.505  20.445  0.00  0.00    +0.000 C 
ATOM      4  N   UNL     1       2.346   5.900  20.102  0.00  0.00    +0.000 N 
ATOM      5  C   UNL     1       3.220   6.220  19.070  0.00  0.00    +0.000 C 
ATOM      6  O   UNL     1       3.283   7.326  18.552  0.00  0.00    +0.000 OA
ATOM      7  N   UNL     1       3.937   5.082  18.757  0.00  0.00    +0.000 N 
ENDROOT
BRANCH   7   8
ATOM      8  C   UNL     1       4.956   5.077  17.823  0.00  0.00    +0.000 A 
ATOM      9  C   UNL     1       4.988   4.589  16.533  0.00  0.00    +0.000 A 
ATOM     10  C   UNL     1       6.237   4.874  15.883  0.00  0.00    +0.000 A 
ATOM     11  N   UNL     1       7.153   5.444  16.672  0.00  0.00    +0.000 NA
ATOM     12  S   UNL     1       6.488   5.747  18.156  0.00  0.00    +0.000 S 
BRANCH  10  13
ATOM     13  C   UNL     1       6.530   4.612  14.471  0.00  0.00    +0.000 A 
ATOM     14  C   UNL     1       5.760   3.685  13.750  0.00  0.00    +0.000 A 
ATOM     15  C   UNL     1       6.014   3.449  12.399  0.00  0.00    +0.000 A 
ATOM     16  C   UNL     1       7.041   4.135  11.756  0.00  0.00    +0.000 A 
ATOM     17  C   UNL     1       7.815   5.057  12.460  0.00  0.00    +0.000 A 
ATOM     18  C   UNL     1       7.559   5.297  13.812  0.00  0.00    +0.000 A 
ENDBRANCH  10  13
ENDBRANCH   7   8
BRANCH   4  19
ATOM     19  C   UNL     1       1.289   6.783  20.586  0.00  0.00    +0.000 C 
BRANCH  19  20
ATOM     20  C   UNL     1       1.644   8.262  20.433  0.00  0.00    +0.000 C 
BRANCH  20  21
ATOM     21  C   UNL     1       0.711   9.184  21.171  0.00  0.00    +0.000 A 
ATOM     22  C   UNL     1       0.527   9.056  22.554  0.00  0.00    +0.000 A 
ATOM     23  C   UNL     1      -0.308   9.942  23.238  0.00  0.00    +0.000 A 
ATOM     24  C   UNL     1      -0.968  10.956  22.545  0.00  0.00    +0.000 A 
ATOM     25  C   UNL     1      -0.801  11.081  21.168  0.00  0.00    +0.000 A 
ATOM     26  C   UNL     1       0.031  10.196  20.482  0.00  0.00    +0.000 A 
ENDBRANCH  20  21
ENDBRANCH  19  20
ENDBRANCH   4  19
TORSDOF 5
ENDMDL
MODEL 6
REMARK VINA RESULT:      -7.6      3.321      4.801
REMARK  Name = 
REMARK  5 active torsions:
REMARK  status: ('A' for Active; 'I' for Inactive)
REMARK    1  A    between atoms: N_4  and  C_5
REMARK    2  A    between atoms: C_5  and  C_6
REMARK    3  A    between atoms: C_6  and  C_7
REMARK    4  A    between atoms: N_15  and  C_16
REMARK    5  A    between atoms: C_18  and  C_19
REMARK                            x       y       z     vdW  Elec       q    Type
REMARK                         _______ _______ _______ _____ _____    ______ ____
ROOT
ATOM      1  O   UNL     1       1.677   8.151  21.943  0.00  0.00    +0.000 OA
ATOM      2  C   UNL     1       1.388   8.726  20.900  0.00  0.00    +0.000 C 
ATOM      3  C   UNL     1       0.633  10.041  20.886  0.00  0.00    +0.000 C 
ATOM      4  N   UNL     1       0.588  10.339  19.479  0.00  0.00    +0.000 N 
ATOM      5  C   UNL     1       1.169   9.326  18.726  0.00  0.00    +0.000 C 
ATOM      6  O   UNL     1       1.186   9.313  17.503  0.00  0.00    +0.000 OA
ATOM      7  N   UNL     1       1.667   8.382  19.602  0.00  0.00    +0.000 N 
ENDROOT
BRANCH   7   8
ATOM      8  C   UNL     1       2.385   7.279  19.180  0.00  0.00    +0.000 A 
ATOM      9  C   UNL     1       3.284   7.137  18.144  0.00  0.00    +0.000 A 
ATOM     10  C   UNL     1       3.868   5.824  18.117  0.00  0.00    +0.000 A 
ATOM     11  N   UNL     1       3.356   4.973  19.011  0.00  0.00    +0.000 NA
ATOM     12  S   UNL     1       2.262   5.769  19.962  0.00  0.00    +0.000 S 
BRANCH  10  13
ATOM     13  C   UNL     1       4.954   5.405  17.227  0.00  0.00    +0.000 A 
ATOM     14  C   UNL     1       4.756   4.355  16.316  0.00  0.00    +0.000 A 
ATOM     15  C   UNL     1       5.776   3.966  15.448  0.00  0.00    +0.000 A 
ATOM     16  C   UNL     1       7.005   4.622  15.481  0.00  0.00    +0.000 A 
ATOM     17  C   UNL     1       7.215   5.665  16.382  0.00  0.00    +0.000 A 
ATOM     18  C   UNL     1       6.193   6.058  17.250  0.00  0.00    +0.000 A 
ENDBRANCH  10  13
ENDBRANCH   7   8
BRANCH   4  19
ATOM     19  C   UNL     1      -0.212  11.423  18.917  0.00  0.00    +0.000 C 
BRANCH  19  20
ATOM     20  C   UNL     1      -1.709  11.241  19.168  0.00  0.00    +0.000 C 
BRANCH  20  21
ATOM     21  C   UNL     1      -2.502  10.985  17.915  0.00  0.00    +0.000 A 
ATOM     22  C   UNL     1      -3.740  11.610  17.713  0.00  0.00    +0.000 A 
ATOM     23  C   UNL     1      -4.449  11.401  16.529  0.00  0.00    +0.000 A 
ATOM     24  C   UNL     1      -3.931  10.562  15.544  0.00  0.00    +0.000 A 
ATOM     25  C   UNL     1      -2.708   9.925  15.743  0.00  0.00    +0.000 A 
ATOM     26  C   UNL     1      -1.998  10.132  16.926  0.00  0.00    +0.000 A 
ENDBRANCH  20  21
ENDBRANCH  19  20
ENDBRANCH   4  19
TORSDOF 5
ENDMDL
MODEL 7
REMARK VINA RESULT:      -7.6      2.373      9.110
REMARK  Name = 
REMARK  5 active torsions:
REMARK  status: ('A' for Active; 'I' for Inactive)
REMARK    1  A    between atoms: N_4  and  C_5
REMARK    2  A    between atoms: C_5  and  C_6
REMARK    3  A    between atoms: C_6  and  C_7
REMARK    4  A    between atoms: N_15  and  C_16
REMARK    5  A    between atoms: C_18  and  C_19
REMARK                            x       y       z     vdW  Elec       q    Type
REMARK                         _______ _______ _______ _____ _____    ______ ____
ROOT
ATOM      1  O   UNL     1       1.416   4.431  17.794  0.00  0.00    +0.000 OA
ATOM      2  C   UNL     1       2.577   4.811  17.697  0.00  0.00    +0.000 C 
ATOM      3  C   UNL     1       3.649   3.970  17.032  0.00  0.00    +0.000 C 
ATOM      4  N   UNL     1       4.793   4.839  17.107  0.00  0.00    +0.000 N 
ATOM      5  C   UNL     1       4.493   6.018  17.778  0.00  0.00    +0.000 C 
ATOM      6  O   UNL     1       5.319   6.883  18.034  0.00  0.00    +0.000 OA
ATOM      7  N   UNL     1       3.150   5.991  18.098  0.00  0.00    +0.000 N 
ENDROOT
BRANCH   7   8
ATOM      8  C   UNL     1       2.505   7.055  18.701  0.00  0.00    +0.000 A 
ATOM      9  C   UNL     1       2.141   8.286  18.195  0.00  0.00    +0.000 A 
ATOM     10  C   UNL     1       1.406   9.063  19.154  0.00  0.00    +0.000 A 
ATOM     11  N   UNL     1       1.314   8.504  20.365  0.00  0.00    +0.000 NA
ATOM     12  S   UNL     1       2.004   7.001  20.329  0.00  0.00    +0.000 S 
BRANCH  10  13
ATOM     13  C   UNL     1       0.762  10.350  18.878  0.00  0.00    +0.000 A 
ATOM     14  C   UNL     1       1.536  11.517  18.767  0.00  0.00    +0.000 A 
ATOM     15  C   UNL     1       0.935  12.742  18.479  0.00  0.00    +0.000 A 
ATOM     16  C   UNL     1      -0.444  12.814  18.299  0.00  0.00    +0.000 A 
ATOM     17  C   UNL     1      -1.224  11.663  18.407  0.00  0.00    +0.000 A 
ATOM     18  C   UNL     1      -0.624  10.435  18.693  0.00  0.00    +0.000 A 
ENDBRANCH  10  13
ENDBRANCH   7   8
BRANCH   4  19
ATOM     19  C   UNL     1       6.147   4.409  16.768  0.00  0.00    +0.000 C 
BRANCH  19  20
ATOM     20  C   UNL     1       6.823   5.338  15.759  0.00  0.00    +0.000 C 
BRANCH  20  21
ATOM     21  C   UNL     1       6.825   4.800  14.354  0.00  0.00    +0.000 A 
ATOM     22  C   UNL     1       5.947   3.775  13.979  0.00  0.00    +0.000 A 
ATOM     23  C   UNL     1       5.927   3.311  12.663  0.00  0.00    +0.000 A 
ATOM     24  C   UNL     1       6.787   3.862  11.715  0.00  0.00    +0.000 A 
ATOM     25  C   UNL     1       7.673   4.872  12.082  0.00  0.00    +0.000 A 
ATOM     26  C   UNL     1       7.696   5.337  13.397  0.00  0.00    +0.000 A 
ENDBRANCH  20  21
ENDBRANCH  19  20
ENDBRANCH   4  19
TORSDOF 5
ENDMDL
MODEL 8
REMARK VINA RESULT:      -7.6      1.722      9.669
REMARK  Name = 
REMARK  5 active torsions:
REMARK  status: ('A' for Active; 'I' for Inactive)
REMARK    1  A    between atoms: N_4  and  C_5
REMARK    2  A    between atoms: C_5  and  C_6
REMARK    3  A    between atoms: C_6  and  C_7
REMARK    4  A    between atoms: N_15  and  C_16
REMARK    5  A    between atoms: C_18  and  C_19
REMARK                            x       y       z     vdW  Elec       q    Type
REMARK                         _______ _______ _______ _____ _____    ______ ____
ROOT
ATOM      1  O   UNL     1       1.409   4.654  18.302  0.00  0.00    +0.000 OA
ATOM      2  C   UNL     1       2.507   5.096  17.986  0.00  0.00    +0.000 C 
ATOM      3  C   UNL     1       3.584   4.223  17.374  0.00  0.00    +0.000 C 
ATOM      4  N   UNL     1       4.633   5.177  17.129  0.00  0.00    +0.000 N 
ATOM      5  C   UNL     1       4.285   6.443  17.583  0.00  0.00    +0.000 C 
ATOM      6  O   UNL     1       5.039   7.405  17.556  0.00  0.00    +0.000 OA
ATOM      7  N   UNL     1       2.994   6.376  18.069  0.00  0.00    +0.000 N 
ENDROOT
BRANCH   7   8
ATOM      8  C   UNL     1       2.310   7.488  18.522  0.00  0.00    +0.000 A 
ATOM      9  C   UNL     1       1.613   7.696  19.695  0.00  0.00    +0.000 A 
ATOM     10  C   UNL     1       1.125   9.044  19.796  0.00  0.00    +0.000 A 
ATOM     11  N   UNL     1       1.335   9.791  18.708  0.00  0.00    +0.000 NA
ATOM     12  S   UNL     1       2.217   8.925  17.610  0.00  0.00    +0.000 S 
BRANCH  10  13
ATOM     13  C   UNL     1       0.471   9.615  20.977  0.00  0.00    +0.000 A 
ATOM     14  C   UNL     1      -0.264  10.807  20.870  0.00  0.00    +0.000 A 
ATOM     15  C   UNL     1      -0.912  11.344  21.983  0.00  0.00    +0.000 A 
ATOM     16  C   UNL     1      -0.831  10.696  23.213  0.00  0.00    +0.000 A 
ATOM     17  C   UNL     1      -0.103   9.512  23.333  0.00  0.00    +0.000 A 
ATOM     18  C   UNL     1       0.543   8.971  22.219  0.00  0.00    +0.000 A 
ENDBRANCH  10  13
ENDBRANCH   7   8
BRANCH   4  19
ATOM     19  C   UNL     1       5.980   4.795  16.716  0.00  0.00    +0.000 C 
BRANCH  19  20
ATOM     20  C   UNL     1       5.983   3.635  15.720  0.00  0.00    +0.000 C 
BRANCH  20  21
ATOM     21  C   UNL     1       6.451   4.024  14.345  0.00  0.00    +0.000 A 
ATOM     22  C   UNL     1       7.402   5.039  14.174  0.00  0.00    +0.000 A 
ATOM     23  C   UNL     1       7.862   5.365  12.897  0.00  0.00    +0.000 A 
ATOM     24  C   UNL     1       7.372   4.686  11.783  0.00  0.00    +0.000 A 
ATOM     25  C   UNL     1       6.416   3.685  11.943  0.00  0.00    +0.000 A 
ATOM     26  C   UNL     1       5.953   3.358  13.218  0.00  0.00    +0.000 A 
ENDBRANCH  20  21
ENDBRANCH  19  20
ENDBRANCH   4  19
TORSDOF 5
ENDMDL
MODEL 9
REMARK VINA RESULT:      -7.5      1.656      9.512
REMARK  Name = 
REMARK  5 active torsions:
REMARK  status: ('A' for Active; 'I' for Inactive)
REMARK    1  A    between atoms: N_4  and  C_5
REMARK    2  A    between atoms: C_5  and  C_6
REMARK    3  A    between atoms: C_6  and  C_7
REMARK    4  A    between atoms: N_15  and  C_16
REMARK    5  A    between atoms: C_18  and  C_19
REMARK                            x       y       z     vdW  Elec       q    Type
REMARK                         _______ _______ _______ _____ _____    ______ ____
ROOT
ATOM      1  O   UNL     1       1.579   4.492  18.230  0.00  0.00    +0.000 OA
ATOM      2  C   UNL     1       2.705   4.919  18.004  0.00  0.00    +0.000 C 
ATOM      3  C   UNL     1       3.816   4.029  17.481  0.00  0.00    +0.000 C 
ATOM      4  N   UNL     1       4.894   4.968  17.320  0.00  0.00    +0.000 N 
ATOM      5  C   UNL     1       4.529   6.239  17.744  0.00  0.00    +0.000 C 
ATOM      6  O   UNL     1       5.296   7.191  17.777  0.00  0.00    +0.000 OA
ATOM      7  N   UNL     1       3.202   6.192  18.124  0.00  0.00    +0.000 N 
ENDROOT
BRANCH   7   8
ATOM      8  C   UNL     1       2.499   7.314  18.520  0.00  0.00    +0.000 A 
ATOM      9  C   UNL     1       1.773   7.559  19.667  0.00  0.00    +0.000 A 
ATOM     10  C   UNL     1       1.272   8.905  19.708  0.00  0.00    +0.000 A 
ATOM     11  N   UNL     1       1.505   9.614  18.599  0.00  0.00    +0.000 NA
ATOM     12  S   UNL     1       2.419   8.716  17.554  0.00  0.00    +0.000 S 
BRANCH  10  13
ATOM     13  C   UNL     1       0.586   9.513  20.851  0.00  0.00    +0.000 A 
ATOM     14  C   UNL     1       0.270   8.739  21.979  0.00  0.00    +0.000 A 
ATOM     15  C   UNL     1      -0.360   9.315  23.082  0.00  0.00    +0.000 A 
ATOM     16  C   UNL     1      -0.681  10.670  23.069  0.00  0.00    +0.000 A 
ATOM     17  C   UNL     1      -0.374  11.451  21.955  0.00  0.00    +0.000 A 
ATOM     18  C   UNL     1       0.260  10.876  20.851  0.00  0.00    +0.000 A 
ENDBRANCH  10  13
ENDBRANCH   7   8
BRANCH   4  19
ATOM     19  C   UNL     1       6.265   4.566  17.017  0.00  0.00    +0.000 C 
BRANCH  19  20
ATOM     20  C   UNL     1       6.912   5.446  15.948  0.00  0.00    +0.000 C 
BRANCH  20  21
ATOM     21  C   UNL     1       6.841   4.861  14.563  0.00  0.00    +0.000 A 
ATOM     22  C   UNL     1       5.896   3.875  14.252  0.00  0.00    +0.000 A 
ATOM     23  C   UNL     1       5.809   3.369  12.954  0.00  0.00    +0.000 A 
ATOM     24  C   UNL     1       6.668   3.837  11.962  0.00  0.00    +0.000 A 
ATOM     25  C   UNL     1       7.620   4.808  12.267  0.00  0.00    +0.000 A 
ATOM     26  C   UNL     1       7.710   5.315  13.563  0.00  0.00    +0.000 A 
ENDBRANCH  20  21
ENDBRANCH  19  20
ENDBRANCH   4  19
TORSDOF 5
ENDMDL
