MODEL 1
REMARK VINA RESULT:      -8.1      0.000      0.000
REMARK  Name = 
REMARK  6 active torsions:
REMARK  status: ('A' for Active; 'I' for Inactive)
REMARK    1  A    between atoms: C_2  and  O_3
REMARK    2  A    between atoms: C_2  and  C_4
REMARK    3  A    between atoms: C_4  and  C_5
REMARK    4  A    between atoms: N_7  and  C_8
REMARK    5  A    between atoms: C_8  and  C_9
REMARK    6  A    between atoms: C_11  and  C_12
REMARK                            x       y       z     vdW  Elec       q    Type
REMARK                         _______ _______ _______ _____ _____    ______ ____
ROOT
ATOM      1  C   UNL     1       3.223   6.200  18.467  0.00  0.00    +0.000 A 
ATOM      2  N   UNL     1       4.292   6.587  17.817  0.00  0.00    +0.000 NA
ATOM      3  N   UNL     1       4.985   5.671  17.062  0.00  0.00    +0.000 N 
ATOM      4  C   UNL     1       4.596   4.350  16.877  0.00  0.00    +0.000 A 
ATOM      5  O   UNL     1       5.194   3.561  16.161  0.00  0.00    +0.000 OA
ATOM      6  C   UNL     1       3.396   3.911  17.619  0.00  0.00    +0.000 A 
ATOM      7  C   UNL     1       2.969   2.583  17.530  0.00  0.00    +0.000 A 
ATOM      8  C   UNL     1       1.854   2.162  18.252  0.00  0.00    +0.000 A 
ATOM      9  C   UNL     1       1.146   3.073  19.033  0.00  0.00    +0.000 A 
ATOM     10  C   UNL     1       1.560   4.404  19.107  0.00  0.00    +0.000 A 
ATOM     11  C   UNL     1       2.705   4.820  18.411  0.00  0.00    +0.000 A 
ENDROOT
BRANCH   1  12
ATOM     12  C   UNL     1       2.528   7.250  19.293  0.00  0.00    +0.000 C 
BRANCH  12  14
ATOM     13  O   UNL     1       1.175   9.208  19.039  0.00  0.00    +0.000 OA
ATOM     14  C   UNL     1       1.967   8.422  18.536  0.00  0.00    +0.000 C 
BRANCH  14  15
ATOM     15  O   UNL     1       2.385   8.559  17.261  0.00  0.00    +0.000 OA
ATOM     16  H   UNL     1       2.220   9.423  16.837  0.00  0.00    +0.000 HD
ENDBRANCH  14  15
ENDBRANCH  12  14
ENDBRANCH   1  12
BRANCH   3  17
ATOM     17  C   UNL     1       6.223   6.120  16.420  0.00  0.00    +0.000 C 
BRANCH  17  18
ATOM     18  C   UNL     1       6.987   7.053  17.294  0.00  0.00    +0.000 A 
ATOM     19  N   UNL     1       7.141   8.354  17.197  0.00  0.00    +0.000 NA
ATOM     20  C   UNL     1       8.102   8.620  18.162  0.00  0.00    +0.000 A 
ATOM     21  N   UNL     1       8.471   7.539  18.868  0.00  0.00    +0.000 NA
ATOM     22  O   UNL     1       7.737   6.499  18.291  0.00  0.00    +0.000 OA
BRANCH  20  23
ATOM     23  C   UNL     1       8.697   9.951  18.280  0.00  0.00    +0.000 A 
ATOM     24  C   UNL     1       9.707  10.155  19.220  0.00  0.00    +0.000 A 
ATOM     25  C   UNL     1      10.167  11.446  19.444  0.00  0.00    +0.000 A 
ATOM     26  C   UNL     1       9.615  12.496  18.720  0.00  0.00    +0.000 A 
ATOM     27  C   UNL     1       8.638  12.206  17.781  0.00  0.00    +0.000 A 
ATOM     28  N   UNL     1       8.171  10.963  17.540  0.00  0.00    +0.000 NA
ENDBRANCH  20  23
ENDBRANCH  17  18
ENDBRANCH   3  17
TORSDOF 6
ENDMDL
MODEL 2
REMARK VINA RESULT:      -8.0      3.649      5.751
REMARK  Name = 
REMARK  6 active torsions:
REMARK  status: ('A' for Active; 'I' for Inactive)
REMARK    1  A    between atoms: C_2  and  O_3
REMARK    2  A    between atoms: C_2  and  C_4
REMARK    3  A    between atoms: C_4  and  C_5
REMARK    4  A    between atoms: N_7  and  C_8
REMARK    5  A    between atoms: C_8  and  C_9
REMARK    6  A    between atoms: C_11  and  C_12
REMARK                            x       y       z     vdW  Elec       q    Type
REMARK                         _______ _______ _______ _____ _____    ______ ____
ROOT
ATOM      1  C   UNL     1       2.847   5.913  18.243  0.00  0.00    +0.000 A 
ATOM      2  N   UNL     1       4.065   6.087  17.796  0.00  0.00    +0.000 NA
ATOM      3  N   UNL     1       5.060   5.236  18.211  0.00  0.00    +0.000 N 
ATOM      4  C   UNL     1       4.859   4.138  19.039  0.00  0.00    +0.000 A 
ATOM      5  O   UNL     1       5.744   3.359  19.359  0.00  0.00    +0.000 OA
ATOM      6  C   UNL     1       3.486   3.948  19.553  0.00  0.00    +0.000 A 
ATOM      7  C   UNL     1       3.212   2.898  20.435  0.00  0.00    +0.000 A 
ATOM      8  C   UNL     1       1.923   2.736  20.941  0.00  0.00    +0.000 A 
ATOM      9  C   UNL     1       0.904   3.597  20.541  0.00  0.00    +0.000 A 
ATOM     10  C   UNL     1       1.174   4.634  19.645  0.00  0.00    +0.000 A 
ATOM     11  C   UNL     1       2.478   4.821  19.164  0.00  0.00    +0.000 A 
ENDROOT
BRANCH   1  12
ATOM     12  C   UNL     1       1.812   6.899  17.765  0.00  0.00    +0.000 C 
BRANCH  12  14
ATOM     13  O   UNL     1       2.319   9.220  17.473  0.00  0.00    +0.000 OA
ATOM     14  C   UNL     1       1.987   8.317  18.231  0.00  0.00    +0.000 C 
BRANCH  14  15
ATOM     15  O   UNL     1       1.760   8.543  19.541  0.00  0.00    +0.000 OA
ATOM     16  H   UNL     1       2.538   8.767  20.087  0.00  0.00    +0.000 HD
ENDBRANCH  14  15
ENDBRANCH  12  14
ENDBRANCH   1  12
BRANCH   3  17
ATOM     17  C   UNL     1       6.424   5.515  17.758  0.00  0.00    +0.000 C 
BRANCH  17  18
ATOM     18  C   UNL     1       6.560   5.341  16.285  0.00  0.00    +0.000 A 
ATOM     19  N   UNL     1       5.841   4.617  15.458  0.00  0.00    +0.000 NA
ATOM     20  C   UNL     1       6.562   4.700  14.275  0.00  0.00    +0.000 A 
ATOM     21  N   UNL     1       7.639   5.498  14.354  0.00  0.00    +0.000 NA
ATOM     22  O   UNL     1       7.642   5.920  15.686  0.00  0.00    +0.000 OA
BRANCH  20  23
ATOM     23  C   UNL     1       6.194   3.889  13.115  0.00  0.00    +0.000 A 
ATOM     24  C   UNL     1       4.846   3.783  12.769  0.00  0.00    +0.000 A 
ATOM     25  C   UNL     1       4.477   2.895  11.767  0.00  0.00    +0.000 A 
ATOM     26  C   UNL     1       5.459   2.146  11.131  0.00  0.00    +0.000 A 
ATOM     27  C   UNL     1       6.779   2.333  11.510  0.00  0.00    +0.000 A 
ATOM     28  N   UNL     1       7.170   3.188  12.479  0.00  0.00    +0.000 NA
ENDBRANCH  20  23
ENDBRANCH  17  18
ENDBRANCH   3  17
TORSDOF 6
ENDMDL
MODEL 3
REMARK VINA RESULT:      -7.9      2.878      6.473
REMARK  Name = 
REMARK  6 active torsions:
REMARK  status: ('A' for Active; 'I' for Inactive)
REMARK    1  A    between atoms: C_2  and  O_3
REMARK    2  A    between atoms: C_2  and  C_4
REMARK    3  A    between atoms: C_4  and  C_5
REMARK    4  A    between atoms: N_7  and  C_8
REMARK    5  A    between atoms: C_8  and  C_9
REMARK    6  A    between atoms: C_11  and  C_12
REMARK                            x       y       z     vdW  Elec       q    Type
REMARK                         _______ _______ _______ _____ _____    ______ ____
ROOT
ATOM      1  C   UNL     1       6.373   5.589  18.069  0.00  0.00    +0.000 A 
ATOM      2  N   UNL     1       5.397   5.589  18.942  0.00  0.00    +0.000 NA
ATOM      3  N   UNL     1       4.168   5.097  18.573  0.00  0.00    +0.000 N 
ATOM      4  C   UNL     1       3.889   4.527  17.336  0.00  0.00    +0.000 A 
ATOM      5  O   UNL     1       2.805   4.048  17.041  0.00  0.00    +0.000 OA
ATOM      6  C   UNL     1       4.987   4.538  16.348  0.00  0.00    +0.000 A 
ATOM      7  C   UNL     1       4.771   4.032  15.063  0.00  0.00    +0.000 A 
ATOM      8  C   UNL     1       5.799   4.067  14.121  0.00  0.00    +0.000 A 
ATOM      9  C   UNL     1       7.049   4.573  14.473  0.00  0.00    +0.000 A 
ATOM     10  C   UNL     1       7.270   5.061  15.762  0.00  0.00    +0.000 A 
ATOM     11  C   UNL     1       6.225   5.061  16.699  0.00  0.00    +0.000 A 
ENDROOT
BRANCH   1  12
ATOM     12  C   UNL     1       7.685   6.165  18.534  0.00  0.00    +0.000 C 
BRANCH  12  14
ATOM     13  O   UNL     1       7.423   8.137  17.203  0.00  0.00    +0.000 OA
ATOM     14  C   UNL     1       7.938   7.604  18.178  0.00  0.00    +0.000 C 
BRANCH  14  15
ATOM     15  O   UNL     1       8.772   8.280  18.994  0.00  0.00    +0.000 OA
ATOM     16  H   UNL     1       8.436   8.485  19.888  0.00  0.00    +0.000 HD
ENDBRANCH  14  15
ENDBRANCH  12  14
ENDBRANCH   1  12
BRANCH   3  17
ATOM     17  C   UNL     1       3.079   5.194  19.548  0.00  0.00    +0.000 C 
BRANCH  17  18
ATOM     18  C   UNL     1       2.566   6.587  19.660  0.00  0.00    +0.000 A 
ATOM     19  N   UNL     1       2.106   7.228  20.710  0.00  0.00    +0.000 NA
ATOM     20  C   UNL     1       1.601   8.396  20.158  0.00  0.00    +0.000 A 
ATOM     21  N   UNL     1       1.805   8.499  18.835  0.00  0.00    +0.000 NA
ATOM     22  O   UNL     1       2.439   7.300  18.502  0.00  0.00    +0.000 OA
BRANCH  20  23
ATOM     23  C   UNL     1       0.836   9.341  20.972  0.00  0.00    +0.000 A 
ATOM     24  C   UNL     1       0.462   8.965  22.263  0.00  0.00    +0.000 A 
ATOM     25  C   UNL     1      -0.392   9.792  22.983  0.00  0.00    +0.000 A 
ATOM     26  C   UNL     1      -0.840  10.971  22.402  0.00  0.00    +0.000 A 
ATOM     27  C   UNL     1      -0.397  11.288  21.128  0.00  0.00    +0.000 A 
ATOM     28  N   UNL     1       0.433  10.507  20.404  0.00  0.00    +0.000 NA
ENDBRANCH  20  23
ENDBRANCH  17  18
ENDBRANCH   3  17
TORSDOF 6
ENDMDL
MODEL 4
REMARK VINA RESULT:      -7.9      3.864      6.903
REMARK  Name = 
REMARK  6 active torsions:
REMARK  status: ('A' for Active; 'I' for Inactive)
REMARK    1  A    between atoms: C_2  and  O_3
REMARK    2  A    between atoms: C_2  and  C_4
REMARK    3  A    between atoms: C_4  and  C_5
REMARK    4  A    between atoms: N_7  and  C_8
REMARK    5  A    between atoms: C_8  and  C_9
REMARK    6  A    between atoms: C_11  and  C_12
REMARK                            x       y       z     vdW  Elec       q    Type
REMARK                         _______ _______ _______ _____ _____    ______ ____
ROOT
ATOM      1  C   UNL     1       4.563   3.890  19.214  0.00  0.00    +0.000 A 
ATOM      2  N   UNL     1       5.698   3.841  18.563  0.00  0.00    +0.000 NA
ATOM      3  N   UNL     1       6.125   4.950  17.874  0.00  0.00    +0.000 N 
ATOM      4  C   UNL     1       5.462   6.172  17.864  0.00  0.00    +0.000 A 
ATOM      5  O   UNL     1       5.880   7.164  17.288  0.00  0.00    +0.000 OA
ATOM      6  C   UNL     1       4.176   6.224  18.589  0.00  0.00    +0.000 A 
ATOM      7  C   UNL     1       3.421   7.401  18.583  0.00  0.00    +0.000 A 
ATOM      8  C   UNL     1       2.194   7.442  19.244  0.00  0.00    +0.000 A 
ATOM      9  C   UNL     1       1.739   6.323  19.938  0.00  0.00    +0.000 A 
ATOM     10  C   UNL     1       2.502   5.154  19.961  0.00  0.00    +0.000 A 
ATOM     11  C   UNL     1       3.719   5.099  19.264  0.00  0.00    +0.000 A 
ENDROOT
BRANCH   1  12
ATOM     12  C   UNL     1       4.147   2.630  19.926  0.00  0.00    +0.000 C 
BRANCH  12  14
ATOM     13  O   UNL     1       2.295   1.524  18.889  0.00  0.00    +0.000 OA
ATOM     14  C   UNL     1       3.504   1.571  19.074  0.00  0.00    +0.000 C 
BRANCH  14  15
ATOM     15  O   UNL     1       4.339   0.667  18.522  0.00  0.00    +0.000 OA
ATOM     16  H   UNL     1       4.007   0.185  17.740  0.00  0.00    +0.000 HD
ENDBRANCH  14  15
ENDBRANCH  12  14
ENDBRANCH   1  12
BRANCH   3  17
ATOM     17  C   UNL     1       7.355   4.828  17.087  0.00  0.00    +0.000 C 
BRANCH  17  18
ATOM     18  C   UNL     1       7.069   4.776  15.627  0.00  0.00    +0.000 A 
ATOM     19  N   UNL     1       6.248   3.996  14.962  0.00  0.00    +0.000 NA
ATOM     20  C   UNL     1       6.565   4.276  13.640  0.00  0.00    +0.000 A 
ATOM     21  N   UNL     1       7.491   5.238  13.499  0.00  0.00    +0.000 NA
ATOM     22  O   UNL     1       7.831   5.567  14.814  0.00  0.00    +0.000 OA
BRANCH  20  23
ATOM     23  C   UNL     1       5.988   3.491  12.549  0.00  0.00    +0.000 A 
ATOM     24  C   UNL     1       4.682   3.765  12.142  0.00  0.00    +0.000 A 
ATOM     25  C   UNL     1       4.076   2.926  11.215  0.00  0.00    +0.000 A 
ATOM     26  C   UNL     1       4.791   1.846  10.712  0.00  0.00    +0.000 A 
ATOM     27  C   UNL     1       6.095   1.661  11.143  0.00  0.00    +0.000 A 
ATOM     28  N   UNL     1       6.711   2.458  12.041  0.00  0.00    +0.000 NA
ENDBRANCH  20  23
ENDBRANCH  17  18
ENDBRANCH   3  17
TORSDOF 6
ENDMDL
MODEL 5
REMARK VINA RESULT:      -7.8      3.129      6.034
REMARK  Name = 
REMARK  6 active torsions:
REMARK  status: ('A' for Active; 'I' for Inactive)
REMARK    1  A    between atoms: C_2  and  O_3
REMARK    2  A    between atoms: C_2  and  C_4
REMARK    3  A    between atoms: C_4  and  C_5
REMARK    4  A    between atoms: N_7  and  C_8
REMARK    5  A    between atoms: C_8  and  C_9
REMARK    6  A    between atoms: C_11  and  C_12
REMARK                            x       y       z     vdW  Elec       q    Type
REMARK                         _______ _______ _______ _____ _____    ______ ____
ROOT
ATOM      1  C   UNL     1       6.812   5.226  18.004  0.00  0.00    +0.000 A 
ATOM      2  N   UNL     1       5.985   4.942  18.979  0.00  0.00    +0.000 NA
ATOM      3  N   UNL     1       4.831   4.251  18.699  0.00  0.00    +0.000 N 
ATOM      4  C   UNL     1       4.494   3.760  17.443  0.00  0.00    +0.000 A 
ATOM      5  O   UNL     1       3.490   3.103  17.219  0.00  0.00    +0.000 OA
ATOM      6  C   UNL     1       5.422   4.090  16.341  0.00  0.00    +0.000 A 
ATOM      7  C   UNL     1       5.128   3.680  15.037  0.00  0.00    +0.000 A 
ATOM      8  C   UNL     1       5.990   4.015  13.994  0.00  0.00    +0.000 A 
ATOM      9  C   UNL     1       7.158   4.727  14.256  0.00  0.00    +0.000 A 
ATOM     10  C   UNL     1       7.462   5.119  15.561  0.00  0.00    +0.000 A 
ATOM     11  C   UNL     1       6.577   4.816  16.607  0.00  0.00    +0.000 A 
ENDROOT
BRANCH   1  12
ATOM     12  C   UNL     1       8.044   6.006  18.380  0.00  0.00    +0.000 C 
BRANCH  12  14
ATOM     13  O   UNL     1       7.286   7.986  17.270  0.00  0.00    +0.000 OA
ATOM     14  C   UNL     1       7.982   7.490  18.147  0.00  0.00    +0.000 C 
BRANCH  14  15
ATOM     15  O   UNL     1       8.744   8.251  18.959  0.00  0.00    +0.000 OA
ATOM     16  H   UNL     1       9.707   8.096  18.927  0.00  0.00    +0.000 HD
ENDBRANCH  14  15
ENDBRANCH  12  14
ENDBRANCH   1  12
BRANCH   3  17
ATOM     17  C   UNL     1       3.890   4.028  19.799  0.00  0.00    +0.000 C 
BRANCH  17  18
ATOM     18  C   UNL     1       2.924   5.154  19.931  0.00  0.00    +0.000 A 
ATOM     19  N   UNL     1       2.795   6.235  19.197  0.00  0.00    +0.000 NA
ATOM     20  C   UNL     1       1.877   6.986  19.920  0.00  0.00    +0.000 A 
ATOM     21  N   UNL     1       1.412   6.361  21.014  0.00  0.00    +0.000 NA
ATOM     22  O   UNL     1       2.108   5.150  21.026  0.00  0.00    +0.000 OA
BRANCH  20  23
ATOM     23  C   UNL     1       1.566   8.362  19.534  0.00  0.00    +0.000 A 
ATOM     24  C   UNL     1       1.990   8.824  18.288  0.00  0.00    +0.000 A 
ATOM     25  C   UNL     1       1.833  10.169  17.979  0.00  0.00    +0.000 A 
ATOM     26  C   UNL     1       1.250  11.014  18.915  0.00  0.00    +0.000 A 
ATOM     27  C   UNL     1       0.825  10.471  20.118  0.00  0.00    +0.000 A 
ATOM     28  N   UNL     1       0.963   9.169  20.447  0.00  0.00    +0.000 NA
ENDBRANCH  20  23
ENDBRANCH  17  18
ENDBRANCH   3  17
TORSDOF 6
ENDMDL
MODEL 6
REMARK VINA RESULT:      -7.7      1.020      1.313
REMARK  Name = 
REMARK  6 active torsions:
REMARK  status: ('A' for Active; 'I' for Inactive)
REMARK    1  A    between atoms: C_2  and  O_3
REMARK    2  A    between atoms: C_2  and  C_4
REMARK    3  A    between atoms: C_4  and  C_5
REMARK    4  A    between atoms: N_7  and  C_8
REMARK    5  A    between atoms: C_8  and  C_9
REMARK    6  A    between atoms: C_11  and  C_12
REMARK                            x       y       z     vdW  Elec       q    Type
REMARK                         _______ _______ _______ _____ _____    ______ ____
ROOT
ATOM      1  C   UNL     1       3.180   6.237  17.670  0.00  0.00    +0.000 A 
ATOM      2  N   UNL     1       4.323   6.622  17.161  0.00  0.00    +0.000 NA
ATOM      3  N   UNL     1       5.215   5.674  16.723  0.00  0.00    +0.000 N 
ATOM      4  C   UNL     1       4.968   4.306  16.717  0.00  0.00    +0.000 A 
ATOM      5  O   UNL     1       5.750   3.478  16.276  0.00  0.00    +0.000 OA
ATOM      6  C   UNL     1       3.682   3.871  17.301  0.00  0.00    +0.000 A 
ATOM      7  C   UNL     1       3.380   2.509  17.381  0.00  0.00    +0.000 A 
ATOM      8  C   UNL     1       2.179   2.097  17.958  0.00  0.00    +0.000 A 
ATOM      9  C   UNL     1       1.267   3.044  18.419  0.00  0.00    +0.000 A 
ATOM     10  C   UNL     1       1.560   4.405  18.321  0.00  0.00    +0.000 A 
ATOM     11  C   UNL     1       2.785   4.820  17.776  0.00  0.00    +0.000 A 
ENDROOT
BRANCH   1  12
ATOM     12  C   UNL     1       2.261   7.330  18.152  0.00  0.00    +0.000 C 
BRANCH  12  14
ATOM     13  O   UNL     1       1.553   8.430  20.156  0.00  0.00    +0.000 OA
ATOM     14  C   UNL     1       2.174   7.509  19.642  0.00  0.00    +0.000 C 
BRANCH  14  15
ATOM     15  O   UNL     1       2.826   6.593  20.388  0.00  0.00    +0.000 OA
ATOM     16  H   UNL     1       3.550   6.108  19.949  0.00  0.00    +0.000 HD
ENDBRANCH  14  15
ENDBRANCH  12  14
ENDBRANCH   1  12
BRANCH   3  17
ATOM     17  C   UNL     1       6.518   6.140  16.241  0.00  0.00    +0.000 C 
BRANCH  17  18
ATOM     18  C   UNL     1       7.184   7.027  17.234  0.00  0.00    +0.000 A 
ATOM     19  N   UNL     1       7.299   8.335  17.244  0.00  0.00    +0.000 NA
ATOM     20  C   UNL     1       8.180   8.557  18.293  0.00  0.00    +0.000 A 
ATOM     21  N   UNL     1       8.536   7.438  18.944  0.00  0.00    +0.000 NA
ATOM     22  O   UNL     1       7.882   6.422  18.241  0.00  0.00    +0.000 OA
BRANCH  20  23
ATOM     23  C   UNL     1       8.716   9.893  18.551  0.00  0.00    +0.000 A 
ATOM     24  C   UNL     1       8.483  10.903  17.618  0.00  0.00    +0.000 A 
ATOM     25  C   UNL     1       9.117  12.128  17.780  0.00  0.00    +0.000 A 
ATOM     26  C   UNL     1       9.955  12.316  18.871  0.00  0.00    +0.000 A 
ATOM     27  C   UNL     1      10.109  11.274  19.772  0.00  0.00    +0.000 A 
ATOM     28  N   UNL     1       9.507  10.073  19.642  0.00  0.00    +0.000 NA
ENDBRANCH  20  23
ENDBRANCH  17  18
ENDBRANCH   3  17
TORSDOF 6
ENDMDL
MODEL 7
REMARK VINA RESULT:      -7.7      3.532      4.936
REMARK  Name = 
REMARK  6 active torsions:
REMARK  status: ('A' for Active; 'I' for Inactive)
REMARK    1  A    between atoms: C_2  and  O_3
REMARK    2  A    between atoms: C_2  and  C_4
REMARK    3  A    between atoms: C_4  and  C_5
REMARK    4  A    between atoms: N_7  and  C_8
REMARK    5  A    between atoms: C_8  and  C_9
REMARK    6  A    between atoms: C_11  and  C_12
REMARK                            x       y       z     vdW  Elec       q    Type
REMARK                         _______ _______ _______ _____ _____    ______ ____
ROOT
ATOM      1  C   UNL     1       3.024   5.990  19.624  0.00  0.00    +0.000 A 
ATOM      2  N   UNL     1       4.282   6.073  19.272  0.00  0.00    +0.000 NA
ATOM      3  N   UNL     1       5.063   4.943  19.307  0.00  0.00    +0.000 N 
ATOM      4  C   UNL     1       4.596   3.675  19.633  0.00  0.00    +0.000 A 
ATOM      5  O   UNL     1       5.291   2.670  19.609  0.00  0.00    +0.000 OA
ATOM      6  C   UNL     1       3.179   3.584  20.041  0.00  0.00    +0.000 A 
ATOM      7  C   UNL     1       2.646   2.354  20.436  0.00  0.00    +0.000 A 
ATOM      8  C   UNL     1       1.316   2.273  20.847  0.00  0.00    +0.000 A 
ATOM      9  C   UNL     1       0.512   3.411  20.831  0.00  0.00    +0.000 A 
ATOM     10  C   UNL     1       1.039   4.636  20.418  0.00  0.00    +0.000 A 
ATOM     11  C   UNL     1       2.387   4.726  20.039  0.00  0.00    +0.000 A 
ENDROOT
BRANCH   1  12
ATOM     12  C   UNL     1       2.234   7.273  19.585  0.00  0.00    +0.000 C 
BRANCH  12  14
ATOM     13  O   UNL     1       1.522   8.941  18.025  0.00  0.00    +0.000 OA
ATOM     14  C   UNL     1       2.330   8.068  18.313  0.00  0.00    +0.000 C 
BRANCH  14  15
ATOM     15  O   UNL     1       3.361   7.763  17.499  0.00  0.00    +0.000 OA
ATOM     16  H   UNL     1       3.132   7.415  16.616  0.00  0.00    +0.000 HD
ENDBRANCH  14  15
ENDBRANCH  12  14
ENDBRANCH   1  12
BRANCH   3  17
ATOM     17  C   UNL     1       6.486   5.092  18.990  0.00  0.00    +0.000 C 
BRANCH  17  18
ATOM     18  C   UNL     1       6.697   5.396  17.547  0.00  0.00    +0.000 A 
ATOM     19  N   UNL     1       6.247   4.769  16.485  0.00  0.00    +0.000 NA
ATOM     20  C   UNL     1       6.934   5.389  15.451  0.00  0.00    +0.000 A 
ATOM     21  N   UNL     1       7.719   6.401  15.856  0.00  0.00    +0.000 NA
ATOM     22  O   UNL     1       7.568   6.404  17.245  0.00  0.00    +0.000 OA
BRANCH  20  23
ATOM     23  C   UNL     1       6.851   4.878  14.083  0.00  0.00    +0.000 A 
ATOM     24  C   UNL     1       5.980   3.822  13.812  0.00  0.00    +0.000 A 
ATOM     25  C   UNL     1       6.008   3.232  12.555  0.00  0.00    +0.000 A 
ATOM     26  C   UNL     1       6.895   3.716  11.601  0.00  0.00    +0.000 A 
ATOM     27  C   UNL     1       7.705   4.789  11.938  0.00  0.00    +0.000 A 
ATOM     28  N   UNL     1       7.700   5.384  13.150  0.00  0.00    +0.000 NA
ENDBRANCH  20  23
ENDBRANCH  17  18
ENDBRANCH   3  17
TORSDOF 6
ENDMDL
MODEL 8
REMARK VINA RESULT:      -7.7      3.298      5.509
REMARK  Name = 
REMARK  6 active torsions:
REMARK  status: ('A' for Active; 'I' for Inactive)
REMARK    1  A    between atoms: C_2  and  O_3
REMARK    2  A    between atoms: C_2  and  C_4
REMARK    3  A    between atoms: C_4  and  C_5
REMARK    4  A    between atoms: N_7  and  C_8
REMARK    5  A    between atoms: C_8  and  C_9
REMARK    6  A    between atoms: C_11  and  C_12
REMARK                            x       y       z     vdW  Elec       q    Type
REMARK                         _______ _______ _______ _____ _____    ______ ____
ROOT
ATOM      1  C   UNL     1       2.580   6.504  18.404  0.00  0.00    +0.000 A 
ATOM      2  N   UNL     1       3.728   6.873  17.895  0.00  0.00    +0.000 NA
ATOM      3  N   UNL     1       4.839   6.094  18.111  0.00  0.00    +0.000 N 
ATOM      4  C   UNL     1       4.828   4.881  18.790  0.00  0.00    +0.000 A 
ATOM      5  O   UNL     1       5.814   4.174  18.929  0.00  0.00    +0.000 OA
ATOM      6  C   UNL     1       3.534   4.470  19.374  0.00  0.00    +0.000 A 
ATOM      7  C   UNL     1       3.450   3.289  20.117  0.00  0.00    +0.000 A 
ATOM      8  C   UNL     1       2.236   2.915  20.691  0.00  0.00    +0.000 A 
ATOM      9  C   UNL     1       1.101   3.699  20.494  0.00  0.00    +0.000 A 
ATOM     10  C   UNL     1       1.181   4.868  19.735  0.00  0.00    +0.000 A 
ATOM     11  C   UNL     1       2.411   5.266  19.188  0.00  0.00    +0.000 A 
ENDROOT
BRANCH   1  12
ATOM     12  C   UNL     1       1.411   7.419  18.148  0.00  0.00    +0.000 C 
BRANCH  12  14
ATOM     13  O   UNL     1       1.417   9.424  19.454  0.00  0.00    +0.000 OA
ATOM     14  C   UNL     1       1.656   8.884  18.382  0.00  0.00    +0.000 C 
BRANCH  14  15
ATOM     15  O   UNL     1       2.153   9.576  17.336  0.00  0.00    +0.000 OA
ATOM     16  H   UNL     1       2.135   9.130  16.468  0.00  0.00    +0.000 HD
ENDBRANCH  14  15
ENDBRANCH  12  14
ENDBRANCH   1  12
BRANCH   3  17
ATOM     17  C   UNL     1       6.121   6.585  17.600  0.00  0.00    +0.000 C 
BRANCH  17  18
ATOM     18  C   UNL     1       6.426   6.024  16.255  0.00  0.00    +0.000 A 
ATOM     19  N   UNL     1       5.645   5.377  15.421  0.00  0.00    +0.000 NA
ATOM     20  C   UNL     1       6.533   4.943  14.446  0.00  0.00    +0.000 A 
ATOM     21  N   UNL     1       7.793   5.365  14.637  0.00  0.00    +0.000 NA
ATOM     22  O   UNL     1       7.726   6.078  15.838  0.00  0.00    +0.000 OA
BRANCH  20  23
ATOM     23  C   UNL     1       6.099   4.027  13.392  0.00  0.00    +0.000 A 
ATOM     24  C   UNL     1       7.065   3.413  12.594  0.00  0.00    +0.000 A 
ATOM     25  C   UNL     1       6.656   2.665  11.498  0.00  0.00    +0.000 A 
ATOM     26  C   UNL     1       5.298   2.541  11.232  0.00  0.00    +0.000 A 
ATOM     27  C   UNL     1       4.400   3.154  12.091  0.00  0.00    +0.000 A 
ATOM     28  N   UNL     1       4.766   3.887  13.164  0.00  0.00    +0.000 NA
ENDBRANCH  20  23
ENDBRANCH  17  18
ENDBRANCH   3  17
TORSDOF 6
ENDMDL
MODEL 9
REMARK VINA RESULT:      -7.5      1.278      1.289
REMARK  Name = 
REMARK  6 active torsions:
REMARK  status: ('A' for Active; 'I' for Inactive)
REMARK    1  A    between atoms: C_2  and  O_3
REMARK    2  A    between atoms: C_2  and  C_4
REMARK    3  A    between atoms: C_4  and  C_5
REMARK    4  A    between atoms: N_7  and  C_8
REMARK    5  A    between atoms: C_8  and  C_9
REMARK    6  A    between atoms: C_11  and  C_12
REMARK                            x       y       z     vdW  Elec       q    Type
REMARK                         _______ _______ _______ _____ _____    ______ ____
ROOT
ATOM      1  C   UNL     1       3.231   6.417  17.800  0.00  0.00    +0.000 A 
ATOM      2  N   UNL     1       4.368   6.674  17.203  0.00  0.00    +0.000 NA
ATOM      3  N   UNL     1       5.461   5.888  17.477  0.00  0.00    +0.000 N 
ATOM      4  C   UNL     1       5.440   4.774  18.309  0.00  0.00    +0.000 A 
ATOM      5  O   UNL     1       6.408   4.055  18.502  0.00  0.00    +0.000 OA
ATOM      6  C   UNL     1       4.160   4.491  18.990  0.00  0.00    +0.000 A 
ATOM      7  C   UNL     1       4.070   3.420  19.884  0.00  0.00    +0.000 A 
ATOM      8  C   UNL     1       2.869   3.170  20.548  0.00  0.00    +0.000 A 
ATOM      9  C   UNL     1       1.753   3.964  20.293  0.00  0.00    +0.000 A 
ATOM     10  C   UNL     1       1.838   5.021  19.385  0.00  0.00    +0.000 A 
ATOM     11  C   UNL     1       3.056   5.298  18.745  0.00  0.00    +0.000 A 
ENDROOT
BRANCH   1  12
ATOM     12  C   UNL     1       2.082   7.334  17.470  0.00  0.00    +0.000 C 
BRANCH  12  14
ATOM     13  O   UNL     1       1.997   8.634  19.478  0.00  0.00    +0.000 OA
ATOM     14  C   UNL     1       2.015   8.615  18.254  0.00  0.00    +0.000 C 
BRANCH  14  15
ATOM     15  O   UNL     1       1.973   9.752  17.529  0.00  0.00    +0.000 OA
ATOM     16  H   UNL     1       2.125   9.663  16.569  0.00  0.00    +0.000 HD
ENDBRANCH  14  15
ENDBRANCH  12  14
ENDBRANCH   1  12
BRANCH   3  17
ATOM     17  C   UNL     1       6.736   6.260  16.858  0.00  0.00    +0.000 C 
BRANCH  17  18
ATOM     18  C   UNL     1       7.402   7.368  17.597  0.00  0.00    +0.000 A 
ATOM     19  N   UNL     1       7.454   8.649  17.316  0.00  0.00    +0.000 NA
ATOM     20  C   UNL     1       8.369   9.128  18.244  0.00  0.00    +0.000 A 
ATOM     21  N   UNL     1       8.806   8.194  19.102  0.00  0.00    +0.000 NA
ATOM     22  O   UNL     1       8.171   7.025  18.673  0.00  0.00    +0.000 OA
BRANCH  20  23
ATOM     23  C   UNL     1       8.852  10.507  18.176  0.00  0.00    +0.000 A 
ATOM     24  C   UNL     1       9.999  10.854  18.891  0.00  0.00    +0.000 A 
ATOM     25  C   UNL     1      10.374  12.190  18.955  0.00  0.00    +0.000 A 
ATOM     26  C   UNL     1       9.603  13.140  18.298  0.00  0.00    +0.000 A 
ATOM     27  C   UNL     1       8.497  12.712  17.582  0.00  0.00    +0.000 A 
ATOM     28  N   UNL     1       8.107  11.422  17.500  0.00  0.00    +0.000 NA
ENDBRANCH  20  23
ENDBRANCH  17  18
ENDBRANCH   3  17
TORSDOF 6
ENDMDL
