MODEL 1
REMARK VINA RESULT:      -7.2      0.000      0.000
REMARK  Name = 
REMARK  3 active torsions:
REMARK  status: ('A' for Active; 'I' for Inactive)
REMARK    1  A    between atoms: C_1  and  O_2
REMARK    2  A    between atoms: O_2  and  C_3
REMARK    3  A    between atoms: C_9  and  O_10
REMARK                            x       y       z     vdW  Elec       q    Type
REMARK                         _______ _______ _______ _____ _____    ______ ____
ROOT
ATOM      1  C   UNL     1       0.196   8.981  21.417  0.00  0.00    +0.000 A 
ATOM      2  C   UNL     1       0.326  10.047  20.547  0.00  0.00    +0.000 A 
ATOM      3  C   UNL     1       1.116   9.922  19.406  0.00  0.00    +0.000 A 
ATOM      4  C   UNL     1       1.781   8.706  19.146  0.00  0.00    +0.000 A 
ATOM      5  S   UNL     1       2.773   8.390  17.798  0.00  0.00    +0.000 S 
ATOM      6  C   UNL     1       3.106   6.788  18.301  0.00  0.00    +0.000 A 
ATOM      7  C   UNL     1       3.912   5.873  17.621  0.00  0.00    +0.000 A 
ATOM      8  N   UNL     1       4.112   4.640  18.093  0.00  0.00    +0.000 NA
ATOM      9  C   UNL     1       3.534   4.270  19.234  0.00  0.00    +0.000 A 
ATOM     10  C   UNL     1       3.776   2.977  19.677  0.00  0.00    +0.000 A 
ATOM     11  C   UNL     1       3.221   2.484  20.859  0.00  0.00    +0.000 A 
ATOM     12  C   UNL     1       2.405   3.300  21.622  0.00  0.00    +0.000 A 
ATOM     13  C   UNL     1       2.145   4.604  21.201  0.00  0.00    +0.000 A 
ATOM     14  C   UNL     1       2.701   5.119  20.004  0.00  0.00    +0.000 A 
ATOM     15  C   UNL     1       2.474   6.458  19.505  0.00  0.00    +0.000 A 
ATOM     16  C   UNL     1       1.690   7.604  20.001  0.00  0.00    +0.000 A 
ATOM     17  C   UNL     1       0.882   7.785  21.161  0.00  0.00    +0.000 A 
ENDROOT
BRANCH   1  19
ATOM     18  C   UNL     1      -0.821  10.281  23.104  0.00  0.00    +0.000 C 
ATOM     19  O   UNL     1      -0.539   8.991  22.572  0.00  0.00    +0.000 OA
ENDBRANCH   1  19
BRANCH   7  20
ATOM     20  O   UNL     1       4.549   6.167  16.439  0.00  0.00    +0.000 OA
ATOM     21  H   UNL     1       4.809   5.314  16.056  0.00  0.00    +0.000 HD
ENDBRANCH   7  20
TORSDOF 2
ENDMDL
MODEL 2
REMARK VINA RESULT:      -7.2      2.585      5.620
REMARK  Name = 
REMARK  3 active torsions:
REMARK  status: ('A' for Active; 'I' for Inactive)
REMARK    1  A    between atoms: C_1  and  O_2
REMARK    2  A    between atoms: O_2  and  C_3
REMARK    3  A    between atoms: C_9  and  O_10
REMARK                            x       y       z     vdW  Elec       q    Type
REMARK                         _______ _______ _______ _____ _____    ______ ____
ROOT
ATOM      1  C   UNL     1       2.465   4.527  20.835  0.00  0.00    +0.000 A 
ATOM      2  C   UNL     1       3.183   4.237  19.690  0.00  0.00    +0.000 A 
ATOM      3  C   UNL     1       3.348   5.211  18.707  0.00  0.00    +0.000 A 
ATOM      4  C   UNL     1       2.781   6.489  18.887  0.00  0.00    +0.000 A 
ATOM      5  S   UNL     1       2.897   7.788  17.790  0.00  0.00    +0.000 S 
ATOM      6  C   UNL     1       1.976   8.833  18.785  0.00  0.00    +0.000 A 
ATOM      7  C   UNL     1       1.652  10.158  18.490  0.00  0.00    +0.000 A 
ATOM      8  N   UNL     1       0.927  10.899  19.333  0.00  0.00    +0.000 NA
ATOM      9  C   UNL     1       0.502  10.367  20.477  0.00  0.00    +0.000 A 
ATOM     10  C   UNL     1      -0.247  11.182  21.315  0.00  0.00    +0.000 A 
ATOM     11  C   UNL     1      -0.743  10.730  22.539  0.00  0.00    +0.000 A 
ATOM     12  C   UNL     1      -0.488   9.430  22.939  0.00  0.00    +0.000 A 
ATOM     13  C   UNL     1       0.262   8.589  22.117  0.00  0.00    +0.000 A 
ATOM     14  C   UNL     1       0.772   9.034  20.872  0.00  0.00    +0.000 A 
ATOM     15  C   UNL     1       1.557   8.219  19.970  0.00  0.00    +0.000 A 
ATOM     16  C   UNL     1       2.037   6.826  20.022  0.00  0.00    +0.000 A 
ATOM     17  C   UNL     1       1.884   5.793  20.991  0.00  0.00    +0.000 A 
ENDROOT
BRANCH   1  19
ATOM     18  C   UNL     1       1.290   2.615  21.569  0.00  0.00    +0.000 C 
ATOM     19  O   UNL     1       2.226   3.648  21.858  0.00  0.00    +0.000 OA
ENDBRANCH   1  19
BRANCH   7  20
ATOM     20  O   UNL     1       2.046  10.789  17.334  0.00  0.00    +0.000 OA
ATOM     21  H   UNL     1       1.552  11.623  17.303  0.00  0.00    +0.000 HD
ENDBRANCH   7  20
TORSDOF 2
ENDMDL
MODEL 3
REMARK VINA RESULT:      -7.2      2.395      3.905
REMARK  Name = 
REMARK  3 active torsions:
REMARK  status: ('A' for Active; 'I' for Inactive)
REMARK    1  A    between atoms: C_1  and  O_2
REMARK    2  A    between atoms: O_2  and  C_3
REMARK    3  A    between atoms: C_9  and  O_10
REMARK                            x       y       z     vdW  Elec       q    Type
REMARK                         _______ _______ _______ _____ _____    ______ ____
ROOT
ATOM      1  C   UNL     1       1.582   9.257  19.071  0.00  0.00    +0.000 A 
ATOM      2  C   UNL     1       0.920   8.970  20.251  0.00  0.00    +0.000 A 
ATOM      3  C   UNL     1       1.070   7.719  20.846  0.00  0.00    +0.000 A 
ATOM      4  C   UNL     1       1.897   6.750  20.240  0.00  0.00    +0.000 A 
ATOM      5  S   UNL     1       2.191   5.184  20.840  0.00  0.00    +0.000 S 
ATOM      6  C   UNL     1       3.228   4.778  19.541  0.00  0.00    +0.000 A 
ATOM      7  C   UNL     1       3.881   3.556  19.373  0.00  0.00    +0.000 A 
ATOM      8  N   UNL     1       4.676   3.333  18.322  0.00  0.00    +0.000 NA
ATOM      9  C   UNL     1       4.851   4.291  17.415  0.00  0.00    +0.000 A 
ATOM     10  C   UNL     1       5.688   4.004  16.345  0.00  0.00    +0.000 A 
ATOM     11  C   UNL     1       5.944   4.934  15.336  0.00  0.00    +0.000 A 
ATOM     12  C   UNL     1       5.350   6.182  15.392  0.00  0.00    +0.000 A 
ATOM     13  C   UNL     1       4.505   6.497  16.456  0.00  0.00    +0.000 A 
ATOM     14  C   UNL     1       4.236   5.564  17.487  0.00  0.00    +0.000 A 
ATOM     15  C   UNL     1       3.373   5.822  18.620  0.00  0.00    +0.000 A 
ATOM     16  C   UNL     1       2.576   6.989  19.041  0.00  0.00    +0.000 A 
ATOM     17  C   UNL     1       2.381   8.277  18.465  0.00  0.00    +0.000 A 
ENDROOT
BRANCH   1  19
ATOM     18  C   UNL     1       0.641  11.420  18.968  0.00  0.00    +0.000 C 
ATOM     19  O   UNL     1       1.500  10.442  18.391  0.00  0.00    +0.000 OA
ENDBRANCH   1  19
BRANCH   7  20
ATOM     20  O   UNL     1       3.759   2.511  20.257  0.00  0.00    +0.000 OA
ATOM     21  H   UNL     1       2.833   2.226  20.208  0.00  0.00    +0.000 HD
ENDBRANCH   7  20
TORSDOF 2
ENDMDL
MODEL 4
REMARK VINA RESULT:      -7.1      4.313      7.279
REMARK  Name = 
REMARK  3 active torsions:
REMARK  status: ('A' for Active; 'I' for Inactive)
REMARK    1  A    between atoms: C_1  and  O_2
REMARK    2  A    between atoms: O_2  and  C_3
REMARK    3  A    between atoms: C_9  and  O_10
REMARK                            x       y       z     vdW  Elec       q    Type
REMARK                         _______ _______ _______ _____ _____    ______ ____
ROOT
ATOM      1  C   UNL     1       5.420   3.902  13.242  0.00  0.00    +0.000 A 
ATOM      2  C   UNL     1       6.751   4.254  13.126  0.00  0.00    +0.000 A 
ATOM      3  C   UNL     1       7.467   4.652  14.254  0.00  0.00    +0.000 A 
ATOM      4  C   UNL     1       6.826   4.694  15.510  0.00  0.00    +0.000 A 
ATOM      5  S   UNL     1       7.557   5.149  16.979  0.00  0.00    +0.000 S 
ATOM      6  C   UNL     1       6.120   4.910  17.877  0.00  0.00    +0.000 A 
ATOM      7  C   UNL     1       5.978   5.106  19.252  0.00  0.00    +0.000 A 
ATOM      8  N   UNL     1       4.811   4.890  19.866  0.00  0.00    +0.000 NA
ATOM      9  C   UNL     1       3.760   4.481  19.159  0.00  0.00    +0.000 A 
ATOM     10  C   UNL     1       2.574   4.273  19.849  0.00  0.00    +0.000 A 
ATOM     11  C   UNL     1       1.411   3.844  19.209  0.00  0.00    +0.000 A 
ATOM     12  C   UNL     1       1.427   3.618  17.843  0.00  0.00    +0.000 A 
ATOM     13  C   UNL     1       2.606   3.819  17.125  0.00  0.00    +0.000 A 
ATOM     14  C   UNL     1       3.794   4.255  17.761  0.00  0.00    +0.000 A 
ATOM     15  C   UNL     1       5.051   4.482  17.081  0.00  0.00    +0.000 A 
ATOM     16  C   UNL     1       5.479   4.359  15.675  0.00  0.00    +0.000 A 
ATOM     17  C   UNL     1       4.787   3.972  14.491  0.00  0.00    +0.000 A 
ENDROOT
BRANCH   1  19
ATOM     18  C   UNL     1       5.123   2.446  11.407  0.00  0.00    +0.000 C 
ATOM     19  O   UNL     1       4.616   3.510  12.206  0.00  0.00    +0.000 OA
ENDBRANCH   1  19
BRANCH   7  20
ATOM     20  O   UNL     1       7.006   5.527  20.061  0.00  0.00    +0.000 OA
ATOM     21  H   UNL     1       6.719   5.353  20.971  0.00  0.00    +0.000 HD
ENDBRANCH   7  20
TORSDOF 2
ENDMDL
MODEL 5
REMARK VINA RESULT:      -6.9      1.115      1.382
REMARK  Name = 
REMARK  3 active torsions:
REMARK  status: ('A' for Active; 'I' for Inactive)
REMARK    1  A    between atoms: C_1  and  O_2
REMARK    2  A    between atoms: O_2  and  C_3
REMARK    3  A    between atoms: C_9  and  O_10
REMARK                            x       y       z     vdW  Elec       q    Type
REMARK                         _______ _______ _______ _____ _____    ______ ____
ROOT
ATOM      1  C   UNL     1       0.911   9.205  19.797  0.00  0.00    +0.000 A 
ATOM      2  C   UNL     1       1.363   9.986  18.750  0.00  0.00    +0.000 A 
ATOM      3  C   UNL     1       2.299   9.474  17.853  0.00  0.00    +0.000 A 
ATOM      4  C   UNL     1       2.781   8.159  18.021  0.00  0.00    +0.000 A 
ATOM      5  S   UNL     1       3.915   7.385  17.013  0.00  0.00    +0.000 S 
ATOM      6  C   UNL     1       3.881   5.938  17.928  0.00  0.00    +0.000 A 
ATOM      7  C   UNL     1       4.621   4.787  17.656  0.00  0.00    +0.000 A 
ATOM      8  N   UNL     1       4.526   3.702  18.430  0.00  0.00    +0.000 NA
ATOM      9  C   UNL     1       3.712   3.715  19.483  0.00  0.00    +0.000 A 
ATOM     10  C   UNL     1       3.653   2.560  20.252  0.00  0.00    +0.000 A 
ATOM     11  C   UNL     1       2.834   2.462  21.377  0.00  0.00    +0.000 A 
ATOM     12  C   UNL     1       2.053   3.542  21.750  0.00  0.00    +0.000 A 
ATOM     13  C   UNL     1       2.093   4.715  20.996  0.00  0.00    +0.000 A 
ATOM     14  C   UNL     1       2.920   4.830  19.851  0.00  0.00    +0.000 A 
ATOM     15  C   UNL     1       3.011   6.012  19.021  0.00  0.00    +0.000 A 
ATOM     16  C   UNL     1       2.362   7.336  19.071  0.00  0.00    +0.000 A 
ATOM     17  C   UNL     1       1.416   7.909  19.968  0.00  0.00    +0.000 A 
ENDROOT
BRANCH   1  19
ATOM     18  C   UNL     1      -0.043   8.802  21.919  0.00  0.00    +0.000 C 
ATOM     19  O   UNL     1       0.007   9.605  20.744  0.00  0.00    +0.000 OA
ENDBRANCH   1  19
BRANCH   7  20
ATOM     20  O   UNL     1       5.486   4.684  16.592  0.00  0.00    +0.000 OA
ATOM     21  H   UNL     1       6.090   3.956  16.809  0.00  0.00    +0.000 HD
ENDBRANCH   7  20
TORSDOF 2
ENDMDL
MODEL 6
REMARK VINA RESULT:      -6.9      2.430      5.867
REMARK  Name = 
REMARK  3 active torsions:
REMARK  status: ('A' for Active; 'I' for Inactive)
REMARK    1  A    between atoms: C_1  and  O_2
REMARK    2  A    between atoms: O_2  and  C_3
REMARK    3  A    between atoms: C_9  and  O_10
REMARK                            x       y       z     vdW  Elec       q    Type
REMARK                         _______ _______ _______ _____ _____    ______ ____
ROOT
ATOM      1  C   UNL     1       5.466   4.562  15.412  0.00  0.00    +0.000 A 
ATOM      2  C   UNL     1       5.658   5.866  14.995  0.00  0.00    +0.000 A 
ATOM      3  C   UNL     1       5.074   6.916  15.702  0.00  0.00    +0.000 A 
ATOM      4  C   UNL     1       4.288   6.640  16.840  0.00  0.00    +0.000 A 
ATOM      5  S   UNL     1       3.514   7.804  17.814  0.00  0.00    +0.000 S 
ATOM      6  C   UNL     1       2.856   6.624  18.865  0.00  0.00    +0.000 A 
ATOM      7  C   UNL     1       2.053   6.882  19.977  0.00  0.00    +0.000 A 
ATOM      8  N   UNL     1       1.586   5.891  20.741  0.00  0.00    +0.000 NA
ATOM      9  C   UNL     1       1.889   4.630  20.440  0.00  0.00    +0.000 A 
ATOM     10  C   UNL     1       1.377   3.641  21.269  0.00  0.00    +0.000 A 
ATOM     11  C   UNL     1       1.630   2.286  21.049  0.00  0.00    +0.000 A 
ATOM     12  C   UNL     1       2.413   1.905  19.973  0.00  0.00    +0.000 A 
ATOM     13  C   UNL     1       2.940   2.878  19.124  0.00  0.00    +0.000 A 
ATOM     14  C   UNL     1       2.692   4.257  19.335  0.00  0.00    +0.000 A 
ATOM     15  C   UNL     1       3.206   5.319  18.498  0.00  0.00    +0.000 A 
ATOM     16  C   UNL     1       4.055   5.337  17.292  0.00  0.00    +0.000 A 
ATOM     17  C   UNL     1       4.662   4.299  16.529  0.00  0.00    +0.000 A 
ENDROOT
BRANCH   1  19
ATOM     18  C   UNL     1       6.184   3.580  13.388  0.00  0.00    +0.000 C 
ATOM     19  O   UNL     1       5.977   3.454  14.791  0.00  0.00    +0.000 OA
ENDBRANCH   1  19
BRANCH   7  20
ATOM     20  O   UNL     1       1.689   8.151  20.361  0.00  0.00    +0.000 OA
ATOM     21  H   UNL     1       2.507   8.590  20.642  0.00  0.00    +0.000 HD
ENDBRANCH   7  20
TORSDOF 2
ENDMDL
MODEL 7
REMARK VINA RESULT:      -6.6      2.747      6.806
REMARK  Name = 
REMARK  3 active torsions:
REMARK  status: ('A' for Active; 'I' for Inactive)
REMARK    1  A    between atoms: C_1  and  O_2
REMARK    2  A    between atoms: O_2  and  C_3
REMARK    3  A    between atoms: C_9  and  O_10
REMARK                            x       y       z     vdW  Elec       q    Type
REMARK                         _______ _______ _______ _____ _____    ______ ____
ROOT
ATOM      1  C   UNL     1       5.689   5.138  15.505  0.00  0.00    +0.000 A 
ATOM      2  C   UNL     1       6.021   3.839  15.841  0.00  0.00    +0.000 A 
ATOM      3  C   UNL     1       5.489   3.261  16.993  0.00  0.00    +0.000 A 
ATOM      4  C   UNL     1       4.615   4.008  17.810  0.00  0.00    +0.000 A 
ATOM      5  S   UNL     1       3.878   3.448  19.240  0.00  0.00    +0.000 S 
ATOM      6  C   UNL     1       3.064   4.929  19.511  0.00  0.00    +0.000 A 
ATOM      7  C   UNL     1       2.213   5.205  20.582  0.00  0.00    +0.000 A 
ATOM      8  N   UNL     1       1.619   6.395  20.708  0.00  0.00    +0.000 NA
ATOM      9  C   UNL     1       1.840   7.341  19.797  0.00  0.00    +0.000 A 
ATOM     10  C   UNL     1       1.197   8.557  19.978  0.00  0.00    +0.000 A 
ATOM     11  C   UNL     1       1.355   9.618  19.085  0.00  0.00    +0.000 A 
ATOM     12  C   UNL     1       2.179   9.465  17.983  0.00  0.00    +0.000 A 
ATOM     13  C   UNL     1       2.837   8.253  17.777  0.00  0.00    +0.000 A 
ATOM     14  C   UNL     1       2.686   7.167  18.675  0.00  0.00    +0.000 A 
ATOM     15  C   UNL     1       3.336   5.883  18.524  0.00  0.00    +0.000 A 
ATOM     16  C   UNL     1       4.261   5.328  17.518  0.00  0.00    +0.000 A 
ATOM     17  C   UNL     1       4.840   5.879  16.339  0.00  0.00    +0.000 A 
ENDROOT
BRANCH   1  19
ATOM     18  C   UNL     1       7.103   5.103  13.614  0.00  0.00    +0.000 C 
ATOM     19  O   UNL     1       6.159   5.812  14.409  0.00  0.00    +0.000 OA
ENDBRANCH   1  19
BRANCH   7  20
ATOM     20  O   UNL     1       1.927   4.292  21.569  0.00  0.00    +0.000 OA
ATOM     21  H   UNL     1       2.230   3.433  21.234  0.00  0.00    +0.000 HD
ENDBRANCH   7  20
TORSDOF 2
ENDMDL
MODEL 8
REMARK VINA RESULT:      -6.2      4.271      6.269
REMARK  Name = 
REMARK  3 active torsions:
REMARK  status: ('A' for Active; 'I' for Inactive)
REMARK    1  A    between atoms: C_1  and  O_2
REMARK    2  A    between atoms: O_2  and  C_3
REMARK    3  A    between atoms: C_9  and  O_10
REMARK                            x       y       z     vdW  Elec       q    Type
REMARK                         _______ _______ _______ _____ _____    ______ ____
ROOT
ATOM      1  C   UNL     1       2.230   3.085  18.393  0.00  0.00    +0.000 A 
ATOM      2  C   UNL     1       2.292   3.642  19.657  0.00  0.00    +0.000 A 
ATOM      3  C   UNL     1       3.314   4.535  19.974  0.00  0.00    +0.000 A 
ATOM      4  C   UNL     1       4.281   4.865  19.002  0.00  0.00    +0.000 A 
ATOM      5  S   UNL     1       5.583   5.940  19.227  0.00  0.00    +0.000 S 
ATOM      6  C   UNL     1       6.161   5.721  17.630  0.00  0.00    +0.000 A 
ATOM      7  C   UNL     1       7.282   6.345  17.079  0.00  0.00    +0.000 A 
ATOM      8  N   UNL     1       7.656   6.111  15.818  0.00  0.00    +0.000 NA
ATOM      9  C   UNL     1       6.949   5.268  15.068  0.00  0.00    +0.000 A 
ATOM     10  C   UNL     1       7.383   5.063  13.765  0.00  0.00    +0.000 A 
ATOM     11  C   UNL     1       6.719   4.202  12.891  0.00  0.00    +0.000 A 
ATOM     12  C   UNL     1       5.593   3.524  13.325  0.00  0.00    +0.000 A 
ATOM     13  C   UNL     1       5.136   3.710  14.629  0.00  0.00    +0.000 A 
ATOM     14  C   UNL     1       5.799   4.581  15.528  0.00  0.00    +0.000 A 
ATOM     15  C   UNL     1       5.381   4.825  16.892  0.00  0.00    +0.000 A 
ATOM     16  C   UNL     1       4.267   4.318  17.715  0.00  0.00    +0.000 A 
ATOM     17  C   UNL     1       3.212   3.401  17.444  0.00  0.00    +0.000 A 
ENDROOT
BRANCH   1  19
ATOM     18  C   UNL     1       0.322   1.812  18.953  0.00  0.00    +0.000 C 
ATOM     19  O   UNL     1       1.284   2.188  17.973  0.00  0.00    +0.000 OA
ENDBRANCH   1  19
BRANCH   7  20
ATOM     20  O   UNL     1       8.070   7.228  17.778  0.00  0.00    +0.000 OA
ATOM     21  H   UNL     1       8.374   6.750  18.566  0.00  0.00    +0.000 HD
ENDBRANCH   7  20
TORSDOF 2
ENDMDL
MODEL 9
REMARK VINA RESULT:      -6.0      6.799      8.943
REMARK  Name = 
REMARK  3 active torsions:
REMARK  status: ('A' for Active; 'I' for Inactive)
REMARK    1  A    between atoms: C_1  and  O_2
REMARK    2  A    between atoms: O_2  and  C_3
REMARK    3  A    between atoms: C_9  and  O_10
REMARK                            x       y       z     vdW  Elec       q    Type
REMARK                         _______ _______ _______ _____ _____    ______ ____
ROOT
ATOM      1  C   UNL     1      -1.754  12.105  22.667  0.00  0.00    +0.000 A 
ATOM      2  C   UNL     1      -2.593  12.877  23.448  0.00  0.00    +0.000 A 
ATOM      3  C   UNL     1      -3.790  13.357  22.919  0.00  0.00    +0.000 A 
ATOM      4  C   UNL     1      -4.138  13.052  21.587  0.00  0.00    +0.000 A 
ATOM      5  S   UNL     1      -5.561  13.553  20.796  0.00  0.00    +0.000 S 
ATOM      6  C   UNL     1      -5.138  12.767  19.336  0.00  0.00    +0.000 A 
ATOM      7  C   UNL     1      -5.903  12.755  18.169  0.00  0.00    +0.000 A 
ATOM      8  N   UNL     1      -5.489  12.109  17.075  0.00  0.00    +0.000 NA
ATOM      9  C   UNL     1      -4.325  11.464  17.093  0.00  0.00    +0.000 A 
ATOM     10  C   UNL     1      -3.945  10.810  15.929  0.00  0.00    +0.000 A 
ATOM     11  C   UNL     1      -2.745  10.103  15.834  0.00  0.00    +0.000 A 
ATOM     12  C   UNL     1      -1.899  10.046  16.928  0.00  0.00    +0.000 A 
ATOM     13  C   UNL     1      -2.256  10.694  18.111  0.00  0.00    +0.000 A 
ATOM     14  C   UNL     1      -3.470  11.416  18.221  0.00  0.00    +0.000 A 
ATOM     15  C   UNL     1      -3.906  12.109  19.414  0.00  0.00    +0.000 A 
ATOM     16  C   UNL     1      -3.316  12.286  20.755  0.00  0.00    +0.000 A 
ATOM     17  C   UNL     1      -2.098  11.830  21.336  0.00  0.00    +0.000 A 
ENDROOT
BRANCH   1  19
ATOM     18  C   UNL     1      -0.431  10.176  22.987  0.00  0.00    +0.000 C 
ATOM     19  O   UNL     1      -0.551  11.592  23.073  0.00  0.00    +0.000 OA
ENDBRANCH   1  19
BRANCH   7  20
ATOM     20  O   UNL     1      -7.116  13.392  18.059  0.00  0.00    +0.000 OA
ATOM     21  H   UNL     1      -7.173  13.992  18.819  0.00  0.00    +0.000 HD
ENDBRANCH   7  20
TORSDOF 2
ENDMDL
