MODEL 1
REMARK VINA RESULT:      -8.4      0.000      0.000
REMARK  Name = 
REMARK  1 active torsions:
REMARK  status: ('A' for Active; 'I' for Inactive)
REMARK    1  A    between atoms: C_9  and  C_10
REMARK                            x       y       z     vdW  Elec       q    Type
REMARK                         _______ _______ _______ _____ _____    ______ ____
ROOT
ATOM      1  O   UNL     1       0.742   8.602  22.286  0.00  0.00    +0.000 OA
ATOM      2  C   UNL     1       0.675   9.238  21.240  0.00  0.00    +0.000 A 
ATOM      3  N   UNL     1       0.036  10.454  21.166  0.00  0.00    +0.000 N 
ATOM      4  C   UNL     1      -0.041  11.222  20.033  0.00  0.00    +0.000 A 
ATOM      5  C   UNL     1       0.533  10.832  18.887  0.00  0.00    +0.000 A 
ATOM      6  C   UNL     1       1.253   9.556  18.843  0.00  0.00    +0.000 A 
ATOM      7  C   UNL     1       1.902   9.123  17.689  0.00  0.00    +0.000 A 
ATOM      8  C   UNL     1       2.611   7.912  17.694  0.00  0.00    +0.000 A 
ATOM      9  C   UNL     1       2.661   7.076  18.830  0.00  0.00    +0.000 A 
ATOM     10  C   UNL     1       1.950   7.507  19.962  0.00  0.00    +0.000 A 
ATOM     11  C   UNL     1       1.300   8.748  19.984  0.00  0.00    +0.000 A 
ATOM     12  H   UNL     1      -0.384  10.780  22.029  0.00  0.00    +0.000 HD
ENDROOT
BRANCH   9  13
ATOM     13  C   UNL     1       3.420   5.794  18.818  0.00  0.00    +0.000 A 
ATOM     14  C   UNL     1       4.791   5.806  19.163  0.00  0.00    +0.000 A 
ATOM     15  C   UNL     1       5.571   4.646  19.168  0.00  0.00    +0.000 A 
ATOM     16  C   UNL     1       5.012   3.431  18.798  0.00  0.00    +0.000 A 
ATOM     17  C   UNL     1       3.663   3.368  18.450  0.00  0.00    +0.000 A 
ATOM     18  C   UNL     1       2.858   4.536  18.482  0.00  0.00    +0.000 A 
ATOM     19  C   UNL     1       1.406   4.299  18.123  0.00  0.00    +0.000 C 
ATOM     20  C   UNL     1       0.909   2.982  18.731  0.00  0.00    +0.000 C 
ATOM     21  N   UNL     1       1.716   1.793  18.449  0.00  0.00    +0.000 NA
ATOM     22  C   UNL     1       3.055   2.082  17.936  0.00  0.00    +0.000 C 
ATOM     23  H   UNL     1       1.233   1.199  17.779  0.00  0.00    +0.000 HD
ENDBRANCH   9  13
TORSDOF 1
ENDMDL
MODEL 2
REMARK VINA RESULT:      -8.1      3.008      6.814
REMARK  Name = 
REMARK  1 active torsions:
REMARK  status: ('A' for Active; 'I' for Inactive)
REMARK    1  A    between atoms: C_9  and  C_10
REMARK                            x       y       z     vdW  Elec       q    Type
REMARK                         _______ _______ _______ _____ _____    ______ ____
ROOT
ATOM      1  O   UNL     1       6.989   7.667  17.061  0.00  0.00    +0.000 OA
ATOM      2  C   UNL     1       6.540   6.584  16.704  0.00  0.00    +0.000 A 
ATOM      3  N   UNL     1       7.272   5.709  15.934  0.00  0.00    +0.000 N 
ATOM      4  C   UNL     1       6.832   4.473  15.534  0.00  0.00    +0.000 A 
ATOM      5  C   UNL     1       5.626   4.015  15.891  0.00  0.00    +0.000 A 
ATOM      6  C   UNL     1       4.756   4.852  16.720  0.00  0.00    +0.000 A 
ATOM      7  C   UNL     1       3.509   4.407  17.153  0.00  0.00    +0.000 A 
ATOM      8  C   UNL     1       2.717   5.223  17.975  0.00  0.00    +0.000 A 
ATOM      9  C   UNL     1       3.121   6.520  18.357  0.00  0.00    +0.000 A 
ATOM     10  C   UNL     1       4.356   6.968  17.860  0.00  0.00    +0.000 A 
ATOM     11  C   UNL     1       5.181   6.131  17.097  0.00  0.00    +0.000 A 
ATOM     12  H   UNL     1       8.198   6.027  15.674  0.00  0.00    +0.000 HD
ENDROOT
BRANCH   9  13
ATOM     13  C   UNL     1       2.269   7.373  19.232  0.00  0.00    +0.000 A 
ATOM     14  C   UNL     1       1.912   6.898  20.515  0.00  0.00    +0.000 A 
ATOM     15  C   UNL     1       1.111   7.636  21.390  0.00  0.00    +0.000 A 
ATOM     16  C   UNL     1       0.610   8.870  21.001  0.00  0.00    +0.000 A 
ATOM     17  C   UNL     1       0.935   9.383  19.745  0.00  0.00    +0.000 A 
ATOM     18  C   UNL     1       1.781   8.654  18.870  0.00  0.00    +0.000 A 
ATOM     19  C   UNL     1       2.078   9.361  17.563  0.00  0.00    +0.000 C 
ATOM     20  C   UNL     1       2.290  10.861  17.799  0.00  0.00    +0.000 C 
ATOM     21  N   UNL     1       1.236  11.557  18.540  0.00  0.00    +0.000 NA
ATOM     22  C   UNL     1       0.315  10.671  19.251  0.00  0.00    +0.000 C 
ATOM     23  H   UNL     1       0.698  12.143  17.905  0.00  0.00    +0.000 HD
ENDBRANCH   9  13
TORSDOF 1
ENDMDL
MODEL 3
REMARK VINA RESULT:      -8.0      2.274      6.884
REMARK  Name = 
REMARK  1 active torsions:
REMARK  status: ('A' for Active; 'I' for Inactive)
REMARK    1  A    between atoms: C_9  and  C_10
REMARK                            x       y       z     vdW  Elec       q    Type
REMARK                         _______ _______ _______ _____ _____    ______ ____
ROOT
ATOM      1  O   UNL     1       5.757   4.898  18.333  0.00  0.00    +0.000 OA
ATOM      2  C   UNL     1       4.985   4.218  18.999  0.00  0.00    +0.000 A 
ATOM      3  N   UNL     1       5.271   2.916  19.342  0.00  0.00    +0.000 N 
ATOM      4  C   UNL     1       4.461   2.122  20.112  0.00  0.00    +0.000 A 
ATOM      5  C   UNL     1       3.305   2.580  20.609  0.00  0.00    +0.000 A 
ATOM      6  C   UNL     1       2.895   3.957  20.321  0.00  0.00    +0.000 A 
ATOM      7  C   UNL     1       1.724   4.497  20.846  0.00  0.00    +0.000 A 
ATOM      8  C   UNL     1       1.380   5.830  20.576  0.00  0.00    +0.000 A 
ATOM      9  C   UNL     1       2.168   6.653  19.744  0.00  0.00    +0.000 A 
ATOM     10  C   UNL     1       3.313   6.069  19.180  0.00  0.00    +0.000 A 
ATOM     11  C   UNL     1       3.696   4.761  19.501  0.00  0.00    +0.000 A 
ATOM     12  H   UNL     1       6.153   2.558  18.997  0.00  0.00    +0.000 HD
ENDROOT
BRANCH   9  13
ATOM     13  C   UNL     1       1.790   8.069  19.470  0.00  0.00    +0.000 A 
ATOM     14  C   UNL     1       1.866   8.555  18.145  0.00  0.00    +0.000 A 
ATOM     15  C   UNL     1       1.534   9.871  17.811  0.00  0.00    +0.000 A 
ATOM     16  C   UNL     1       1.140  10.761  18.800  0.00  0.00    +0.000 A 
ATOM     17  C   UNL     1       1.047  10.328  20.123  0.00  0.00    +0.000 A 
ATOM     18  C   UNL     1       1.345   8.982  20.459  0.00  0.00    +0.000 A 
ATOM     19  C   UNL     1       1.154   8.654  21.926  0.00  0.00    +0.000 C 
ATOM     20  C   UNL     1      -0.099   9.346  22.474  0.00  0.00    +0.000 C 
ATOM     21  N   UNL     1      -0.194  10.789  22.248  0.00  0.00    +0.000 NA
ATOM     22  C   UNL     1       0.729  11.301  21.235  0.00  0.00    +0.000 C 
ATOM     23  H   UNL     1      -0.028  11.286  23.120  0.00  0.00    +0.000 HD
ENDBRANCH   9  13
TORSDOF 1
ENDMDL
MODEL 4
REMARK VINA RESULT:      -8.0      1.356      1.394
REMARK  Name = 
REMARK  1 active torsions:
REMARK  status: ('A' for Active; 'I' for Inactive)
REMARK    1  A    between atoms: C_9  and  C_10
REMARK                            x       y       z     vdW  Elec       q    Type
REMARK                         _______ _______ _______ _____ _____    ______ ____
ROOT
ATOM      1  O   UNL     1       1.172   9.235  22.680  0.00  0.00    +0.000 OA
ATOM      2  C   UNL     1       0.768   9.766  21.652  0.00  0.00    +0.000 A 
ATOM      3  N   UNL     1       0.007  10.912  21.674  0.00  0.00    +0.000 N 
ATOM      4  C   UNL     1      -0.443  11.566  20.556  0.00  0.00    +0.000 A 
ATOM      5  C   UNL     1      -0.151  11.124  19.326  0.00  0.00    +0.000 A 
ATOM      6  C   UNL     1       0.663   9.916  19.172  0.00  0.00    +0.000 A 
ATOM      7  C   UNL     1       1.031   9.437  17.917  0.00  0.00    +0.000 A 
ATOM      8  C   UNL     1       1.840   8.295  17.809  0.00  0.00    +0.000 A 
ATOM      9  C   UNL     1       2.273   7.573  18.941  0.00  0.00    +0.000 A 
ATOM     10  C   UNL     1       1.841   8.042  20.192  0.00  0.00    +0.000 A 
ATOM     11  C   UNL     1       1.091   9.220  20.309  0.00  0.00    +0.000 A 
ATOM     12  H   UNL     1      -0.205  11.278  22.595  0.00  0.00    +0.000 HD
ENDROOT
BRANCH   9  13
ATOM     13  C   UNL     1       3.134   6.364  18.808  0.00  0.00    +0.000 A 
ATOM     14  C   UNL     1       4.318   6.447  18.042  0.00  0.00    +0.000 A 
ATOM     15  C   UNL     1       5.173   5.355  17.866  0.00  0.00    +0.000 A 
ATOM     16  C   UNL     1       4.857   4.127  18.427  0.00  0.00    +0.000 A 
ATOM     17  C   UNL     1       3.698   3.994  19.193  0.00  0.00    +0.000 A 
ATOM     18  C   UNL     1       2.850   5.111  19.408  0.00  0.00    +0.000 A 
ATOM     19  C   UNL     1       1.657   4.821  20.297  0.00  0.00    +0.000 C 
ATOM     20  C   UNL     1       2.061   3.902  21.456  0.00  0.00    +0.000 C 
ATOM     21  N   UNL     1       2.752   2.663  21.091  0.00  0.00    +0.000 NA
ATOM     22  C   UNL     1       3.271   2.644  19.724  0.00  0.00    +0.000 C 
ATOM     23  H   UNL     1       2.125   1.871  21.211  0.00  0.00    +0.000 HD
ENDBRANCH   9  13
TORSDOF 1
ENDMDL
MODEL 5
REMARK VINA RESULT:      -7.7      1.874      6.716
REMARK  Name = 
REMARK  1 active torsions:
REMARK  status: ('A' for Active; 'I' for Inactive)
REMARK    1  A    between atoms: C_9  and  C_10
REMARK                            x       y       z     vdW  Elec       q    Type
REMARK                         _______ _______ _______ _____ _____    ______ ____
ROOT
ATOM      1  O   UNL     1       2.106   4.711  21.146  0.00  0.00    +0.000 OA
ATOM      2  C   UNL     1       2.868   4.900  20.205  0.00  0.00    +0.000 A 
ATOM      3  N   UNL     1       3.783   3.953  19.805  0.00  0.00    +0.000 N 
ATOM      4  C   UNL     1       4.636   4.099  18.742  0.00  0.00    +0.000 A 
ATOM      5  C   UNL     1       4.624   5.205  17.986  0.00  0.00    +0.000 A 
ATOM      6  C   UNL     1       3.684   6.282  18.306  0.00  0.00    +0.000 A 
ATOM      7  C   UNL     1       3.602   7.435  17.529  0.00  0.00    +0.000 A 
ATOM      8  C   UNL     1       2.666   8.432  17.846  0.00  0.00    +0.000 A 
ATOM      9  C   UNL     1       1.814   8.332  18.966  0.00  0.00    +0.000 A 
ATOM     10  C   UNL     1       1.957   7.187  19.767  0.00  0.00    +0.000 A 
ATOM     11  C   UNL     1       2.840   6.159  19.416  0.00  0.00    +0.000 A 
ATOM     12  H   UNL     1       3.792   3.098  20.349  0.00  0.00    +0.000 HD
ENDROOT
BRANCH   9  13
ATOM     13  C   UNL     1       0.825   9.399  19.286  0.00  0.00    +0.000 A 
ATOM     14  C   UNL     1       0.060   9.962  18.239  0.00  0.00    +0.000 A 
ATOM     15  C   UNL     1      -0.882  10.970  18.459  0.00  0.00    +0.000 A 
ATOM     16  C   UNL     1      -1.074  11.475  19.736  0.00  0.00    +0.000 A 
ATOM     17  C   UNL     1      -0.345  10.952  20.804  0.00  0.00    +0.000 A 
ATOM     18  C   UNL     1       0.584   9.900  20.591  0.00  0.00    +0.000 A 
ATOM     19  C   UNL     1       1.264   9.408  21.852  0.00  0.00    +0.000 C 
ATOM     20  C   UNL     1       0.267   9.357  23.016  0.00  0.00    +0.000 C 
ATOM     21  N   UNL     1      -0.489  10.583  23.277  0.00  0.00    +0.000 NA
ATOM     22  C   UNL     1      -0.451  11.557  22.186  0.00  0.00    +0.000 C 
ATOM     23  H   UNL     1      -0.141  11.029  24.122  0.00  0.00    +0.000 HD
ENDBRANCH   9  13
TORSDOF 1
ENDMDL
MODEL 6
REMARK VINA RESULT:      -7.7      2.070      3.219
REMARK  Name = 
REMARK  1 active torsions:
REMARK  status: ('A' for Active; 'I' for Inactive)
REMARK    1  A    between atoms: C_9  and  C_10
REMARK                            x       y       z     vdW  Elec       q    Type
REMARK                         _______ _______ _______ _____ _____    ______ ____
ROOT
ATOM      1  O   UNL     1       2.250   9.452  17.091  0.00  0.00    +0.000 OA
ATOM      2  C   UNL     1       1.819   9.885  18.154  0.00  0.00    +0.000 A 
ATOM      3  N   UNL     1       1.489  11.211  18.321  0.00  0.00    +0.000 N 
ATOM      4  C   UNL     1       0.974  11.742  19.475  0.00  0.00    +0.000 A 
ATOM      5  C   UNL     1       0.736  10.977  20.548  0.00  0.00    +0.000 A 
ATOM      6  C   UNL     1       1.038   9.545  20.490  0.00  0.00    +0.000 A 
ATOM      7  C   UNL     1       0.773   8.697  21.562  0.00  0.00    +0.000 A 
ATOM      8  C   UNL     1       1.043   7.324  21.458  0.00  0.00    +0.000 A 
ATOM      9  C   UNL     1       1.624   6.760  20.302  0.00  0.00    +0.000 A 
ATOM     10  C   UNL     1       1.935   7.644  19.257  0.00  0.00    +0.000 A 
ATOM     11  C   UNL     1       1.603   9.003  19.330  0.00  0.00    +0.000 A 
ATOM     12  H   UNL     1       1.638  11.803  17.512  0.00  0.00    +0.000 HD
ENDROOT
BRANCH   9  13
ATOM     13  C   UNL     1       1.902   5.299  20.208  0.00  0.00    +0.000 A 
ATOM     14  C   UNL     1       0.856   4.384  20.461  0.00  0.00    +0.000 A 
ATOM     15  C   UNL     1       1.041   3.000  20.399  0.00  0.00    +0.000 A 
ATOM     16  C   UNL     1       2.293   2.479  20.108  0.00  0.00    +0.000 A 
ATOM     17  C   UNL     1       3.358   3.342  19.848  0.00  0.00    +0.000 A 
ATOM     18  C   UNL     1       3.164   4.747  19.871  0.00  0.00    +0.000 A 
ATOM     19  C   UNL     1       4.403   5.549  19.526  0.00  0.00    +0.000 C 
ATOM     20  C   UNL     1       5.177   4.878  18.386  0.00  0.00    +0.000 C 
ATOM     21  N   UNL     1       5.508   3.464  18.571  0.00  0.00    +0.000 NA
ATOM     22  C   UNL     1       4.756   2.805  19.639  0.00  0.00    +0.000 C 
ATOM     23  H   UNL     1       6.502   3.366  18.766  0.00  0.00    +0.000 HD
ENDBRANCH   9  13
TORSDOF 1
ENDMDL
MODEL 7
REMARK VINA RESULT:      -7.7      1.779      2.503
REMARK  Name = 
REMARK  1 active torsions:
REMARK  status: ('A' for Active; 'I' for Inactive)
REMARK    1  A    between atoms: C_9  and  C_10
REMARK                            x       y       z     vdW  Elec       q    Type
REMARK                         _______ _______ _______ _____ _____    ______ ____
ROOT
ATOM      1  O   UNL     1       1.093   9.364  22.687  0.00  0.00    +0.000 OA
ATOM      2  C   UNL     1       0.803   9.884  21.615  0.00  0.00    +0.000 A 
ATOM      3  N   UNL     1       0.148  11.092  21.544  0.00  0.00    +0.000 N 
ATOM      4  C   UNL     1      -0.172  11.733  20.376  0.00  0.00    +0.000 A 
ATOM      5  C   UNL     1       0.154  11.214  19.185  0.00  0.00    +0.000 A 
ATOM      6  C   UNL     1       0.863   9.933  19.131  0.00  0.00    +0.000 A 
ATOM      7  C   UNL     1       1.262   9.369  17.921  0.00  0.00    +0.000 A 
ATOM      8  C   UNL     1       1.969   8.157  17.909  0.00  0.00    +0.000 A 
ATOM      9  C   UNL     1       2.265   7.450  19.094  0.00  0.00    +0.000 A 
ATOM     10  C   UNL     1       1.802   8.009  20.295  0.00  0.00    +0.000 A 
ATOM     11  C   UNL     1       1.156   9.253  20.318  0.00  0.00    +0.000 A 
ATOM     12  H   UNL     1      -0.086  11.515  22.436  0.00  0.00    +0.000 HD
ENDROOT
BRANCH   9  13
ATOM     13  C   UNL     1       3.019   6.165  19.063  0.00  0.00    +0.000 A 
ATOM     14  C   UNL     1       2.589   5.097  19.883  0.00  0.00    +0.000 A 
ATOM     15  C   UNL     1       3.248   3.865  19.914  0.00  0.00    +0.000 A 
ATOM     16  C   UNL     1       4.384   3.665  19.143  0.00  0.00    +0.000 A 
ATOM     17  C   UNL     1       4.847   4.688  18.315  0.00  0.00    +0.000 A 
ATOM     18  C   UNL     1       4.157   5.926  18.252  0.00  0.00    +0.000 A 
ATOM     19  C   UNL     1       4.755   6.919  17.275  0.00  0.00    +0.000 C 
ATOM     20  C   UNL     1       5.218   6.207  15.999  0.00  0.00    +0.000 C 
ATOM     21  N   UNL     1       6.107   5.058  16.183  0.00  0.00    +0.000 NA
ATOM     22  C   UNL     1       6.143   4.539  17.550  0.00  0.00    +0.000 C 
ATOM     23  H   UNL     1       7.054   5.308  15.906  0.00  0.00    +0.000 HD
ENDBRANCH   9  13
TORSDOF 1
ENDMDL
MODEL 8
REMARK VINA RESULT:      -7.6      1.646      2.150
REMARK  Name = 
REMARK  1 active torsions:
REMARK  status: ('A' for Active; 'I' for Inactive)
REMARK    1  A    between atoms: C_9  and  C_10
REMARK                            x       y       z     vdW  Elec       q    Type
REMARK                         _______ _______ _______ _____ _____    ______ ____
ROOT
ATOM      1  O   UNL     1       1.649  10.715  17.468  0.00  0.00    +0.000 OA
ATOM      2  C   UNL     1       1.298  10.503  18.624  0.00  0.00    +0.000 A 
ATOM      3  N   UNL     1       0.643  11.454  19.373  0.00  0.00    +0.000 N 
ATOM      4  C   UNL     1       0.199  11.260  20.655  0.00  0.00    +0.000 A 
ATOM      5  C   UNL     1       0.367  10.088  21.280  0.00  0.00    +0.000 A 
ATOM      6  C   UNL     1       1.043   8.992  20.582  0.00  0.00    +0.000 A 
ATOM      7  C   UNL     1       1.208   7.741  21.170  0.00  0.00    +0.000 A 
ATOM      8  C   UNL     1       1.830   6.704  20.458  0.00  0.00    +0.000 A 
ATOM      9  C   UNL     1       2.344   6.892  19.157  0.00  0.00    +0.000 A 
ATOM     10  C   UNL     1       2.218   8.178  18.608  0.00  0.00    +0.000 A 
ATOM     11  C   UNL     1       1.536   9.196  19.288  0.00  0.00    +0.000 A 
ATOM     12  H   UNL     1       0.483  12.341  18.909  0.00  0.00    +0.000 HD
ENDROOT
BRANCH   9  13
ATOM     13  C   UNL     1       3.000   5.779  18.414  0.00  0.00    +0.000 A 
ATOM     14  C   UNL     1       4.171   6.048  17.670  0.00  0.00    +0.000 A 
ATOM     15  C   UNL     1       4.839   5.058  16.943  0.00  0.00    +0.000 A 
ATOM     16  C   UNL     1       4.340   3.765  16.909  0.00  0.00    +0.000 A 
ATOM     17  C   UNL     1       3.187   3.449  17.628  0.00  0.00    +0.000 A 
ATOM     18  C   UNL     1       2.530   4.441  18.400  0.00  0.00    +0.000 A 
ATOM     19  C   UNL     1       1.320   3.935  19.159  0.00  0.00    +0.000 C 
ATOM     20  C   UNL     1       1.590   2.540  19.733  0.00  0.00    +0.000 C 
ATOM     21  N   UNL     1       2.070   1.531  18.787  0.00  0.00    +0.000 NA
ATOM     22  C   UNL     1       2.559   2.078  17.521  0.00  0.00    +0.000 C 
ATOM     23  H   UNL     1       1.327   0.865  18.587  0.00  0.00    +0.000 HD
ENDBRANCH   9  13
TORSDOF 1
ENDMDL
MODEL 9
REMARK VINA RESULT:      -7.6      1.639      2.302
REMARK  Name = 
REMARK  1 active torsions:
REMARK  status: ('A' for Active; 'I' for Inactive)
REMARK    1  A    between atoms: C_9  and  C_10
REMARK                            x       y       z     vdW  Elec       q    Type
REMARK                         _______ _______ _______ _____ _____    ______ ____
ROOT
ATOM      1  O   UNL     1       0.705  10.012  22.664  0.00  0.00    +0.000 OA
ATOM      2  C   UNL     1       0.711  10.456  21.522  0.00  0.00    +0.000 A 
ATOM      3  N   UNL     1       0.361  11.758  21.244  0.00  0.00    +0.000 N 
ATOM      4  C   UNL     1       0.381  12.315  19.991  0.00  0.00    +0.000 A 
ATOM      5  C   UNL     1       0.769  11.610  18.921  0.00  0.00    +0.000 A 
ATOM      6  C   UNL     1       1.176  10.213  19.092  0.00  0.00    +0.000 A 
ATOM      7  C   UNL     1       1.627   9.447  18.019  0.00  0.00    +0.000 A 
ATOM      8  C   UNL     1       2.042   8.122  18.226  0.00  0.00    +0.000 A 
ATOM      9  C   UNL     1       1.980   7.507  19.494  0.00  0.00    +0.000 A 
ATOM     10  C   UNL     1       1.468   8.281  20.547  0.00  0.00    +0.000 A 
ATOM     11  C   UNL     1       1.118   9.625  20.360  0.00  0.00    +0.000 A 
ATOM     12  H   UNL     1       0.087  12.317  22.044  0.00  0.00    +0.000 HD
ENDROOT
BRANCH   9  13
ATOM     13  C   UNL     1       2.427   6.099  19.696  0.00  0.00    +0.000 A 
ATOM     14  C   UNL     1       1.732   5.285  20.619  0.00  0.00    +0.000 A 
ATOM     15  C   UNL     1       2.095   3.958  20.868  0.00  0.00    +0.000 A 
ATOM     16  C   UNL     1       3.189   3.404  20.220  0.00  0.00    +0.000 A 
ATOM     17  C   UNL     1       3.906   4.167  19.298  0.00  0.00    +0.000 A 
ATOM     18  C   UNL     1       3.516   5.501  19.014  0.00  0.00    +0.000 A 
ATOM     19  C   UNL     1       4.364   6.183  17.959  0.00  0.00    +0.000 C 
ATOM     20  C   UNL     1       4.710   5.205  16.831  0.00  0.00    +0.000 C 
ATOM     21  N   UNL     1       5.309   3.932  17.237  0.00  0.00    +0.000 NA
ATOM     22  C   UNL     1       5.167   3.627  18.661  0.00  0.00    +0.000 C 
ATOM     23  H   UNL     1       6.299   3.926  17.001  0.00  0.00    +0.000 HD
ENDBRANCH   9  13
TORSDOF 1
ENDMDL
