MODEL 1
REMARK VINA RESULT:      -8.1      0.000      0.000
REMARK  Name = 
REMARK  6 active torsions:
REMARK  status: ('A' for Active; 'I' for Inactive)
REMARK    1  A    between atoms: C_2  and  O_3
REMARK    2  A    between atoms: C_2  and  C_4
REMARK    3  A    between atoms: N_6  and  C_7
REMARK    4  A    between atoms: C_7  and  C_8
REMARK    5  A    between atoms: C_8  and  O_9
REMARK    6  A    between atoms: O_9  and  C_10
REMARK                            x       y       z     vdW  Elec       q    Type
REMARK                         _______ _______ _______ _____ _____    ______ ____
ROOT
ATOM      1  C   UNL     1       6.420   5.241  18.506  0.00  0.00    +0.000 A 
ATOM      2  N   UNL     1       5.461   5.067  19.373  0.00  0.00    +0.000 NA
ATOM      3  N   UNL     1       4.288   4.475  18.955  0.00  0.00    +0.000 N 
ATOM      4  C   UNL     1       4.042   4.077  17.642  0.00  0.00    +0.000 A 
ATOM      5  O   UNL     1       2.999   3.546  17.272  0.00  0.00    +0.000 OA
ATOM      6  C   UNL     1       5.115   4.322  16.664  0.00  0.00    +0.000 A 
ATOM      7  C   UNL     1       4.903   4.011  15.313  0.00  0.00    +0.000 A 
ATOM      8  C   UNL     1       5.898   4.269  14.375  0.00  0.00    +0.000 A 
ATOM      9  C   UNL     1       7.112   4.813  14.788  0.00  0.00    +0.000 A 
ATOM     10  C   UNL     1       7.327   5.115  16.138  0.00  0.00    +0.000 A 
ATOM     11  C   UNL     1       6.319   4.880  17.081  0.00  0.00    +0.000 A 
ENDROOT
BRANCH   1  13
ATOM     12  O   UNL     1       8.109   6.983  18.638  0.00  0.00    +0.000 OA
ATOM     13  C   UNL     1       7.673   5.933  19.055  0.00  0.00    +0.000 C 
BRANCH  13  14
ATOM     14  O   UNL     1       8.207   5.215  20.060  0.00  0.00    +0.000 OA
ATOM     15  H   UNL     1       8.115   5.711  20.903  0.00  0.00    +0.000 HD
ENDBRANCH  13  14
ENDBRANCH   1  13
BRANCH   3  16
ATOM     16  C   UNL     1       3.236   4.291  19.964  0.00  0.00    +0.000 C 
BRANCH  16  17
ATOM     17  C   UNL     1       2.169   5.389  19.906  0.00  0.00    +0.000 C 
BRANCH  17  18
ATOM     18  O   UNL     1       2.770   6.680  20.076  0.00  0.00    +0.000 OA
BRANCH  18  19
ATOM     19  C   UNL     1       1.889   7.736  20.048  0.00  0.00    +0.000 A 
ATOM     20  C   UNL     1       1.082   8.081  21.142  0.00  0.00    +0.000 A 
ATOM     21  C   UNL     1       0.214   9.173  21.071  0.00  0.00    +0.000 A 
ATOM     22  C   UNL     1       0.154   9.937  19.913  0.00  0.00    +0.000 A 
ATOM     23 CL   UNL     1      -0.921  11.277  19.834  0.00  0.00    +0.000 Cl
ATOM     24  C   UNL     1       0.964   9.624  18.820  0.00  0.00    +0.000 A 
ATOM     25  C   UNL     1       1.830   8.530  18.893  0.00  0.00    +0.000 A 
ATOM     26 CL   UNL     1       2.804   8.179  17.507  0.00  0.00    +0.000 Cl
ENDBRANCH  18  19
ENDBRANCH  17  18
ENDBRANCH  16  17
ENDBRANCH   3  16
TORSDOF 6
ENDMDL
MODEL 2
REMARK VINA RESULT:      -7.6      1.145      1.625
REMARK  Name = 
REMARK  6 active torsions:
REMARK  status: ('A' for Active; 'I' for Inactive)
REMARK    1  A    between atoms: C_2  and  O_3
REMARK    2  A    between atoms: C_2  and  C_4
REMARK    3  A    between atoms: N_6  and  C_7
REMARK    4  A    between atoms: C_7  and  C_8
REMARK    5  A    between atoms: C_8  and  O_9
REMARK    6  A    between atoms: O_9  and  C_10
REMARK                            x       y       z     vdW  Elec       q    Type
REMARK                         _______ _______ _______ _____ _____    ______ ____
ROOT
ATOM      1  C   UNL     1       6.436   5.445  18.509  0.00  0.00    +0.000 A 
ATOM      2  N   UNL     1       5.454   5.387  19.367  0.00  0.00    +0.000 NA
ATOM      3  N   UNL     1       4.246   4.865  18.957  0.00  0.00    +0.000 N 
ATOM      4  C   UNL     1       3.988   4.421  17.662  0.00  0.00    +0.000 A 
ATOM      5  O   UNL     1       2.913   3.951  17.300  0.00  0.00    +0.000 OA
ATOM      6  C   UNL     1       5.089   4.534  16.691  0.00  0.00    +0.000 A 
ATOM      7  C   UNL     1       4.872   4.173  15.354  0.00  0.00    +0.000 A 
ATOM      8  C   UNL     1       5.897   4.308  14.421  0.00  0.00    +0.000 A 
ATOM      9  C   UNL     1       7.143   4.779  14.829  0.00  0.00    +0.000 A 
ATOM     10  C   UNL     1       7.362   5.132  16.165  0.00  0.00    +0.000 A 
ATOM     11  C   UNL     1       6.327   5.020  17.102  0.00  0.00    +0.000 A 
ENDROOT
BRANCH   1  13
ATOM     12  O   UNL     1       8.194   7.115  18.654  0.00  0.00    +0.000 OA
ATOM     13  C   UNL     1       7.730   6.067  19.044  0.00  0.00    +0.000 C 
BRANCH  13  14
ATOM     14  O   UNL     1       8.265   5.290  20.005  0.00  0.00    +0.000 OA
ATOM     15  H   UNL     1       8.905   4.664  19.602  0.00  0.00    +0.000 HD
ENDBRANCH  13  14
ENDBRANCH   1  13
BRANCH   3  16
ATOM     16  C   UNL     1       3.169   4.811  19.955  0.00  0.00    +0.000 C 
BRANCH  16  17
ATOM     17  C   UNL     1       1.987   5.716  19.593  0.00  0.00    +0.000 C 
BRANCH  17  18
ATOM     18  O   UNL     1       1.871   6.788  20.539  0.00  0.00    +0.000 OA
BRANCH  18  19
ATOM     19  C   UNL     1       1.683   8.031  19.981  0.00  0.00    +0.000 A 
ATOM     20  C   UNL     1       2.020   8.328  18.653  0.00  0.00    +0.000 A 
ATOM     21  C   UNL     1       1.794   9.602  18.127  0.00  0.00    +0.000 A 
ATOM     22  C   UNL     1       1.218  10.587  18.919  0.00  0.00    +0.000 A 
ATOM     23 CL   UNL     1       0.948  12.153  18.263  0.00  0.00    +0.000 Cl
ATOM     24  C   UNL     1       0.856  10.307  20.237  0.00  0.00    +0.000 A 
ATOM     25  C   UNL     1       1.083   9.032  20.761  0.00  0.00    +0.000 A 
ATOM     26 CL   UNL     1       0.625   8.742  22.403  0.00  0.00    +0.000 Cl
ENDBRANCH  18  19
ENDBRANCH  17  18
ENDBRANCH  16  17
ENDBRANCH   3  16
TORSDOF 6
ENDMDL
MODEL 3
REMARK VINA RESULT:      -7.6      4.240      6.917
REMARK  Name = 
REMARK  6 active torsions:
REMARK  status: ('A' for Active; 'I' for Inactive)
REMARK    1  A    between atoms: C_2  and  O_3
REMARK    2  A    between atoms: C_2  and  C_4
REMARK    3  A    between atoms: N_6  and  C_7
REMARK    4  A    between atoms: C_7  and  C_8
REMARK    5  A    between atoms: C_8  and  O_9
REMARK    6  A    between atoms: O_9  and  C_10
REMARK                            x       y       z     vdW  Elec       q    Type
REMARK                         _______ _______ _______ _____ _____    ______ ____
ROOT
ATOM      1  C   UNL     1       4.518   3.045  19.675  0.00  0.00    +0.000 A 
ATOM      2  N   UNL     1       5.601   3.712  19.384  0.00  0.00    +0.000 NA
ATOM      3  N   UNL     1       5.511   4.780  18.518  0.00  0.00    +0.000 N 
ATOM      4  C   UNL     1       4.329   5.179  17.895  0.00  0.00    +0.000 A 
ATOM      5  O   UNL     1       4.249   6.134  17.127  0.00  0.00    +0.000 OA
ATOM      6  C   UNL     1       3.123   4.390  18.194  0.00  0.00    +0.000 A 
ATOM      7  C   UNL     1       1.919   4.694  17.544  0.00  0.00    +0.000 A 
ATOM      8  C   UNL     1       0.780   3.933  17.796  0.00  0.00    +0.000 A 
ATOM      9  C   UNL     1       0.839   2.886  18.713  0.00  0.00    +0.000 A 
ATOM     10  C   UNL     1       2.039   2.588  19.368  0.00  0.00    +0.000 A 
ATOM     11  C   UNL     1       3.192   3.335  19.100  0.00  0.00    +0.000 A 
ENDROOT
BRANCH   1  13
ATOM     12  O   UNL     1       4.237   1.779  21.729  0.00  0.00    +0.000 OA
ATOM     13  C   UNL     1       4.721   1.857  20.622  0.00  0.00    +0.000 C 
BRANCH  13  14
ATOM     14  O   UNL     1       5.500   0.922  20.046  0.00  0.00    +0.000 OA
ATOM     15  H   UNL     1       5.543   0.129  20.625  0.00  0.00    +0.000 HD
ENDBRANCH  13  14
ENDBRANCH   1  13
BRANCH   3  16
ATOM     16  C   UNL     1       6.752   5.508  18.222  0.00  0.00    +0.000 C 
BRANCH  16  17
ATOM     17  C   UNL     1       7.538   4.884  17.065  0.00  0.00    +0.000 C 
BRANCH  17  18
ATOM     18  O   UNL     1       7.324   5.627  15.857  0.00  0.00    +0.000 OA
BRANCH  18  19
ATOM     19  C   UNL     1       6.811   4.895  14.812  0.00  0.00    +0.000 A 
ATOM     20  C   UNL     1       5.646   4.123  14.924  0.00  0.00    +0.000 A 
ATOM     21  C   UNL     1       5.154   3.409  13.829  0.00  0.00    +0.000 A 
ATOM     22  C   UNL     1       5.814   3.471  12.609  0.00  0.00    +0.000 A 
ATOM     23 CL   UNL     1       5.204   2.585  11.267  0.00  0.00    +0.000 Cl
ATOM     24  C   UNL     1       6.964   4.250  12.469  0.00  0.00    +0.000 A 
ATOM     25  C   UNL     1       7.454   4.962  13.567  0.00  0.00    +0.000 A 
ATOM     26 CL   UNL     1       8.888   5.903  13.343  0.00  0.00    +0.000 Cl
ENDBRANCH  18  19
ENDBRANCH  17  18
ENDBRANCH  16  17
ENDBRANCH   3  16
TORSDOF 6
ENDMDL
MODEL 4
REMARK VINA RESULT:      -7.4      2.864      4.436
REMARK  Name = 
REMARK  6 active torsions:
REMARK  status: ('A' for Active; 'I' for Inactive)
REMARK    1  A    between atoms: C_2  and  O_3
REMARK    2  A    between atoms: C_2  and  C_4
REMARK    3  A    between atoms: N_6  and  C_7
REMARK    4  A    between atoms: C_7  and  C_8
REMARK    5  A    between atoms: C_8  and  O_9
REMARK    6  A    between atoms: O_9  and  C_10
REMARK                            x       y       z     vdW  Elec       q    Type
REMARK                         _______ _______ _______ _____ _____    ______ ____
ROOT
ATOM      1  C   UNL     1       2.105   4.824  20.194  0.00  0.00    +0.000 A 
ATOM      2  N   UNL     1       1.788   6.030  20.579  0.00  0.00    +0.000 NA
ATOM      3  N   UNL     1       2.168   7.098  19.795  0.00  0.00    +0.000 N 
ATOM      4  C   UNL     1       2.909   6.977  18.621  0.00  0.00    +0.000 A 
ATOM      5  O   UNL     1       3.242   7.929  17.921  0.00  0.00    +0.000 OA
ATOM      6  C   UNL     1       3.301   5.615  18.222  0.00  0.00    +0.000 A 
ATOM      7  C   UNL     1       4.109   5.432  17.091  0.00  0.00    +0.000 A 
ATOM      8  C   UNL     1       4.513   4.151  16.724  0.00  0.00    +0.000 A 
ATOM      9  C   UNL     1       4.090   3.054  17.471  0.00  0.00    +0.000 A 
ATOM     10  C   UNL     1       3.277   3.236  18.595  0.00  0.00    +0.000 A 
ATOM     11  C   UNL     1       2.888   4.525  18.982  0.00  0.00    +0.000 A 
ENDROOT
BRANCH   1  13
ATOM     12  O   UNL     1       2.262   3.393  22.151  0.00  0.00    +0.000 OA
ATOM     13  C   UNL     1       1.667   3.703  21.143  0.00  0.00    +0.000 C 
BRANCH  13  14
ATOM     14  O   UNL     1       0.534   3.125  20.700  0.00  0.00    +0.000 OA
ATOM     15  H   UNL     1      -0.086   3.000  21.452  0.00  0.00    +0.000 HD
ENDBRANCH  13  14
ENDBRANCH   1  13
BRANCH   3  16
ATOM     16  C   UNL     1       1.784   8.437  20.260  0.00  0.00    +0.000 C 
BRANCH  16  17
ATOM     17  C   UNL     1       0.871   8.393  21.489  0.00  0.00    +0.000 C 
BRANCH  17  18
ATOM     18  O   UNL     1      -0.446   8.848  21.150  0.00  0.00    +0.000 OA
BRANCH  18  19
ATOM     19  C   UNL     1      -0.639  10.204  21.277  0.00  0.00    +0.000 A 
ATOM     20  C   UNL     1      -0.611  10.863  22.514  0.00  0.00    +0.000 A 
ATOM     21  C   UNL     1      -0.796  12.245  22.590  0.00  0.00    +0.000 A 
ATOM     22  C   UNL     1      -0.998  12.983  21.431  0.00  0.00    +0.000 A 
ATOM     23 CL   UNL     1      -1.230  14.684  21.535  0.00  0.00    +0.000 Cl
ATOM     24  C   UNL     1      -1.010  12.350  20.187  0.00  0.00    +0.000 A 
ATOM     25  C   UNL     1      -0.825  10.967  20.114  0.00  0.00    +0.000 A 
ATOM     26 CL   UNL     1      -0.858  10.231  18.549  0.00  0.00    +0.000 Cl
ENDBRANCH  18  19
ENDBRANCH  17  18
ENDBRANCH  16  17
ENDBRANCH   3  16
TORSDOF 6
ENDMDL
MODEL 5
REMARK VINA RESULT:      -7.4      3.035      4.775
REMARK  Name = 
REMARK  6 active torsions:
REMARK  status: ('A' for Active; 'I' for Inactive)
REMARK    1  A    between atoms: C_2  and  O_3
REMARK    2  A    between atoms: C_2  and  C_4
REMARK    3  A    between atoms: N_6  and  C_7
REMARK    4  A    between atoms: C_7  and  C_8
REMARK    5  A    between atoms: C_8  and  O_9
REMARK    6  A    between atoms: O_9  and  C_10
REMARK                            x       y       z     vdW  Elec       q    Type
REMARK                         _______ _______ _______ _____ _____    ______ ____
ROOT
ATOM      1  C   UNL     1       2.116   4.664  20.316  0.00  0.00    +0.000 A 
ATOM      2  N   UNL     1       1.743   5.854  20.699  0.00  0.00    +0.000 NA
ATOM      3  N   UNL     1       2.086   6.939  19.921  0.00  0.00    +0.000 N 
ATOM      4  C   UNL     1       2.844   6.852  18.755  0.00  0.00    +0.000 A 
ATOM      5  O   UNL     1       3.143   7.819  18.060  0.00  0.00    +0.000 OA
ATOM      6  C   UNL     1       3.298   5.509  18.358  0.00  0.00    +0.000 A 
ATOM      7  C   UNL     1       4.125   5.363  17.235  0.00  0.00    +0.000 A 
ATOM      8  C   UNL     1       4.587   4.101  16.871  0.00  0.00    +0.000 A 
ATOM      9  C   UNL     1       4.204   2.986  17.612  0.00  0.00    +0.000 A 
ATOM     10  C   UNL     1       3.371   3.131  18.728  0.00  0.00    +0.000 A 
ATOM     11  C   UNL     1       2.924   4.401  19.112  0.00  0.00    +0.000 A 
ENDROOT
BRANCH   1  13
ATOM     12  O   UNL     1       2.339   3.207  22.248  0.00  0.00    +0.000 OA
ATOM     13  C   UNL     1       1.717   3.523  21.259  0.00  0.00    +0.000 C 
BRANCH  13  14
ATOM     14  O   UNL     1       0.581   2.936  20.835  0.00  0.00    +0.000 OA
ATOM     15  H   UNL     1      -0.165   3.570  20.913  0.00  0.00    +0.000 HD
ENDBRANCH  13  14
ENDBRANCH   1  13
BRANCH   3  16
ATOM     16  C   UNL     1       1.641   8.260  20.384  0.00  0.00    +0.000 C 
BRANCH  16  17
ATOM     17  C   UNL     1       1.219   9.175  19.230  0.00  0.00    +0.000 C 
BRANCH  17  18
ATOM     18  O   UNL     1       0.425  10.264  19.721  0.00  0.00    +0.000 OA
BRANCH  18  19
ATOM     19  C   UNL     1      -0.693  10.548  18.972  0.00  0.00    +0.000 A 
ATOM     20  C   UNL     1      -0.965   9.924  17.746  0.00  0.00    +0.000 A 
ATOM     21  C   UNL     1      -2.123  10.233  17.029  0.00  0.00    +0.000 A 
ATOM     22  C   UNL     1      -3.026  11.158  17.536  0.00  0.00    +0.000 A 
ATOM     23 CL   UNL     1      -4.446  11.536  16.644  0.00  0.00    +0.000 Cl
ATOM     24  C   UNL     1      -2.785  11.776  18.764  0.00  0.00    +0.000 A 
ATOM     25  C   UNL     1      -1.626  11.466  19.478  0.00  0.00    +0.000 A 
ATOM     26 CL   UNL     1      -1.371  12.267  20.990  0.00  0.00    +0.000 Cl
ENDBRANCH  18  19
ENDBRANCH  17  18
ENDBRANCH  16  17
ENDBRANCH   3  16
TORSDOF 6
ENDMDL
MODEL 6
REMARK VINA RESULT:      -7.4      3.871      7.197
REMARK  Name = 
REMARK  6 active torsions:
REMARK  status: ('A' for Active; 'I' for Inactive)
REMARK    1  A    between atoms: C_2  and  O_3
REMARK    2  A    between atoms: C_2  and  C_4
REMARK    3  A    between atoms: N_6  and  C_7
REMARK    4  A    between atoms: C_7  and  C_8
REMARK    5  A    between atoms: C_8  and  O_9
REMARK    6  A    between atoms: O_9  and  C_10
REMARK                            x       y       z     vdW  Elec       q    Type
REMARK                         _______ _______ _______ _____ _____    ______ ____
ROOT
ATOM      1  C   UNL     1       4.614   3.206  19.417  0.00  0.00    +0.000 A 
ATOM      2  N   UNL     1       5.593   3.824  18.813  0.00  0.00    +0.000 NA
ATOM      3  N   UNL     1       5.454   5.164  18.525  0.00  0.00    +0.000 N 
ATOM      4  C   UNL     1       4.309   5.907  18.808  0.00  0.00    +0.000 A 
ATOM      5  O   UNL     1       4.188   7.102  18.555  0.00  0.00    +0.000 OA
ATOM      6  C   UNL     1       3.194   5.188  19.447  0.00  0.00    +0.000 A 
ATOM      7  C   UNL     1       1.988   5.859  19.691  0.00  0.00    +0.000 A 
ATOM      8  C   UNL     1       0.917   5.180  20.264  0.00  0.00    +0.000 A 
ATOM      9  C   UNL     1       1.058   3.840  20.616  0.00  0.00    +0.000 A 
ATOM     10  C   UNL     1       2.265   3.172  20.380  0.00  0.00    +0.000 A 
ATOM     11  C   UNL     1       3.337   3.845  19.781  0.00  0.00    +0.000 A 
ENDROOT
BRANCH   1  13
ATOM     12  O   UNL     1       5.370   1.263  20.664  0.00  0.00    +0.000 OA
ATOM     13  C   UNL     1       4.847   1.713  19.669  0.00  0.00    +0.000 C 
BRANCH  13  14
ATOM     14  O   UNL     1       4.382   0.982  18.638  0.00  0.00    +0.000 OA
ATOM     15  H   UNL     1       3.547   0.537  18.901  0.00  0.00    +0.000 HD
ENDBRANCH  13  14
ENDBRANCH   1  13
BRANCH   3  16
ATOM     16  C   UNL     1       6.581   5.823  17.851  0.00  0.00    +0.000 C 
BRANCH  16  17
ATOM     17  C   UNL     1       6.231   6.276  16.430  0.00  0.00    +0.000 C 
BRANCH  17  18
ATOM     18  O   UNL     1       7.231   5.829  15.503  0.00  0.00    +0.000 OA
BRANCH  18  19
ATOM     19  C   UNL     1       6.769   4.984  14.520  0.00  0.00    +0.000 A 
ATOM     20  C   UNL     1       5.614   4.205  14.669  0.00  0.00    +0.000 A 
ATOM     21  C   UNL     1       5.176   3.374  13.635  0.00  0.00    +0.000 A 
ATOM     22  C   UNL     1       5.881   3.325  12.439  0.00  0.00    +0.000 A 
ATOM     23 CL   UNL     1       5.336   2.296  11.174  0.00  0.00    +0.000 Cl
ATOM     24  C   UNL     1       7.022   4.108  12.262  0.00  0.00    +0.000 A 
ATOM     25  C   UNL     1       7.458   4.938  13.299  0.00  0.00    +0.000 A 
ATOM     26 CL   UNL     1       8.884   5.880  13.032  0.00  0.00    +0.000 Cl
ENDBRANCH  18  19
ENDBRANCH  17  18
ENDBRANCH  16  17
ENDBRANCH   3  16
TORSDOF 6
ENDMDL
MODEL 7
REMARK VINA RESULT:      -7.3      1.328      1.695
REMARK  Name = 
REMARK  6 active torsions:
REMARK  status: ('A' for Active; 'I' for Inactive)
REMARK    1  A    between atoms: C_2  and  O_3
REMARK    2  A    between atoms: C_2  and  C_4
REMARK    3  A    between atoms: N_6  and  C_7
REMARK    4  A    between atoms: C_7  and  C_8
REMARK    5  A    between atoms: C_8  and  O_9
REMARK    6  A    between atoms: O_9  and  C_10
REMARK                            x       y       z     vdW  Elec       q    Type
REMARK                         _______ _______ _______ _____ _____    ______ ____
ROOT
ATOM      1  C   UNL     1       6.486   6.077  17.734  0.00  0.00    +0.000 A 
ATOM      2  N   UNL     1       5.605   6.008  18.695  0.00  0.00    +0.000 NA
ATOM      3  N   UNL     1       4.533   5.154  18.552  0.00  0.00    +0.000 N 
ATOM      4  C   UNL     1       4.305   4.374  17.420  0.00  0.00    +0.000 A 
ATOM      5  O   UNL     1       3.352   3.609  17.297  0.00  0.00    +0.000 OA
ATOM      6  C   UNL     1       5.280   4.495  16.324  0.00  0.00    +0.000 A 
ATOM      7  C   UNL     1       5.069   3.792  15.130  0.00  0.00    +0.000 A 
ATOM      8  C   UNL     1       5.968   3.925  14.075  0.00  0.00    +0.000 A 
ATOM      9  C   UNL     1       7.089   4.739  14.223  0.00  0.00    +0.000 A 
ATOM     10  C   UNL     1       7.305   5.434  15.418  0.00  0.00    +0.000 A 
ATOM     11  C   UNL     1       6.390   5.321  16.473  0.00  0.00    +0.000 A 
ENDROOT
BRANCH   1  13
ATOM     12  O   UNL     1       7.837   8.042  17.273  0.00  0.00    +0.000 OA
ATOM     13  C   UNL     1       7.626   7.074  17.969  0.00  0.00    +0.000 C 
BRANCH  13  14
ATOM     14  O   UNL     1       8.344   6.724  19.053  0.00  0.00    +0.000 OA
ATOM     15  H   UNL     1       8.404   7.489  19.667  0.00  0.00    +0.000 HD
ENDBRANCH  13  14
ENDBRANCH   1  13
BRANCH   3  16
ATOM     16  C   UNL     1       3.568   5.102  19.659  0.00  0.00    +0.000 C 
BRANCH  16  17
ATOM     17  C   UNL     1       2.384   6.050  19.451  0.00  0.00    +0.000 C 
BRANCH  17  18
ATOM     18  O   UNL     1       2.797   7.412  19.629  0.00  0.00    +0.000 OA
BRANCH  18  19
ATOM     19  C   UNL     1       1.849   8.352  19.296  0.00  0.00    +0.000 A 
ATOM     20  C   UNL     1       1.600   8.744  17.973  0.00  0.00    +0.000 A 
ATOM     21  C   UNL     1       0.615   9.690  17.682  0.00  0.00    +0.000 A 
ATOM     22  C   UNL     1      -0.139  10.243  18.709  0.00  0.00    +0.000 A 
ATOM     23 CL   UNL     1      -1.347  11.410  18.342  0.00  0.00    +0.000 Cl
ATOM     24  C   UNL     1       0.078   9.852  20.031  0.00  0.00    +0.000 A 
ATOM     25  C   UNL     1       1.065   8.906  20.319  0.00  0.00    +0.000 A 
ATOM     26 CL   UNL     1       1.301   8.464  21.974  0.00  0.00    +0.000 Cl
ENDBRANCH  18  19
ENDBRANCH  17  18
ENDBRANCH  16  17
ENDBRANCH   3  16
TORSDOF 6
ENDMDL
MODEL 8
REMARK VINA RESULT:      -7.3      3.111      4.551
REMARK  Name = 
REMARK  6 active torsions:
REMARK  status: ('A' for Active; 'I' for Inactive)
REMARK    1  A    between atoms: C_2  and  O_3
REMARK    2  A    between atoms: C_2  and  C_4
REMARK    3  A    between atoms: N_6  and  C_7
REMARK    4  A    between atoms: C_7  and  C_8
REMARK    5  A    between atoms: C_8  and  O_9
REMARK    6  A    between atoms: O_9  and  C_10
REMARK                            x       y       z     vdW  Elec       q    Type
REMARK                         _______ _______ _______ _____ _____    ______ ____
ROOT
ATOM      1  C   UNL     1       2.118   4.705  20.212  0.00  0.00    +0.000 A 
ATOM      2  N   UNL     1       1.803   5.920  20.572  0.00  0.00    +0.000 NA
ATOM      3  N   UNL     1       2.188   6.971  19.769  0.00  0.00    +0.000 N 
ATOM      4  C   UNL     1       2.932   6.825  18.599  0.00  0.00    +0.000 A 
ATOM      5  O   UNL     1       3.270   7.762  17.881  0.00  0.00    +0.000 OA
ATOM      6  C   UNL     1       3.321   5.454  18.228  0.00  0.00    +0.000 A 
ATOM      7  C   UNL     1       4.131   5.246  17.102  0.00  0.00    +0.000 A 
ATOM      8  C   UNL     1       4.531   3.957  16.762  0.00  0.00    +0.000 A 
ATOM      9  C   UNL     1       4.103   2.876  17.529  0.00  0.00    +0.000 A 
ATOM     10  C   UNL     1       3.288   3.083  18.648  0.00  0.00    +0.000 A 
ATOM     11  C   UNL     1       2.902   4.380  19.008  0.00  0.00    +0.000 A 
ENDROOT
BRANCH   1  13
ATOM     12  O   UNL     1       2.270   3.307  22.192  0.00  0.00    +0.000 OA
ATOM     13  C   UNL     1       1.674   3.605  21.182  0.00  0.00    +0.000 C 
BRANCH  13  14
ATOM     14  O   UNL     1       0.534   3.030  20.754  0.00  0.00    +0.000 OA
ATOM     15  H   UNL     1       0.503   3.052  19.772  0.00  0.00    +0.000 HD
ENDBRANCH  13  14
ENDBRANCH   1  13
BRANCH   3  16
ATOM     16  C   UNL     1       1.808   8.321  20.207  0.00  0.00    +0.000 C 
BRANCH  16  17
ATOM     17  C   UNL     1       0.869   8.303  21.416  0.00  0.00    +0.000 C 
BRANCH  17  18
ATOM     18  O   UNL     1      -0.427   8.797  21.049  0.00  0.00    +0.000 OA
BRANCH  18  19
ATOM     19  C   UNL     1      -0.441  10.092  20.585  0.00  0.00    +0.000 A 
ATOM     20  C   UNL     1      -0.255  10.417  19.234  0.00  0.00    +0.000 A 
ATOM     21  C   UNL     1      -0.295  11.746  18.808  0.00  0.00    +0.000 A 
ATOM     22  C   UNL     1      -0.534  12.761  19.725  0.00  0.00    +0.000 A 
ATOM     23 CL   UNL     1      -0.577  14.395  19.192  0.00  0.00    +0.000 Cl
ATOM     24  C   UNL     1      -0.743  12.459  21.071  0.00  0.00    +0.000 A 
ATOM     25  C   UNL     1      -0.702  11.128  21.495  0.00  0.00    +0.000 A 
ATOM     26 CL   UNL     1      -0.957  10.808  23.175  0.00  0.00    +0.000 Cl
ENDBRANCH  18  19
ENDBRANCH  17  18
ENDBRANCH  16  17
ENDBRANCH   3  16
TORSDOF 6
ENDMDL
MODEL 9
REMARK VINA RESULT:      -7.2      1.015      1.277
REMARK  Name = 
REMARK  6 active torsions:
REMARK  status: ('A' for Active; 'I' for Inactive)
REMARK    1  A    between atoms: C_2  and  O_3
REMARK    2  A    between atoms: C_2  and  C_4
REMARK    3  A    between atoms: N_6  and  C_7
REMARK    4  A    between atoms: C_7  and  C_8
REMARK    5  A    between atoms: C_8  and  O_9
REMARK    6  A    between atoms: O_9  and  C_10
REMARK                            x       y       z     vdW  Elec       q    Type
REMARK                         _______ _______ _______ _____ _____    ______ ____
ROOT
ATOM      1  C   UNL     1       6.263   5.804  17.641  0.00  0.00    +0.000 A 
ATOM      2  N   UNL     1       5.300   5.694  18.515  0.00  0.00    +0.000 NA
ATOM      3  N   UNL     1       4.224   4.886  18.219  0.00  0.00    +0.000 N 
ATOM      4  C   UNL     1       4.076   4.196  17.018  0.00  0.00    +0.000 A 
ATOM      5  O   UNL     1       3.119   3.472  16.758  0.00  0.00    +0.000 OA
ATOM      6  C   UNL     1       5.146   4.365  16.020  0.00  0.00    +0.000 A 
ATOM      7  C   UNL     1       5.022   3.756  14.763  0.00  0.00    +0.000 A 
ATOM      8  C   UNL     1       6.012   3.936  13.802  0.00  0.00    +0.000 A 
ATOM      9  C   UNL     1       7.135   4.703  14.104  0.00  0.00    +0.000 A 
ATOM     10  C   UNL     1       7.263   5.304  15.361  0.00  0.00    +0.000 A 
ATOM     11  C   UNL     1       6.258   5.144  16.323  0.00  0.00    +0.000 A 
ENDROOT
BRANCH   1  13
ATOM     12  O   UNL     1       8.180   6.528  18.945  0.00  0.00    +0.000 OA
ATOM     13  C   UNL     1       7.402   6.747  18.043  0.00  0.00    +0.000 C 
BRANCH  13  14
ATOM     14  O   UNL     1       7.414   7.837  17.254  0.00  0.00    +0.000 OA
ATOM     15  H   UNL     1       7.255   8.639  17.799  0.00  0.00    +0.000 HD
ENDBRANCH  13  14
ENDBRANCH   1  13
BRANCH   3  16
ATOM     16  C   UNL     1       3.166   4.784  19.233  0.00  0.00    +0.000 C 
BRANCH  16  17
ATOM     17  C   UNL     1       2.987   6.082  20.028  0.00  0.00    +0.000 C 
BRANCH  17  18
ATOM     18  O   UNL     1       2.368   7.086  19.212  0.00  0.00    +0.000 OA
BRANCH  18  19
ATOM     19  C   UNL     1       1.667   8.043  19.907  0.00  0.00    +0.000 A 
ATOM     20  C   UNL     1       1.269   7.875  21.241  0.00  0.00    +0.000 A 
ATOM     21  C   UNL     1       0.573   8.884  21.910  0.00  0.00    +0.000 A 
ATOM     22  C   UNL     1       0.279  10.074  21.258  0.00  0.00    +0.000 A 
ATOM     23 CL   UNL     1      -0.582  11.309  22.089  0.00  0.00    +0.000 Cl
ATOM     24  C   UNL     1       0.684  10.271  19.937  0.00  0.00    +0.000 A 
ATOM     25  C   UNL     1       1.380   9.260  19.270  0.00  0.00    +0.000 A 
ATOM     26 CL   UNL     1       1.850   9.551  17.630  0.00  0.00    +0.000 Cl
ENDBRANCH  18  19
ENDBRANCH  17  18
ENDBRANCH  16  17
ENDBRANCH   3  16
TORSDOF 6
ENDMDL
