MODEL 1
REMARK VINA RESULT:      -9.8      0.000      0.000
REMARK  Name = 
REMARK  6 active torsions:
REMARK  status: ('A' for Active; 'I' for Inactive)
REMARK    1  A    between atoms: C_1  and  C_2
REMARK    2  A    between atoms: N_4  and  C_5
REMARK    3  A    between atoms: C_5  and  C_6
REMARK    4  A    between atoms: N_16  and  C_17
REMARK    5  A    between atoms: C_17  and  C_18
REMARK    6  A    between atoms: C_18  and  C_19
REMARK                            x       y       z     vdW  Elec       q    Type
REMARK                         _______ _______ _______ _____ _____    ______ ____
ROOT
ATOM      1  C   UNL     1       6.793   4.815  14.217  0.00  0.00    +0.000 C 
ATOM      2  O   UNL     1       7.735   5.599  14.083  0.00  0.00    +0.000 OA
ATOM      3  N   UNL     1       5.880   4.927  15.264  0.00  0.00    +0.000 N 
ATOM      4  C   UNL     1       5.895   6.156  16.052  0.00  0.00    +0.000 C 
ATOM      5  C   UNL     1       5.706   5.867  17.534  0.00  0.00    +0.000 C 
ATOM      6  C   UNL     1       4.440   5.022  17.825  0.00  0.00    +0.000 C 
ATOM      7  C   UNL     1       4.581   3.725  17.001  0.00  0.00    +0.000 C 
ATOM      8  C   UNL     1       4.763   4.007  15.508  0.00  0.00    +0.000 C 
ATOM      9  C   UNL     1       3.148   5.778  17.459  0.00  0.00    +0.000 C 
ATOM     10  C   UNL     1       2.870   6.887  18.461  0.00  0.00    +0.000 C 
ATOM     11  N   UNL     1       2.097   6.449  19.626  0.00  0.00    +0.000 N 
ATOM     12  C   UNL     1       2.247   5.124  20.081  0.00  0.00    +0.000 A 
ATOM     13  C   UNL     1       1.170   4.539  20.776  0.00  0.00    +0.000 A 
ATOM     14  C   UNL     1       1.198   3.210  21.213  0.00  0.00    +0.000 A 
ATOM     15  C   UNL     1       2.320   2.426  20.976  0.00  0.00    +0.000 A 
ATOM     16  C   UNL     1       3.408   2.972  20.302  0.00  0.00    +0.000 A 
ATOM     17  C   UNL     1       3.364   4.294  19.833  0.00  0.00    +0.000 A 
ATOM     18  O   UNL     1       4.520   4.733  19.238  0.00  0.00    +0.000 OA
ENDROOT
BRANCH   1  19
ATOM     19  C   UNL     1       6.677   3.618  13.275  0.00  0.00    +0.000 C 
BRANCH  19  23
ATOM     20  C   UNL     1       3.832   3.067  10.845  0.00  0.00    +0.000 C 
ATOM     21  C   UNL     1       5.094   2.754  11.598  0.00  0.00    +0.000 C 
ATOM     22  O   UNL     1       5.682   1.686  11.489  0.00  0.00    +0.000 OA
ATOM     23  N   UNL     1       5.531   3.784  12.400  0.00  0.00    +0.000 N 
ATOM     24  H   UNL     1       4.935   4.583  12.554  0.00  0.00    +0.000 HD
ENDBRANCH  19  23
ENDBRANCH   1  19
BRANCH  11  25
ATOM     25  C   UNL     1       1.924   7.452  20.716  0.00  0.00    +0.000 C 
BRANCH  25  26
ATOM     26  C   UNL     1       1.433   8.816  20.192  0.00  0.00    +0.000 C 
BRANCH  26  27
ATOM     27  C   UNL     1       0.519   9.555  21.136  0.00  0.00    +0.000 A 
ATOM     28  C   UNL     1       0.372   9.124  22.462  0.00  0.00    +0.000 A 
ATOM     29  C   UNL     1      -0.433   9.835  23.352  0.00  0.00    +0.000 A 
ATOM     30  C   UNL     1      -1.103  10.979  22.924  0.00  0.00    +0.000 A 
ATOM     31  C   UNL     1      -0.970  11.411  21.606  0.00  0.00    +0.000 A 
ATOM     32  C   UNL     1      -0.165  10.702  20.713  0.00  0.00    +0.000 A 
ENDBRANCH  26  27
ENDBRANCH  25  26
ENDBRANCH  11  25
TORSDOF 5
ENDMDL
MODEL 2
REMARK VINA RESULT:      -9.3      0.758      1.356
REMARK  Name = 
REMARK  6 active torsions:
REMARK  status: ('A' for Active; 'I' for Inactive)
REMARK    1  A    between atoms: C_1  and  C_2
REMARK    2  A    between atoms: N_4  and  C_5
REMARK    3  A    between atoms: C_5  and  C_6
REMARK    4  A    between atoms: N_16  and  C_17
REMARK    5  A    between atoms: C_17  and  C_18
REMARK    6  A    between atoms: C_18  and  C_19
REMARK                            x       y       z     vdW  Elec       q    Type
REMARK                         _______ _______ _______ _____ _____    ______ ____
ROOT
ATOM      1  C   UNL     1       6.830   4.830  14.296  0.00  0.00    +0.000 C 
ATOM      2  O   UNL     1       7.788   5.597  14.175  0.00  0.00    +0.000 OA
ATOM      3  N   UNL     1       5.927   4.935  15.352  0.00  0.00    +0.000 N 
ATOM      4  C   UNL     1       5.973   6.143  16.171  0.00  0.00    +0.000 C 
ATOM      5  C   UNL     1       5.787   5.820  17.646  0.00  0.00    +0.000 C 
ATOM      6  C   UNL     1       4.506   4.995  17.924  0.00  0.00    +0.000 C 
ATOM      7  C   UNL     1       4.613   3.718  17.067  0.00  0.00    +0.000 C 
ATOM      8  C   UNL     1       4.791   4.034  15.580  0.00  0.00    +0.000 C 
ATOM      9  C   UNL     1       3.228   5.788  17.587  0.00  0.00    +0.000 C 
ATOM     10  C   UNL     1       2.980   6.877  18.618  0.00  0.00    +0.000 C 
ATOM     11  N   UNL     1       2.205   6.426  19.778  0.00  0.00    +0.000 N 
ATOM     12  C   UNL     1       2.331   5.087  20.198  0.00  0.00    +0.000 A 
ATOM     13  C   UNL     1       1.245   4.507  20.885  0.00  0.00    +0.000 A 
ATOM     14  C   UNL     1       1.248   3.167  21.288  0.00  0.00    +0.000 A 
ATOM     15  C   UNL     1       2.351   2.366  21.024  0.00  0.00    +0.000 A 
ATOM     16  C   UNL     1       3.446   2.906  20.356  0.00  0.00    +0.000 A 
ATOM     17  C   UNL     1       3.427   4.240  19.921  0.00  0.00    +0.000 A 
ATOM     18  O   UNL     1       4.589   4.669  19.329  0.00  0.00    +0.000 OA
ENDROOT
BRANCH   1  19
ATOM     19  C   UNL     1       6.682   3.660  13.324  0.00  0.00    +0.000 C 
BRANCH  19  23
ATOM     20  C   UNL     1       3.789   3.203  10.933  0.00  0.00    +0.000 C 
ATOM     21  C   UNL     1       5.067   2.862  11.646  0.00  0.00    +0.000 C 
ATOM     22  O   UNL     1       5.654   1.801  11.481  0.00  0.00    +0.000 OA
ATOM     23  N   UNL     1       5.518   3.859  12.481  0.00  0.00    +0.000 N 
ATOM     24  H   UNL     1       4.924   4.650  12.681  0.00  0.00    +0.000 HD
ENDBRANCH  19  23
ENDBRANCH   1  19
BRANCH  11  25
ATOM     25  C   UNL     1       2.061   7.404  20.894  0.00  0.00    +0.000 C 
BRANCH  25  26
ATOM     26  C   UNL     1       0.677   8.085  20.908  0.00  0.00    +0.000 C 
BRANCH  26  27
ATOM     27  C   UNL     1       0.693   9.536  20.499  0.00  0.00    +0.000 A 
ATOM     28  C   UNL     1       0.966   9.895  19.171  0.00  0.00    +0.000 A 
ATOM     29  C   UNL     1       0.930  11.233  18.778  0.00  0.00    +0.000 A 
ATOM     30  C   UNL     1       0.627  12.225  19.709  0.00  0.00    +0.000 A 
ATOM     31  C   UNL     1       0.361  11.879  21.033  0.00  0.00    +0.000 A 
ATOM     32  C   UNL     1       0.396  10.540  21.428  0.00  0.00    +0.000 A 
ENDBRANCH  26  27
ENDBRANCH  25  26
ENDBRANCH  11  25
TORSDOF 5
ENDMDL
MODEL 3
REMARK VINA RESULT:      -8.5      2.962      9.472
REMARK  Name = 
REMARK  6 active torsions:
REMARK  status: ('A' for Active; 'I' for Inactive)
REMARK    1  A    between atoms: C_1  and  C_2
REMARK    2  A    between atoms: N_4  and  C_5
REMARK    3  A    between atoms: C_5  and  C_6
REMARK    4  A    between atoms: N_16  and  C_17
REMARK    5  A    between atoms: C_17  and  C_18
REMARK    6  A    between atoms: C_18  and  C_19
REMARK                            x       y       z     vdW  Elec       q    Type
REMARK                         _______ _______ _______ _____ _____    ______ ____
ROOT
ATOM      1  C   UNL     1       0.715  10.185  20.195  0.00  0.00    +0.000 C 
ATOM      2  O   UNL     1       0.592  11.121  19.400  0.00  0.00    +0.000 OA
ATOM      3  N   UNL     1       1.387   9.012  19.859  0.00  0.00    +0.000 N 
ATOM      4  C   UNL     1       2.187   9.011  18.637  0.00  0.00    +0.000 C 
ATOM      5  C   UNL     1       2.038   7.701  17.878  0.00  0.00    +0.000 C 
ATOM      6  C   UNL     1       2.341   6.460  18.755  0.00  0.00    +0.000 C 
ATOM      7  C   UNL     1       1.385   6.535  19.964  0.00  0.00    +0.000 C 
ATOM      8  C   UNL     1       1.535   7.846  20.738  0.00  0.00    +0.000 C 
ATOM      9  C   UNL     1       3.813   6.423  19.209  0.00  0.00    +0.000 C 
ATOM     10  C   UNL     1       4.727   6.063  18.050  0.00  0.00    +0.000 C 
ATOM     11  N   UNL     1       4.910   4.620  17.869  0.00  0.00    +0.000 N 
ATOM     12  C   UNL     1       3.855   3.753  18.218  0.00  0.00    +0.000 A 
ATOM     13  C   UNL     1       4.181   2.432  18.585  0.00  0.00    +0.000 A 
ATOM     14  C   UNL     1       3.212   1.516  19.007  0.00  0.00    +0.000 A 
ATOM     15  C   UNL     1       1.876   1.893  19.060  0.00  0.00    +0.000 A 
ATOM     16  C   UNL     1       1.515   3.186  18.695  0.00  0.00    +0.000 A 
ATOM     17  C   UNL     1       2.492   4.115  18.306  0.00  0.00    +0.000 A 
ATOM     18  O   UNL     1       2.003   5.336  17.913  0.00  0.00    +0.000 OA
ENDROOT
BRANCH   1  19
ATOM     19  C   UNL     1       0.019  10.263  21.553  0.00  0.00    +0.000 C 
BRANCH  19  23
ATOM     20  C   UNL     1      -1.269  13.441  23.148  0.00  0.00    +0.000 C 
ATOM     21  C   UNL     1      -1.184  11.968  22.859  0.00  0.00    +0.000 C 
ATOM     22  O   UNL     1      -1.883  11.141  23.430  0.00  0.00    +0.000 OA
ATOM     23  N   UNL     1      -0.267  11.647  21.886  0.00  0.00    +0.000 N 
ATOM     24  H   UNL     1       0.374  12.350  21.551  0.00  0.00    +0.000 HD
ENDBRANCH  19  23
ENDBRANCH   1  19
BRANCH  11  25
ATOM     25  C   UNL     1       5.669   4.199  16.657  0.00  0.00    +0.000 C 
BRANCH  25  26
ATOM     26  C   UNL     1       5.144   4.868  15.370  0.00  0.00    +0.000 C 
BRANCH  26  27
ATOM     27  C   UNL     1       5.910   4.506  14.123  0.00  0.00    +0.000 A 
ATOM     28  C   UNL     1       5.401   3.552  13.230  0.00  0.00    +0.000 A 
ATOM     29  C   UNL     1       6.081   3.253  12.050  0.00  0.00    +0.000 A 
ATOM     30  C   UNL     1       7.279   3.899  11.753  0.00  0.00    +0.000 A 
ATOM     31  C   UNL     1       7.799   4.843  12.638  0.00  0.00    +0.000 A 
ATOM     32  C   UNL     1       7.119   5.144  13.819  0.00  0.00    +0.000 A 
ENDBRANCH  26  27
ENDBRANCH  25  26
ENDBRANCH  11  25
TORSDOF 5
ENDMDL
MODEL 4
REMARK VINA RESULT:      -8.3      3.135      8.749
REMARK  Name = 
REMARK  6 active torsions:
REMARK  status: ('A' for Active; 'I' for Inactive)
REMARK    1  A    between atoms: C_1  and  C_2
REMARK    2  A    between atoms: N_4  and  C_5
REMARK    3  A    between atoms: C_5  and  C_6
REMARK    4  A    between atoms: N_16  and  C_17
REMARK    5  A    between atoms: C_17  and  C_18
REMARK    6  A    between atoms: C_18  and  C_19
REMARK                            x       y       z     vdW  Elec       q    Type
REMARK                         _______ _______ _______ _____ _____    ______ ____
ROOT
ATOM      1  C   UNL     1       0.733  10.391  20.142  0.00  0.00    +0.000 C 
ATOM      2  O   UNL     1       0.454  11.307  19.364  0.00  0.00    +0.000 OA
ATOM      3  N   UNL     1       1.341   9.214  19.711  0.00  0.00    +0.000 N 
ATOM      4  C   UNL     1       1.896   9.187  18.361  0.00  0.00    +0.000 C 
ATOM      5  C   UNL     1       1.619   7.859  17.673  0.00  0.00    +0.000 C 
ATOM      6  C   UNL     1       2.093   6.641  18.505  0.00  0.00    +0.000 C 
ATOM      7  C   UNL     1       1.382   6.740  19.870  0.00  0.00    +0.000 C 
ATOM      8  C   UNL     1       1.663   8.070  20.572  0.00  0.00    +0.000 C 
ATOM      9  C   UNL     1       3.625   6.622  18.674  0.00  0.00    +0.000 C 
ATOM     10  C   UNL     1       4.307   6.239  17.371  0.00  0.00    +0.000 C 
ATOM     11  N   UNL     1       4.467   4.794  17.191  0.00  0.00    +0.000 N 
ATOM     12  C   UNL     1       3.505   3.930  17.752  0.00  0.00    +0.000 A 
ATOM     13  C   UNL     1       3.906   2.620  18.081  0.00  0.00    +0.000 A 
ATOM     14  C   UNL     1       3.043   1.708  18.698  0.00  0.00    +0.000 A 
ATOM     15  C   UNL     1       1.738   2.080  18.994  0.00  0.00    +0.000 A 
ATOM     16  C   UNL     1       1.302   3.363  18.675  0.00  0.00    +0.000 A 
ATOM     17  C   UNL     1       2.179   4.287  18.088  0.00  0.00    +0.000 A 
ATOM     18  O   UNL     1       1.613   5.495  17.767  0.00  0.00    +0.000 OA
ENDROOT
BRANCH   1  19
ATOM     19  C   UNL     1       0.304  10.497  21.605  0.00  0.00    +0.000 C 
BRANCH  19  23
ATOM     20  C   UNL     1      -2.823  12.491  22.345  0.00  0.00    +0.000 C 
ATOM     21  C   UNL     1      -1.386  12.066  22.466  0.00  0.00    +0.000 C 
ATOM     22  O   UNL     1      -0.590  12.631  23.205  0.00  0.00    +0.000 OA
ATOM     23  N   UNL     1      -1.062  10.979  21.688  0.00  0.00    +0.000 N 
ATOM     24  H   UNL     1      -1.720  10.644  21.000  0.00  0.00    +0.000 HD
ENDBRANCH  19  23
ENDBRANCH   1  19
BRANCH  11  25
ATOM     25  C   UNL     1       4.988   4.348  15.867  0.00  0.00    +0.000 C 
BRANCH  25  26
ATOM     26  C   UNL     1       6.520   4.485  15.759  0.00  0.00    +0.000 C 
BRANCH  26  27
ATOM     27  C   UNL     1       7.146   5.343  16.829  0.00  0.00    +0.000 A 
ATOM     28  C   UNL     1       7.288   6.725  16.636  0.00  0.00    +0.000 A 
ATOM     29  C   UNL     1       7.819   7.529  17.644  0.00  0.00    +0.000 A 
ATOM     30  C   UNL     1       8.219   6.961  18.852  0.00  0.00    +0.000 A 
ATOM     31  C   UNL     1       8.090   5.587  19.050  0.00  0.00    +0.000 A 
ATOM     32  C   UNL     1       7.558   4.780  18.043  0.00  0.00    +0.000 A 
ENDBRANCH  26  27
ENDBRANCH  25  26
ENDBRANCH  11  25
TORSDOF 5
ENDMDL
MODEL 5
REMARK VINA RESULT:      -8.2      3.121      8.706
REMARK  Name = 
REMARK  6 active torsions:
REMARK  status: ('A' for Active; 'I' for Inactive)
REMARK    1  A    between atoms: C_1  and  C_2
REMARK    2  A    between atoms: N_4  and  C_5
REMARK    3  A    between atoms: C_5  and  C_6
REMARK    4  A    between atoms: N_16  and  C_17
REMARK    5  A    between atoms: C_17  and  C_18
REMARK    6  A    between atoms: C_18  and  C_19
REMARK                            x       y       z     vdW  Elec       q    Type
REMARK                         _______ _______ _______ _____ _____    ______ ____
ROOT
ATOM      1  C   UNL     1       0.826  10.320  20.127  0.00  0.00    +0.000 C 
ATOM      2  O   UNL     1       0.602  11.255  19.352  0.00  0.00    +0.000 OA
ATOM      3  N   UNL     1       1.417   9.133  19.701  0.00  0.00    +0.000 N 
ATOM      4  C   UNL     1       2.023   9.110  18.373  0.00  0.00    +0.000 C 
ATOM      5  C   UNL     1       1.736   7.800  17.655  0.00  0.00    +0.000 C 
ATOM      6  C   UNL     1       2.145   6.557  18.485  0.00  0.00    +0.000 C 
ATOM      7  C   UNL     1       1.384   6.657  19.824  0.00  0.00    +0.000 C 
ATOM      8  C   UNL     1       1.674   7.968  20.556  0.00  0.00    +0.000 C 
ATOM      9  C   UNL     1       3.667   6.494  18.712  0.00  0.00    +0.000 C 
ATOM     10  C   UNL     1       4.388   6.110  17.430  0.00  0.00    +0.000 C 
ATOM     11  N   UNL     1       4.515   4.663  17.234  0.00  0.00    +0.000 N 
ATOM     12  C   UNL     1       3.509   3.819  17.745  0.00  0.00    +0.000 A 
ATOM     13  C   UNL     1       3.861   2.494  18.069  0.00  0.00    +0.000 A 
ATOM     14  C   UNL     1       2.950   1.598  18.639  0.00  0.00    +0.000 A 
ATOM     15  C   UNL     1       1.645   2.002  18.890  0.00  0.00    +0.000 A 
ATOM     16  C   UNL     1       1.258   3.301  18.574  0.00  0.00    +0.000 A 
ATOM     17  C   UNL     1       2.182   4.208  18.036  0.00  0.00    +0.000 A 
ATOM     18  O   UNL     1       1.662   5.436  17.712  0.00  0.00    +0.000 OA
ENDROOT
BRANCH   1  19
ATOM     19  C   UNL     1       0.344  10.418  21.573  0.00  0.00    +0.000 C 
BRANCH  19  23
ATOM     20  C   UNL     1      -1.352  13.468  23.029  0.00  0.00    +0.000 C 
ATOM     21  C   UNL     1      -1.093  12.008  22.785  0.00  0.00    +0.000 C 
ATOM     22  O   UNL     1      -1.718  11.121  23.352  0.00  0.00    +0.000 OA
ATOM     23  N   UNL     1      -0.106  11.768  21.857  0.00  0.00    +0.000 N 
ATOM     24  H   UNL     1       0.465  12.532  21.527  0.00  0.00    +0.000 HD
ENDBRANCH  19  23
ENDBRANCH   1  19
BRANCH  11  25
ATOM     25  C   UNL     1       5.074   4.222  15.924  0.00  0.00    +0.000 C 
BRANCH  25  26
ATOM     26  C   UNL     1       6.587   4.496  15.806  0.00  0.00    +0.000 C 
BRANCH  26  27
ATOM     27  C   UNL     1       7.144   5.393  16.882  0.00  0.00    +0.000 A 
ATOM     28  C   UNL     1       7.580   4.851  18.100  0.00  0.00    +0.000 A 
ATOM     29  C   UNL     1       8.143   5.671  19.078  0.00  0.00    +0.000 A 
ATOM     30  C   UNL     1       8.272   7.039  18.851  0.00  0.00    +0.000 A 
ATOM     31  C   UNL     1       7.835   7.589  17.647  0.00  0.00    +0.000 A 
ATOM     32  C   UNL     1       7.271   6.771  16.667  0.00  0.00    +0.000 A 
ENDBRANCH  26  27
ENDBRANCH  25  26
ENDBRANCH  11  25
TORSDOF 5
ENDMDL
MODEL 6
REMARK VINA RESULT:      -8.0      2.993      9.392
REMARK  Name = 
REMARK  6 active torsions:
REMARK  status: ('A' for Active; 'I' for Inactive)
REMARK    1  A    between atoms: C_1  and  C_2
REMARK    2  A    between atoms: N_4  and  C_5
REMARK    3  A    between atoms: C_5  and  C_6
REMARK    4  A    between atoms: N_16  and  C_17
REMARK    5  A    between atoms: C_17  and  C_18
REMARK    6  A    between atoms: C_18  and  C_19
REMARK                            x       y       z     vdW  Elec       q    Type
REMARK                         _______ _______ _______ _____ _____    ______ ____
ROOT
ATOM      1  C   UNL     1       0.333  10.371  19.648  0.00  0.00    +0.000 C 
ATOM      2  O   UNL     1       0.145  11.200  18.754  0.00  0.00    +0.000 OA
ATOM      3  N   UNL     1       1.133   9.246  19.457  0.00  0.00    +0.000 N 
ATOM      4  C   UNL     1       1.973   9.202  18.263  0.00  0.00    +0.000 C 
ATOM      5  C   UNL     1       1.985   7.811  17.646  0.00  0.00    +0.000 C 
ATOM      6  C   UNL     1       2.381   6.707  18.659  0.00  0.00    +0.000 C 
ATOM      7  C   UNL     1       1.379   6.807  19.828  0.00  0.00    +0.000 C 
ATOM      8  C   UNL     1       1.367   8.201  20.459  0.00  0.00    +0.000 C 
ATOM      9  C   UNL     1       3.832   6.873  19.151  0.00  0.00    +0.000 C 
ATOM     10  C   UNL     1       4.819   6.492  18.060  0.00  0.00    +0.000 C 
ATOM     11  N   UNL     1       5.155   5.065  18.040  0.00  0.00    +0.000 N 
ATOM     12  C   UNL     1       4.181   4.134  18.453  0.00  0.00    +0.000 A 
ATOM     13  C   UNL     1       4.626   2.900  18.969  0.00  0.00    +0.000 A 
ATOM     14  C   UNL     1       3.741   1.935  19.463  0.00  0.00    +0.000 A 
ATOM     15  C   UNL     1       2.373   2.174  19.441  0.00  0.00    +0.000 A 
ATOM     16  C   UNL     1       1.896   3.377  18.930  0.00  0.00    +0.000 A 
ATOM     17  C   UNL     1       2.786   4.357  18.469  0.00  0.00    +0.000 A 
ATOM     18  O   UNL     1       2.190   5.472  17.934  0.00  0.00    +0.000 OA
ENDROOT
BRANCH   1  19
ATOM     19  C   UNL     1      -0.416  10.517  20.971  0.00  0.00    +0.000 C 
BRANCH  19  23
ATOM     20  C   UNL     1      -2.301  13.604  22.075  0.00  0.00    +0.000 C 
ATOM     21  C   UNL     1      -1.792  12.191  22.140  0.00  0.00    +0.000 C 
ATOM     22  O   UNL     1      -2.021  11.448  23.085  0.00  0.00    +0.000 OA
ATOM     23  N   UNL     1      -1.068  11.812  21.033  0.00  0.00    +0.000 N 
ATOM     24  H   UNL     1      -0.797  12.506  20.352  0.00  0.00    +0.000 HD
ENDBRANCH  19  23
ENDBRANCH   1  19
BRANCH  11  25
ATOM     25  C   UNL     1       5.996   4.602  16.900  0.00  0.00    +0.000 C 
BRANCH  25  26
ATOM     26  C   UNL     1       5.153   4.146  15.691  0.00  0.00    +0.000 C 
BRANCH  26  27
ATOM     27  C   UNL     1       5.867   4.229  14.366  0.00  0.00    +0.000 A 
ATOM     28  C   UNL     1       7.009   5.031  14.226  0.00  0.00    +0.000 A 
ATOM     29  C   UNL     1       7.703   5.069  13.016  0.00  0.00    +0.000 A 
ATOM     30  C   UNL     1       7.258   4.313  11.934  0.00  0.00    +0.000 A 
ATOM     31  C   UNL     1       6.119   3.519  12.060  0.00  0.00    +0.000 A 
ATOM     32  C   UNL     1       5.425   3.479  13.270  0.00  0.00    +0.000 A 
ENDBRANCH  26  27
ENDBRANCH  25  26
ENDBRANCH  11  25
TORSDOF 5
ENDMDL
MODEL 7
REMARK VINA RESULT:      -7.8      2.920      9.134
REMARK  Name = 
REMARK  6 active torsions:
REMARK  status: ('A' for Active; 'I' for Inactive)
REMARK    1  A    between atoms: C_1  and  C_2
REMARK    2  A    between atoms: N_4  and  C_5
REMARK    3  A    between atoms: C_5  and  C_6
REMARK    4  A    between atoms: N_16  and  C_17
REMARK    5  A    between atoms: C_17  and  C_18
REMARK    6  A    between atoms: C_18  and  C_19
REMARK                            x       y       z     vdW  Elec       q    Type
REMARK                         _______ _______ _______ _____ _____    ______ ____
ROOT
ATOM      1  C   UNL     1       0.654  10.613  19.362  0.00  0.00    +0.000 C 
ATOM      2  O   UNL     1       0.294  11.237  18.360  0.00  0.00    +0.000 OA
ATOM      3  N   UNL     1       1.387   9.432  19.274  0.00  0.00    +0.000 N 
ATOM      4  C   UNL     1       1.963   9.081  17.979  0.00  0.00    +0.000 C 
ATOM      5  C   UNL     1       1.835   7.591  17.700  0.00  0.00    +0.000 C 
ATOM      6  C   UNL     1       2.420   6.714  18.836  0.00  0.00    +0.000 C 
ATOM      7  C   UNL     1       1.680   7.122  20.127  0.00  0.00    +0.000 C 
ATOM      8  C   UNL     1       1.811   8.618  20.419  0.00  0.00    +0.000 C 
ATOM      9  C   UNL     1       3.942   6.903  18.981  0.00  0.00    +0.000 C 
ATOM     10  C   UNL     1       4.680   6.239  17.831  0.00  0.00    +0.000 C 
ATOM     11  N   UNL     1       4.991   4.826  18.066  0.00  0.00    +0.000 N 
ATOM     12  C   UNL     1       4.114   4.062  18.862  0.00  0.00    +0.000 A 
ATOM     13  C   UNL     1       4.644   2.948  19.543  0.00  0.00    +0.000 A 
ATOM     14  C   UNL     1       3.869   2.165  20.405  0.00  0.00    +0.000 A 
ATOM     15  C   UNL     1       2.528   2.468  20.602  0.00  0.00    +0.000 A 
ATOM     16  C   UNL     1       1.968   3.556  19.939  0.00  0.00    +0.000 A 
ATOM     17  C   UNL     1       2.754   4.361  19.102  0.00  0.00    +0.000 A 
ATOM     18  O   UNL     1       2.072   5.364  18.460  0.00  0.00    +0.000 OA
ENDROOT
BRANCH   1  19
ATOM     19  C   UNL     1       0.194  11.085  20.740  0.00  0.00    +0.000 C 
BRANCH  19  23
ATOM     20  C   UNL     1       0.553  14.848  20.856  0.00  0.00    +0.000 C 
ATOM     21  C   UNL     1       0.949  13.410  21.038  0.00  0.00    +0.000 C 
ATOM     22  O   UNL     1       2.052  13.074  21.449  0.00  0.00    +0.000 OA
ATOM     23  N   UNL     1      -0.048  12.516  20.720  0.00  0.00    +0.000 N 
ATOM     24  H   UNL     1      -0.883  12.843  20.259  0.00  0.00    +0.000 HD
ENDBRANCH  19  23
ENDBRANCH   1  19
BRANCH  11  25
ATOM     25  C   UNL     1       5.576   4.080  16.915  0.00  0.00    +0.000 C 
BRANCH  25  26
ATOM     26  C   UNL     1       4.807   4.324  15.601  0.00  0.00    +0.000 C 
BRANCH  26  27
ATOM     27  C   UNL     1       5.667   4.305  14.363  0.00  0.00    +0.000 A 
ATOM     28  C   UNL     1       6.871   5.024  14.325  0.00  0.00    +0.000 A 
ATOM     29  C   UNL     1       7.694   4.967  13.200  0.00  0.00    +0.000 A 
ATOM     30  C   UNL     1       7.320   4.197  12.101  0.00  0.00    +0.000 A 
ATOM     31  C   UNL     1       6.121   3.485  12.125  0.00  0.00    +0.000 A 
ATOM     32  C   UNL     1       5.296   3.540  13.250  0.00  0.00    +0.000 A 
ENDBRANCH  26  27
ENDBRANCH  25  26
ENDBRANCH  11  25
TORSDOF 5
ENDMDL
MODEL 8
REMARK VINA RESULT:      -7.7      9.366     12.527
REMARK  Name = 
REMARK  6 active torsions:
REMARK  status: ('A' for Active; 'I' for Inactive)
REMARK    1  A    between atoms: C_1  and  C_2
REMARK    2  A    between atoms: N_4  and  C_5
REMARK    3  A    between atoms: C_5  and  C_6
REMARK    4  A    between atoms: N_16  and  C_17
REMARK    5  A    between atoms: C_17  and  C_18
REMARK    6  A    between atoms: C_18  and  C_19
REMARK                            x       y       z     vdW  Elec       q    Type
REMARK                         _______ _______ _______ _____ _____    ______ ____
ROOT
ATOM      1  C   UNL     1       6.181  12.574  25.078  0.00  0.00    +0.000 C 
ATOM      2  O   UNL     1       5.134  13.201  25.263  0.00  0.00    +0.000 OA
ATOM      3  N   UNL     1       7.065  12.897  24.050  0.00  0.00    +0.000 N 
ATOM      4  C   UNL     1       6.869  14.166  23.356  0.00  0.00    +0.000 C 
ATOM      5  C   UNL     1       7.094  14.019  21.858  0.00  0.00    +0.000 C 
ATOM      6  C   UNL     1       8.469  13.393  21.516  0.00  0.00    +0.000 C 
ATOM      7  C   UNL     1       8.522  12.032  22.240  0.00  0.00    +0.000 C 
ATOM      8  C   UNL     1       8.304  12.172  23.748  0.00  0.00    +0.000 C 
ATOM      9  C   UNL     1       9.637  14.300  21.948  0.00  0.00    +0.000 C 
ATOM     10  C   UNL     1       9.748  15.509  21.034  0.00  0.00    +0.000 C 
ATOM     11  N   UNL     1      10.574  15.278  19.846  0.00  0.00    +0.000 N 
ATOM     12  C   UNL     1      10.617  13.982  19.292  0.00  0.00    +0.000 A 
ATOM     13  C   UNL     1      11.767  13.615  18.565  0.00  0.00    +0.000 A 
ATOM     14  C   UNL     1      11.932  12.333  18.030  0.00  0.00    +0.000 A 
ATOM     15  C   UNL     1      10.938  11.378  18.198  0.00  0.00    +0.000 A 
ATOM     16  C   UNL     1       9.784  11.707  18.903  0.00  0.00    +0.000 A 
ATOM     17  C   UNL     1       9.635  12.982  19.468  0.00  0.00    +0.000 A 
ATOM     18  O   UNL     1       8.429  13.202  20.085  0.00  0.00    +0.000 OA
ENDROOT
BRANCH   1  19
ATOM     19  C   UNL     1       6.473  11.340  25.930  0.00  0.00    +0.000 C 
BRANCH  19  23
ATOM     20  C   UNL     1       3.349   9.708  27.300  0.00  0.00    +0.000 C 
ATOM     21  C   UNL     1       4.648  10.463  27.331  0.00  0.00    +0.000 C 
ATOM     22  O   UNL     1       5.116  10.932  28.360  0.00  0.00    +0.000 OA
ATOM     23  N   UNL     1       5.262  10.559  26.103  0.00  0.00    +0.000 N 
ATOM     24  H   UNL     1       4.765  10.275  25.273  0.00  0.00    +0.000 HD
ENDBRANCH  19  23
ENDBRANCH   1  19
BRANCH  11  25
ATOM     25  C   UNL     1      10.595  16.373  18.835  0.00  0.00    +0.000 C 
BRANCH  25  26
ATOM     26  C   UNL     1       9.644  16.103  17.651  0.00  0.00    +0.000 C 
BRANCH  26  27
ATOM     27  C   UNL     1       8.179  16.141  18.007  0.00  0.00    +0.000 A 
ATOM     28  C   UNL     1       7.340  15.071  17.665  0.00  0.00    +0.000 A 
ATOM     29  C   UNL     1       5.995  15.080  18.039  0.00  0.00    +0.000 A 
ATOM     30  C   UNL     1       5.477  16.159  18.751  0.00  0.00    +0.000 A 
ATOM     31  C   UNL     1       6.301  17.231  19.089  0.00  0.00    +0.000 A 
ATOM     32  C   UNL     1       7.647  17.224  18.717  0.00  0.00    +0.000 A 
ENDBRANCH  26  27
ENDBRANCH  25  26
ENDBRANCH  11  25
TORSDOF 5
ENDMDL
MODEL 9
REMARK VINA RESULT:      -7.6      3.268      8.775
REMARK  Name = 
REMARK  6 active torsions:
REMARK  status: ('A' for Active; 'I' for Inactive)
REMARK    1  A    between atoms: C_1  and  C_2
REMARK    2  A    between atoms: N_4  and  C_5
REMARK    3  A    between atoms: C_5  and  C_6
REMARK    4  A    between atoms: N_16  and  C_17
REMARK    5  A    between atoms: C_17  and  C_18
REMARK    6  A    between atoms: C_18  and  C_19
REMARK                            x       y       z     vdW  Elec       q    Type
REMARK                         _______ _______ _______ _____ _____    ______ ____
ROOT
ATOM      1  C   UNL     1       0.626  11.203  19.646  0.00  0.00    +0.000 C 
ATOM      2  O   UNL     1       0.125  11.792  18.685  0.00  0.00    +0.000 OA
ATOM      3  N   UNL     1       1.226   9.952  19.516  0.00  0.00    +0.000 N 
ATOM      4  C   UNL     1       1.500   9.464  18.168  0.00  0.00    +0.000 C 
ATOM      5  C   UNL     1       1.195   7.978  18.044  0.00  0.00    +0.000 C 
ATOM      6  C   UNL     1       1.922   7.125  19.113  0.00  0.00    +0.000 C 
ATOM      7  C   UNL     1       1.493   7.686  20.485  0.00  0.00    +0.000 C 
ATOM      8  C   UNL     1       1.803   9.178  20.621  0.00  0.00    +0.000 C 
ATOM      9  C   UNL     1       3.453   7.173  18.945  0.00  0.00    +0.000 C 
ATOM     10  C   UNL     1       3.888   6.367  17.732  0.00  0.00    +0.000 C 
ATOM     11  N   UNL     1       4.122   4.949  18.019  0.00  0.00    +0.000 N 
ATOM     12  C   UNL     1       3.362   4.328  19.031  0.00  0.00    +0.000 A 
ATOM     13  C   UNL     1       3.924   3.214  19.686  0.00  0.00    +0.000 A 
ATOM     14  C   UNL     1       3.277   2.567  20.745  0.00  0.00    +0.000 A 
ATOM     15  C   UNL     1       2.032   3.012  21.172  0.00  0.00    +0.000 A 
ATOM     16  C   UNL     1       1.442   4.103  20.542  0.00  0.00    +0.000 A 
ATOM     17  C   UNL     1       2.108   4.772  19.504  0.00  0.00    +0.000 A 
ATOM     18  O   UNL     1       1.395   5.793  18.926  0.00  0.00    +0.000 OA
ENDROOT
BRANCH   1  19
ATOM     19  C   UNL     1       0.492  11.806  21.044  0.00  0.00    +0.000 C 
BRANCH  19  23
ATOM     20  C   UNL     1      -2.772  12.142  22.924  0.00  0.00    +0.000 C 
ATOM     21  C   UNL     1      -1.306  12.323  22.644  0.00  0.00    +0.000 C 
ATOM     22  O   UNL     1      -0.572  12.987  23.364  0.00  0.00    +0.000 OA
ATOM     23  N   UNL     1      -0.871  11.659  21.520  0.00  0.00    +0.000 N 
ATOM     24  H   UNL     1      -1.544  11.244  20.893  0.00  0.00    +0.000 HD
ENDBRANCH  19  23
ENDBRANCH   1  19
BRANCH  11  25
ATOM     25  C   UNL     1       4.400   4.076  16.843  0.00  0.00    +0.000 C 
BRANCH  25  26
ATOM     26  C   UNL     1       5.872   4.149  16.388  0.00  0.00    +0.000 C 
BRANCH  26  27
ATOM     27  C   UNL     1       6.706   5.156  17.138  0.00  0.00    +0.000 A 
ATOM     28  C   UNL     1       6.885   6.450  16.627  0.00  0.00    +0.000 A 
ATOM     29  C   UNL     1       7.613   7.400  17.343  0.00  0.00    +0.000 A 
ATOM     30  C   UNL     1       8.175   7.064  18.574  0.00  0.00    +0.000 A 
ATOM     31  C   UNL     1       8.011   5.779  19.087  0.00  0.00    +0.000 A 
ATOM     32  C   UNL     1       7.281   4.827  18.372  0.00  0.00    +0.000 A 
ENDBRANCH  26  27
ENDBRANCH  25  26
ENDBRANCH  11  25
TORSDOF 5
ENDMDL
