MODEL 1
REMARK VINA RESULT:      -8.3      0.000      0.000
REMARK  Name = 
REMARK  4 active torsions:
REMARK  status: ('A' for Active; 'I' for Inactive)
REMARK    1  A    between atoms: N_1  and  S_2
REMARK    2  A    between atoms: S_2  and  C_5
REMARK    3  A    between atoms: C_9  and  C_10
REMARK    4  A    between atoms: C_17  and  C_18
REMARK                            x       y       z     vdW  Elec       q    Type
REMARK                         _______ _______ _______ _____ _____    ______ ____
ROOT
ATOM      1  C   UNL     1       2.681   7.647  18.194  0.00  0.00    +0.000 A 
ATOM      2  C   UNL     1       3.637   7.988  17.254  0.00  0.00    +0.000 A 
ATOM      3  C   UNL     1       4.447   6.984  16.729  0.00  0.00    +0.000 A 
ATOM      4  C   UNL     1       4.315   5.669  17.133  0.00  0.00    +0.000 A 
ATOM      5  N   UNL     1       5.119   4.750  16.569  0.00  0.00    +0.000 NA
ATOM      6  C   UNL     1       4.981   3.475  16.965  0.00  0.00    +0.000 A 
ATOM      7  C   UNL     1       4.072   3.074  17.920  0.00  0.00    +0.000 A 
ATOM      8  C   UNL     1       3.242   4.039  18.511  0.00  0.00    +0.000 A 
ATOM      9  C   UNL     1       3.339   5.387  18.113  0.00  0.00    +0.000 A 
ATOM     10  N   UNL     1       2.552   6.367  18.629  0.00  0.00    +0.000 NA
ENDROOT
BRANCH   1  15
ATOM     11  C   UNL     1       0.543   9.511  20.701  0.00  0.00    +0.000 A 
ATOM     12  C   UNL     1      -0.216  10.359  19.894  0.00  0.00    +0.000 A 
ATOM     13  C   UNL     1      -0.004  10.335  18.515  0.00  0.00    +0.000 A 
ATOM     14  C   UNL     1       0.944   9.465  17.959  0.00  0.00    +0.000 A 
ATOM     15  C   UNL     1       1.721   8.610  18.762  0.00  0.00    +0.000 A 
ATOM     16  C   UNL     1       1.511   8.666  20.147  0.00  0.00    +0.000 A 
BRANCH  11  17
ATOM     17  S   UNL     1       0.295   9.440  22.449  0.00  0.00    +0.000 S 
ATOM     18  O   UNL     1       1.567   9.353  23.113  0.00  0.00    +0.000 OA
ATOM     19  O   UNL     1      -0.793   8.530  22.717  0.00  0.00    +0.000 OA
BRANCH  17  20
ATOM     20  N   UNL     1      -0.290  10.989  22.752  0.00  0.00    +0.000 NA
ATOM     21  H   UNL     1      -1.220  10.946  23.165  0.00  0.00    +0.000 HD
ATOM     22  H   UNL     1      -0.219  11.599  21.940  0.00  0.00    +0.000 HD
ENDBRANCH  17  20
ENDBRANCH  11  17
ENDBRANCH   1  15
BRANCH   8  23
ATOM     23  C   UNL     1       2.279   3.616  19.526  0.00  0.00    +0.000 A 
ATOM     24  C   UNL     1       2.384   3.521  20.936  0.00  0.00    +0.000 A 
ATOM     25  N   UNL     1       1.267   3.068  21.514  0.00  0.00    +0.000 NA
ATOM     26  N   UNL     1       0.433   2.884  20.478  0.00  0.00    +0.000 N 
ATOM     27  C   UNL     1       0.991   3.187  19.270  0.00  0.00    +0.000 A 
ATOM     28  H   UNL     1      -0.505   2.545  20.670  0.00  0.00    +0.000 HD
ENDBRANCH   8  23
TORSDOF 4
ENDMDL
MODEL 2
REMARK VINA RESULT:      -8.2      2.101      2.330
REMARK  Name = 
REMARK  4 active torsions:
REMARK  status: ('A' for Active; 'I' for Inactive)
REMARK    1  A    between atoms: N_1  and  S_2
REMARK    2  A    between atoms: S_2  and  C_5
REMARK    3  A    between atoms: C_9  and  C_10
REMARK    4  A    between atoms: C_17  and  C_18
REMARK                            x       y       z     vdW  Elec       q    Type
REMARK                         _______ _______ _______ _____ _____    ______ ____
ROOT
ATOM      1  C   UNL     1       2.421   7.553  18.911  0.00  0.00    +0.000 A 
ATOM      2  C   UNL     1       3.181   8.012  17.850  0.00  0.00    +0.000 A 
ATOM      3  C   UNL     1       3.931   7.095  17.118  0.00  0.00    +0.000 A 
ATOM      4  C   UNL     1       3.932   5.750  17.437  0.00  0.00    +0.000 A 
ATOM      5  N   UNL     1       4.666   4.920  16.674  0.00  0.00    +0.000 NA
ATOM      6  C   UNL     1       4.658   3.615  16.990  0.00  0.00    +0.000 A 
ATOM      7  C   UNL     1       3.951   3.098  18.053  0.00  0.00    +0.000 A 
ATOM      8  C   UNL     1       3.194   3.971  18.849  0.00  0.00    +0.000 A 
ATOM      9  C   UNL     1       3.158   5.346  18.545  0.00  0.00    +0.000 A 
ATOM     10  N   UNL     1       2.428   6.241  19.261  0.00  0.00    +0.000 NA
ENDROOT
BRANCH   1  15
ATOM     11  C   UNL     1       0.225  10.468  19.914  0.00  0.00    +0.000 A 
ATOM     12  C   UNL     1      -0.082  10.185  21.245  0.00  0.00    +0.000 A 
ATOM     13  C   UNL     1       0.418   9.011  21.810  0.00  0.00    +0.000 A 
ATOM     14  C   UNL     1       1.221   8.147  21.053  0.00  0.00    +0.000 A 
ATOM     15  C   UNL     1       1.532   8.417  19.707  0.00  0.00    +0.000 A 
ATOM     16  C   UNL     1       1.000   9.589  19.150  0.00  0.00    +0.000 A 
BRANCH  11  17
ATOM     17  S   UNL     1      -0.322  11.962  19.143  0.00  0.00    +0.000 S 
ATOM     18  O   UNL     1       0.815  12.705  18.673  0.00  0.00    +0.000 OA
ATOM     19  O   UNL     1      -1.355  12.545  19.964  0.00  0.00    +0.000 OA
BRANCH  17  20
ATOM     20  N   UNL     1      -1.085  11.353  17.772  0.00  0.00    +0.000 NA
ATOM     21  H   UNL     1      -0.970  11.990  16.986  0.00  0.00    +0.000 HD
ATOM     22  H   UNL     1      -2.048  11.076  17.951  0.00  0.00    +0.000 HD
ENDBRANCH  17  20
ENDBRANCH  11  17
ENDBRANCH   1  15
BRANCH   8  23
ATOM     23  C   UNL     1       2.443   3.424  19.979  0.00  0.00    +0.000 A 
ATOM     24  C   UNL     1       2.872   2.912  21.228  0.00  0.00    +0.000 A 
ATOM     25  N   UNL     1       1.862   2.487  21.993  0.00  0.00    +0.000 NA
ATOM     26  N   UNL     1       0.776   2.738  21.243  0.00  0.00    +0.000 N 
ATOM     27  C   UNL     1       1.069   3.289  20.029  0.00  0.00    +0.000 A 
ATOM     28  H   UNL     1      -0.136   2.505  21.624  0.00  0.00    +0.000 HD
ENDBRANCH   8  23
TORSDOF 4
ENDMDL
MODEL 3
REMARK VINA RESULT:      -8.1      1.739      3.747
REMARK  Name = 
REMARK  4 active torsions:
REMARK  status: ('A' for Active; 'I' for Inactive)
REMARK    1  A    between atoms: N_1  and  S_2
REMARK    2  A    between atoms: S_2  and  C_5
REMARK    3  A    between atoms: C_9  and  C_10
REMARK    4  A    between atoms: C_17  and  C_18
REMARK                            x       y       z     vdW  Elec       q    Type
REMARK                         _______ _______ _______ _____ _____    ______ ____
ROOT
ATOM      1  C   UNL     1       2.084   6.812  19.790  0.00  0.00    +0.000 A 
ATOM      2  C   UNL     1       1.407   6.041  20.717  0.00  0.00    +0.000 A 
ATOM      3  C   UNL     1       1.823   4.729  20.927  0.00  0.00    +0.000 A 
ATOM      4  C   UNL     1       2.887   4.191  20.227  0.00  0.00    +0.000 A 
ATOM      5  N   UNL     1       3.245   2.923  20.495  0.00  0.00    +0.000 NA
ATOM      6  C   UNL     1       4.281   2.411  19.812  0.00  0.00    +0.000 A 
ATOM      7  C   UNL     1       4.976   3.114  18.853  0.00  0.00    +0.000 A 
ATOM      8  C   UNL     1       4.591   4.434  18.571  0.00  0.00    +0.000 A 
ATOM      9  C   UNL     1       3.522   5.019  19.276  0.00  0.00    +0.000 A 
ATOM     10  N   UNL     1       3.113   6.298  19.068  0.00  0.00    +0.000 NA
ENDROOT
BRANCH   1  15
ATOM     11  C   UNL     1       0.777  10.332  20.276  0.00  0.00    +0.000 A 
ATOM     12  C   UNL     1       1.057  10.940  19.053  0.00  0.00    +0.000 A 
ATOM     13  C   UNL     1       1.703  10.193  18.068  0.00  0.00    +0.000 A 
ATOM     14  C   UNL     1       2.050   8.856  18.306  0.00  0.00    +0.000 A 
ATOM     15  C   UNL     1       1.781   8.233  19.538  0.00  0.00    +0.000 A 
ATOM     16  C   UNL     1       1.153   9.007  20.524  0.00  0.00    +0.000 A 
BRANCH  11  17
ATOM     17  S   UNL     1      -0.089  11.192  21.555  0.00  0.00    +0.000 S 
ATOM     18  O   UNL     1       0.170  10.562  22.820  0.00  0.00    +0.000 OA
ATOM     19  O   UNL     1      -1.421  11.484  21.083  0.00  0.00    +0.000 OA
BRANCH  17  20
ATOM     20  N   UNL     1       0.744  12.654  21.577  0.00  0.00    +0.000 NA
ATOM     21  H   UNL     1       0.096  13.433  21.682  0.00  0.00    +0.000 HD
ATOM     22  H   UNL     1       1.391  12.748  20.797  0.00  0.00    +0.000 HD
ENDBRANCH  17  20
ENDBRANCH  11  17
ENDBRANCH   1  15
BRANCH   8  23
ATOM     23  C   UNL     1       5.327   5.181  17.552  0.00  0.00    +0.000 A 
ATOM     24  C   UNL     1       6.380   6.124  17.659  0.00  0.00    +0.000 A 
ATOM     25  N   UNL     1       6.776   6.600  16.475  0.00  0.00    +0.000 NA
ATOM     26  N   UNL     1       5.990   5.954  15.599  0.00  0.00    +0.000 N 
ATOM     27  C   UNL     1       5.101   5.103  16.191  0.00  0.00    +0.000 A 
ATOM     28  H   UNL     1       6.112   6.145  14.610  0.00  0.00    +0.000 HD
ENDBRANCH   8  23
TORSDOF 4
ENDMDL
MODEL 4
REMARK VINA RESULT:      -8.0      1.783      3.904
REMARK  Name = 
REMARK  4 active torsions:
REMARK  status: ('A' for Active; 'I' for Inactive)
REMARK    1  A    between atoms: N_1  and  S_2
REMARK    2  A    between atoms: S_2  and  C_5
REMARK    3  A    between atoms: C_9  and  C_10
REMARK    4  A    between atoms: C_17  and  C_18
REMARK                            x       y       z     vdW  Elec       q    Type
REMARK                         _______ _______ _______ _____ _____    ______ ____
ROOT
ATOM      1  C   UNL     1       2.139   6.818  19.728  0.00  0.00    +0.000 A 
ATOM      2  C   UNL     1       1.457   6.072  20.673  0.00  0.00    +0.000 A 
ATOM      3  C   UNL     1       1.861   4.760  20.908  0.00  0.00    +0.000 A 
ATOM      4  C   UNL     1       2.917   4.198  20.215  0.00  0.00    +0.000 A 
ATOM      5  N   UNL     1       3.263   2.932  20.508  0.00  0.00    +0.000 NA
ATOM      6  C   UNL     1       4.292   2.396  19.833  0.00  0.00    +0.000 A 
ATOM      7  C   UNL     1       4.992   3.073  18.858  0.00  0.00    +0.000 A 
ATOM      8  C   UNL     1       4.619   4.391  18.551  0.00  0.00    +0.000 A 
ATOM      9  C   UNL     1       3.557   5.000  19.247  0.00  0.00    +0.000 A 
ATOM     10  N   UNL     1       3.161   6.279  19.015  0.00  0.00    +0.000 NA
ENDROOT
BRANCH   1  15
ATOM     11  C   UNL     1       0.887  10.365  20.158  0.00  0.00    +0.000 A 
ATOM     12  C   UNL     1       1.150  10.941  18.915  0.00  0.00    +0.000 A 
ATOM     13  C   UNL     1       1.767  10.163  17.935  0.00  0.00    +0.000 A 
ATOM     14  C   UNL     1       2.102   8.827  18.198  0.00  0.00    +0.000 A 
ATOM     15  C   UNL     1       1.849   8.236  19.450  0.00  0.00    +0.000 A 
ATOM     16  C   UNL     1       1.251   9.041  20.429  0.00  0.00    +0.000 A 
BRANCH  11  17
ATOM     17  S   UNL     1       0.057  11.266  21.432  0.00  0.00    +0.000 S 
ATOM     18  O   UNL     1      -1.360  11.238  21.196  0.00  0.00    +0.000 OA
ATOM     19  O   UNL     1       0.788  12.487  21.675  0.00  0.00    +0.000 OA
BRANCH  17  20
ATOM     20  N   UNL     1       0.333  10.269  22.760  0.00  0.00    +0.000 NA
ATOM     21  H   UNL     1      -0.378  10.418  23.473  0.00  0.00    +0.000 HD
ATOM     22  H   UNL     1       1.291  10.330  23.102  0.00  0.00    +0.000 HD
ENDBRANCH  17  20
ENDBRANCH  11  17
ENDBRANCH   1  15
BRANCH   8  23
ATOM     23  C   UNL     1       5.359   5.111  17.515  0.00  0.00    +0.000 A 
ATOM     24  C   UNL     1       5.143   5.227  16.120  0.00  0.00    +0.000 A 
ATOM     25  N   UNL     1       6.068   5.975  15.509  0.00  0.00    +0.000 NA
ATOM     26  N   UNL     1       6.875   6.354  16.513  0.00  0.00    +0.000 N 
ATOM     27  C   UNL     1       6.501   5.858  17.728  0.00  0.00    +0.000 A 
ATOM     28  H   UNL     1       7.666   6.952  16.295  0.00  0.00    +0.000 HD
ENDBRANCH   8  23
TORSDOF 4
ENDMDL
MODEL 5
REMARK VINA RESULT:      -7.9      3.381      7.595
REMARK  Name = 
REMARK  4 active torsions:
REMARK  status: ('A' for Active; 'I' for Inactive)
REMARK    1  A    between atoms: N_1  and  S_2
REMARK    2  A    between atoms: S_2  and  C_5
REMARK    3  A    between atoms: C_9  and  C_10
REMARK    4  A    between atoms: C_17  and  C_18
REMARK                            x       y       z     vdW  Elec       q    Type
REMARK                         _______ _______ _______ _____ _____    ______ ____
ROOT
ATOM      1  C   UNL     1       1.105   8.567  20.932  0.00  0.00    +0.000 A 
ATOM      2  C   UNL     1       1.362   8.725  22.282  0.00  0.00    +0.000 A 
ATOM      3  C   UNL     1       0.711   9.744  22.972  0.00  0.00    +0.000 A 
ATOM      4  C   UNL     1      -0.173  10.594  22.333  0.00  0.00    +0.000 A 
ATOM      5  N   UNL     1      -0.780  11.544  23.067  0.00  0.00    +0.000 NA
ATOM      6  C   UNL     1      -1.639  12.362  22.439  0.00  0.00    +0.000 A 
ATOM      7  C   UNL     1      -1.913  12.279  21.091  0.00  0.00    +0.000 A 
ATOM      8  C   UNL     1      -1.270  11.291  20.330  0.00  0.00    +0.000 A 
ATOM      9  C   UNL     1      -0.375  10.399  20.951  0.00  0.00    +0.000 A 
ATOM     10  N   UNL     1       0.264   9.406  20.276  0.00  0.00    +0.000 NA
ENDROOT
BRANCH   1  15
ATOM     11  C   UNL     1       2.231   5.117  19.855  0.00  0.00    +0.000 A 
ATOM     12  C   UNL     1       2.884   5.364  18.648  0.00  0.00    +0.000 A 
ATOM     13  C   UNL     1       2.933   6.674  18.172  0.00  0.00    +0.000 A 
ATOM     14  C   UNL     1       2.346   7.717  18.903  0.00  0.00    +0.000 A 
ATOM     15  C   UNL     1       1.678   7.479  20.119  0.00  0.00    +0.000 A 
ATOM     16  C   UNL     1       1.618   6.153  20.568  0.00  0.00    +0.000 A 
BRANCH  11  17
ATOM     17  S   UNL     1       2.175   3.494  20.555  0.00  0.00    +0.000 S 
ATOM     18  O   UNL     1       2.235   3.586  21.988  0.00  0.00    +0.000 OA
ATOM     19  O   UNL     1       3.047   2.638  19.787  0.00  0.00    +0.000 OA
BRANCH  17  20
ATOM     20  N   UNL     1       0.600   3.038  20.178  0.00  0.00    +0.000 NA
ATOM     21  H   UNL     1       0.133   3.769  19.644  0.00  0.00    +0.000 HD
ATOM     22  H   UNL     1       0.080   2.716  20.993  0.00  0.00    +0.000 HD
ENDBRANCH  17  20
ENDBRANCH  11  17
ENDBRANCH   1  15
BRANCH   8  23
ATOM     23  C   UNL     1      -1.559  11.203  18.899  0.00  0.00    +0.000 A 
ATOM     24  C   UNL     1      -2.054  10.137  18.108  0.00  0.00    +0.000 A 
ATOM     25  N   UNL     1      -2.167  10.456  16.814  0.00  0.00    +0.000 NA
ATOM     26  N   UNL     1      -1.759  11.734  16.772  0.00  0.00    +0.000 N 
ATOM     27  C   UNL     1      -1.377  12.224  17.987  0.00  0.00    +0.000 A 
ATOM     28  H   UNL     1      -1.764  12.212  15.875  0.00  0.00    +0.000 HD
ENDBRANCH   8  23
TORSDOF 4
ENDMDL
MODEL 6
REMARK VINA RESULT:      -7.8      3.418      7.775
REMARK  Name = 
REMARK  4 active torsions:
REMARK  status: ('A' for Active; 'I' for Inactive)
REMARK    1  A    between atoms: N_1  and  S_2
REMARK    2  A    between atoms: S_2  and  C_5
REMARK    3  A    between atoms: C_9  and  C_10
REMARK    4  A    between atoms: C_17  and  C_18
REMARK                            x       y       z     vdW  Elec       q    Type
REMARK                         _______ _______ _______ _____ _____    ______ ____
ROOT
ATOM      1  C   UNL     1       1.103   8.802  20.743  0.00  0.00    +0.000 A 
ATOM      2  C   UNL     1       1.285   8.706  22.111  0.00  0.00    +0.000 A 
ATOM      3  C   UNL     1       0.545   9.541  22.944  0.00  0.00    +0.000 A 
ATOM      4  C   UNL     1      -0.355  10.456  22.430  0.00  0.00    +0.000 A 
ATOM      5  N   UNL     1      -1.049  11.215  23.296  0.00  0.00    +0.000 NA
ATOM      6  C   UNL     1      -1.923  12.098  22.788  0.00  0.00    +0.000 A 
ATOM      7  C   UNL     1      -2.128  12.267  21.436  0.00  0.00    +0.000 A 
ATOM      8  C   UNL     1      -1.393  11.477  20.537  0.00  0.00    +0.000 A 
ATOM      9  C   UNL     1      -0.479  10.524  21.027  0.00  0.00    +0.000 A 
ATOM     10  N   UNL     1       0.247   9.712  20.213  0.00  0.00    +0.000 NA
ENDROOT
BRANCH   1  15
ATOM     11  C   UNL     1       2.664   5.725  19.186  0.00  0.00    +0.000 A 
ATOM     12  C   UNL     1       3.181   6.211  17.985  0.00  0.00    +0.000 A 
ATOM     13  C   UNL     1       2.992   7.558  17.673  0.00  0.00    +0.000 A 
ATOM     14  C   UNL     1       2.307   8.401  18.559  0.00  0.00    +0.000 A 
ATOM     15  C   UNL     1       1.775   7.921  19.771  0.00  0.00    +0.000 A 
ATOM     16  C   UNL     1       1.954   6.560  20.054  0.00  0.00    +0.000 A 
BRANCH  11  17
ATOM     17  S   UNL     1       2.911   4.046  19.680  0.00  0.00    +0.000 S 
ATOM     18  O   UNL     1       2.271   3.168  18.739  0.00  0.00    +0.000 OA
ATOM     19  O   UNL     1       2.700   3.956  21.105  0.00  0.00    +0.000 OA
BRANCH  17  20
ATOM     20  N   UNL     1       4.567   3.879  19.429  0.00  0.00    +0.000 NA
ATOM     21  H   UNL     1       4.854   2.911  19.566  0.00  0.00    +0.000 HD
ATOM     22  H   UNL     1       5.113   4.557  19.957  0.00  0.00    +0.000 HD
ENDBRANCH  17  20
ENDBRANCH  11  17
ENDBRANCH   1  15
BRANCH   8  23
ATOM     23  C   UNL     1      -1.609  11.655  19.102  0.00  0.00    +0.000 A 
ATOM     24  C   UNL     1      -2.473  10.993  18.196  0.00  0.00    +0.000 A 
ATOM     25  N   UNL     1      -2.360  11.444  16.943  0.00  0.00    +0.000 NA
ATOM     26  N   UNL     1      -1.433  12.410  17.041  0.00  0.00    +0.000 N 
ATOM     27  C   UNL     1      -0.946  12.569  18.307  0.00  0.00    +0.000 A 
ATOM     28  H   UNL     1      -1.177  12.919  16.201  0.00  0.00    +0.000 HD
ENDBRANCH   8  23
TORSDOF 4
ENDMDL
MODEL 7
REMARK VINA RESULT:      -7.6      1.961      2.422
REMARK  Name = 
REMARK  4 active torsions:
REMARK  status: ('A' for Active; 'I' for Inactive)
REMARK    1  A    between atoms: N_1  and  S_2
REMARK    2  A    between atoms: S_2  and  C_5
REMARK    3  A    between atoms: C_9  and  C_10
REMARK    4  A    between atoms: C_17  and  C_18
REMARK                            x       y       z     vdW  Elec       q    Type
REMARK                         _______ _______ _______ _____ _____    ______ ____
ROOT
ATOM      1  C   UNL     1       2.366   7.585  18.981  0.00  0.00    +0.000 A 
ATOM      2  C   UNL     1       3.064   8.078  17.894  0.00  0.00    +0.000 A 
ATOM      3  C   UNL     1       3.819   7.194  17.127  0.00  0.00    +0.000 A 
ATOM      4  C   UNL     1       3.884   5.848  17.437  0.00  0.00    +0.000 A 
ATOM      5  N   UNL     1       4.618   5.050  16.641  0.00  0.00    +0.000 NA
ATOM      6  C   UNL     1       4.672   3.744  16.949  0.00  0.00    +0.000 A 
ATOM      7  C   UNL     1       4.028   3.196  18.036  0.00  0.00    +0.000 A 
ATOM      8  C   UNL     1       3.271   4.036  18.867  0.00  0.00    +0.000 A 
ATOM      9  C   UNL     1       3.171   5.409  18.573  0.00  0.00    +0.000 A 
ATOM     10  N   UNL     1       2.437   6.273  19.324  0.00  0.00    +0.000 NA
ENDROOT
BRANCH   1  15
ATOM     11  C   UNL     1       0.132  10.428  20.103  0.00  0.00    +0.000 A 
ATOM     12  C   UNL     1      -0.137  10.107  21.433  0.00  0.00    +0.000 A 
ATOM     13  C   UNL     1       0.401   8.932  21.959  0.00  0.00    +0.000 A 
ATOM     14  C   UNL     1       1.204   8.103  21.164  0.00  0.00    +0.000 A 
ATOM     15  C   UNL     1       1.477   8.411  19.818  0.00  0.00    +0.000 A 
ATOM     16  C   UNL     1       0.908   9.583  19.301  0.00  0.00    +0.000 A 
BRANCH  11  17
ATOM     17  S   UNL     1      -0.464  11.927  19.380  0.00  0.00    +0.000 S 
ATOM     18  O   UNL     1      -1.792  11.720  18.870  0.00  0.00    +0.000 OA
ATOM     19  O   UNL     1       0.597  12.504  18.591  0.00  0.00    +0.000 OA
BRANCH  17  20
ATOM     20  N   UNL     1      -0.629  12.897  20.745  0.00  0.00    +0.000 NA
ATOM     21  H   UNL     1      -0.781  12.325  21.574  0.00  0.00    +0.000 HD
ATOM     22  H   UNL     1      -1.314  13.640  20.616  0.00  0.00    +0.000 HD
ENDBRANCH  17  20
ENDBRANCH  11  17
ENDBRANCH   1  15
BRANCH   8  23
ATOM     23  C   UNL     1       2.588   3.456  20.023  0.00  0.00    +0.000 A 
ATOM     24  C   UNL     1       1.215   3.403  20.369  0.00  0.00    +0.000 A 
ATOM     25  N   UNL     1       0.994   2.788  21.535  0.00  0.00    +0.000 NA
ATOM     26  N   UNL     1       2.224   2.428  21.936  0.00  0.00    +0.000 N 
ATOM     27  C   UNL     1       3.211   2.812  21.074  0.00  0.00    +0.000 A 
ATOM     28  H   UNL     1       2.317   1.925  22.813  0.00  0.00    +0.000 HD
ENDBRANCH   8  23
TORSDOF 4
ENDMDL
MODEL 8
REMARK VINA RESULT:      -7.4      1.517      3.771
REMARK  Name = 
REMARK  4 active torsions:
REMARK  status: ('A' for Active; 'I' for Inactive)
REMARK    1  A    between atoms: N_1  and  S_2
REMARK    2  A    between atoms: S_2  and  C_5
REMARK    3  A    between atoms: C_9  and  C_10
REMARK    4  A    between atoms: C_17  and  C_18
REMARK                            x       y       z     vdW  Elec       q    Type
REMARK                         _______ _______ _______ _____ _____    ______ ____
ROOT
ATOM      1  C   UNL     1       1.857   6.011  19.722  0.00  0.00    +0.000 A 
ATOM      2  C   UNL     1       1.213   5.058  20.490  0.00  0.00    +0.000 A 
ATOM      3  C   UNL     1       1.544   3.718  20.310  0.00  0.00    +0.000 A 
ATOM      4  C   UNL     1       2.492   3.330  19.382  0.00  0.00    +0.000 A 
ATOM      5  N   UNL     1       2.775   2.019  19.275  0.00  0.00    +0.000 NA
ATOM      6  C   UNL     1       3.700   1.653  18.374  0.00  0.00    +0.000 A 
ATOM      7  C   UNL     1       4.354   2.548  17.555  0.00  0.00    +0.000 A 
ATOM      8  C   UNL     1       4.047   3.913  17.665  0.00  0.00    +0.000 A 
ATOM      9  C   UNL     1       3.097   4.345  18.611  0.00  0.00    +0.000 A 
ATOM     10  N   UNL     1       2.770   5.653  18.783  0.00  0.00    +0.000 NA
ENDROOT
BRANCH   1  15
ATOM     11  C   UNL     1       0.918   9.344  21.251  0.00  0.00    +0.000 A 
ATOM     12  C   UNL     1       1.087  10.233  20.190  0.00  0.00    +0.000 A 
ATOM     13  C   UNL     1       1.538   9.735  18.967  0.00  0.00    +0.000 A 
ATOM     14  C   UNL     1       1.801   8.367  18.813  0.00  0.00    +0.000 A 
ATOM     15  C   UNL     1       1.642   7.461  19.878  0.00  0.00    +0.000 A 
ATOM     16  C   UNL     1       1.211   7.984  21.105  0.00  0.00    +0.000 A 
BRANCH  11  17
ATOM     17  S   UNL     1       0.295   9.886  22.814  0.00  0.00    +0.000 S 
ATOM     18  O   UNL     1      -0.250  11.210  22.683  0.00  0.00    +0.000 OA
ATOM     19  O   UNL     1       1.254   9.531  23.833  0.00  0.00    +0.000 OA
BRANCH  17  20
ATOM     20  N   UNL     1      -1.019   8.853  23.011  0.00  0.00    +0.000 NA
ATOM     21  H   UNL     1      -0.801   8.121  23.684  0.00  0.00    +0.000 HD
ATOM     22  H   UNL     1      -1.384   8.512  22.123  0.00  0.00    +0.000 HD
ENDBRANCH  17  20
ENDBRANCH  11  17
ENDBRANCH   1  15
BRANCH   8  23
ATOM     23  C   UNL     1       4.739   4.864  16.796  0.00  0.00    +0.000 A 
ATOM     24  C   UNL     1       5.192   4.751  15.458  0.00  0.00    +0.000 A 
ATOM     25  N   UNL     1       5.803   5.856  15.019  0.00  0.00    +0.000 NA
ATOM     26  N   UNL     1       5.731   6.690  16.069  0.00  0.00    +0.000 N 
ATOM     27  C   UNL     1       5.115   6.143  17.157  0.00  0.00    +0.000 A 
ATOM     28  H   UNL     1       6.128   7.620  15.973  0.00  0.00    +0.000 HD
ENDBRANCH   8  23
TORSDOF 4
ENDMDL
MODEL 9
REMARK VINA RESULT:      -7.3      1.920      2.356
REMARK  Name = 
REMARK  4 active torsions:
REMARK  status: ('A' for Active; 'I' for Inactive)
REMARK    1  A    between atoms: N_1  and  S_2
REMARK    2  A    between atoms: S_2  and  C_5
REMARK    3  A    between atoms: C_9  and  C_10
REMARK    4  A    between atoms: C_17  and  C_18
REMARK                            x       y       z     vdW  Elec       q    Type
REMARK                         _______ _______ _______ _____ _____    ______ ____
ROOT
ATOM      1  C   UNL     1       2.091   7.870  19.396  0.00  0.00    +0.000 A 
ATOM      2  C   UNL     1       2.677   8.465  18.293  0.00  0.00    +0.000 A 
ATOM      3  C   UNL     1       3.435   7.676  17.432  0.00  0.00    +0.000 A 
ATOM      4  C   UNL     1       3.612   6.325  17.663  0.00  0.00    +0.000 A 
ATOM      5  N   UNL     1       4.341   5.622  16.777  0.00  0.00    +0.000 NA
ATOM      6  C   UNL     1       4.504   4.309  17.009  0.00  0.00    +0.000 A 
ATOM      7  C   UNL     1       3.975   3.663  18.104  0.00  0.00    +0.000 A 
ATOM      8  C   UNL     1       3.223   4.404  19.028  0.00  0.00    +0.000 A 
ATOM      9  C   UNL     1       3.010   5.780  18.817  0.00  0.00    +0.000 A 
ATOM     10  N   UNL     1       2.274   6.551  19.660  0.00  0.00    +0.000 NA
ENDROOT
BRANCH   1  15
ATOM     11  C   UNL     1       0.320  10.693  21.191  0.00  0.00    +0.000 A 
ATOM     12  C   UNL     1      -0.378  10.032  22.202  0.00  0.00    +0.000 A 
ATOM     13  C   UNL     1      -0.284   8.642  22.278  0.00  0.00    +0.000 A 
ATOM     14  C   UNL     1       0.506   7.934  21.362  0.00  0.00    +0.000 A 
ATOM     15  C   UNL     1       1.209   8.588  20.333  0.00  0.00    +0.000 A 
ATOM     16  C   UNL     1       1.082   9.983  20.258  0.00  0.00    +0.000 A 
BRANCH  11  17
ATOM     17  S   UNL     1       0.299  12.456  21.062  0.00  0.00    +0.000 S 
ATOM     18  O   UNL     1      -0.151  13.025  22.303  0.00  0.00    +0.000 OA
ATOM     19  O   UNL     1      -0.271  12.812  19.785  0.00  0.00    +0.000 OA
BRANCH  17  20
ATOM     20  N   UNL     1       1.946  12.788  20.962  0.00  0.00    +0.000 NA
ATOM     21  H   UNL     1       2.259  12.760  19.993  0.00  0.00    +0.000 HD
ATOM     22  H   UNL     1       2.500  12.217  21.599  0.00  0.00    +0.000 HD
ENDBRANCH  17  20
ENDBRANCH  11  17
ENDBRANCH   1  15
BRANCH   8  23
ATOM     23  C   UNL     1       2.662   3.720  20.192  0.00  0.00    +0.000 A 
ATOM     24  C   UNL     1       1.399   3.832  20.826  0.00  0.00    +0.000 A 
ATOM     25  N   UNL     1       1.276   3.032  21.890  0.00  0.00    +0.000 NA
ATOM     26  N   UNL     1       2.455   2.391  21.935  0.00  0.00    +0.000 N 
ATOM     27  C   UNL     1       3.320   2.772  20.951  0.00  0.00    +0.000 A 
ATOM     28  H   UNL     1       2.602   1.706  22.670  0.00  0.00    +0.000 HD
ENDBRANCH   8  23
TORSDOF 4
ENDMDL
