MODEL 1
REMARK VINA RESULT:      -9.0      0.000      0.000
REMARK  Name = 
REMARK  3 active torsions:
REMARK  status: ('A' for Active; 'I' for Inactive)
REMARK    1  A    between atoms: C_1  and  C_2
REMARK    2  A    between atoms: C_2  and  C_3
REMARK    3  A    between atoms: C_8  and  C_9
REMARK                            x       y       z     vdW  Elec       q    Type
REMARK                         _______ _______ _______ _____ _____    ______ ____
ROOT
ATOM      1  C   UNL     1       4.791   3.471  16.878  0.00  0.00    +0.000 C 
ATOM      2  C   UNL     1       4.220   4.371  17.997  0.00  0.00    +0.000 C 
ATOM      3  C   UNL     1       5.330   4.448  19.055  0.00  0.00    +0.000 C 
ATOM      4  O   UNL     1       4.072   5.683  17.428  0.00  0.00    +0.000 OA
ATOM      5  C   UNL     1       3.171   6.543  18.000  0.00  0.00    +0.000 A 
ATOM      6  C   UNL     1       3.299   7.851  17.552  0.00  0.00    +0.000 A 
ATOM      7  C   UNL     1       2.500   8.853  18.090  0.00  0.00    +0.000 A 
ATOM      8  C   UNL     1       1.473   8.570  19.007  0.00  0.00    +0.000 A 
ATOM      9  C   UNL     1       1.329   7.221  19.417  0.00  0.00    +0.000 A 
ATOM     10  C   UNL     1       2.202   6.208  18.964  0.00  0.00    +0.000 A 
ATOM     11  C   UNL     1       2.268   4.838  19.618  0.00  0.00    +0.000 C 
ATOM     12  C   UNL     1       3.022   5.027  20.938  0.00  0.00    +0.000 C 
ATOM     13  O   UNL     1       2.765   3.838  21.639  0.00  0.00    +0.000 OA
ATOM     14  C   UNL     1       1.514   3.548  21.198  0.00  0.00    +0.000 C 
ATOM     15  N   UNL     1       0.972   2.555  21.931  0.00  0.00    +0.000 N 
ATOM     16  N   UNL     1       1.048   4.185  20.163  0.00  0.00    +0.000 NA
ATOM     17  C   UNL     1       2.850   3.881  18.532  0.00  0.00    +0.000 C 
ATOM     18  C   UNL     1       2.622   2.331  18.623  0.00  0.00    +0.000 C 
ATOM     19  O   UNL     1       2.156   2.294  17.245  0.00  0.00    +0.000 OA
ATOM     20  C   UNL     1       1.828   3.708  17.340  0.00  0.00    +0.000 C 
ATOM     21  H   UNL     1       1.674   2.047  22.466  0.00  0.00    +0.000 HD
ATOM     22  H   UNL     1       0.384   1.932  21.386  0.00  0.00    +0.000 HD
ENDROOT
BRANCH   8  23
ATOM     23  C   UNL     1       0.655   9.669  19.576  0.00  0.00    +0.000 A 
ATOM     24  C   UNL     1       0.069  10.665  18.761  0.00  0.00    +0.000 A 
ATOM     25  C   UNL     1      -0.764  11.662  19.271  0.00  0.00    +0.000 A 
ATOM     26  C   UNL     1      -1.070  11.706  20.630  0.00  0.00    +0.000 A 
ATOM     27  C   UNL     1      -0.507  10.747  21.489  0.00  0.00    +0.000 A 
ATOM     28  C   UNL     1      -0.623  10.512  22.889  0.00  0.00    +0.000 A 
ATOM     29  C   UNL     1       0.165   9.431  23.197  0.00  0.00    +0.000 A 
ATOM     30  N   UNL     1       0.773   9.021  22.042  0.00  0.00    +0.000 N 
ATOM     31  C   UNL     1       0.347   9.770  20.960  0.00  0.00    +0.000 A 
ATOM     32  H   UNL     1       1.440   8.265  21.985  0.00  0.00    +0.000 HD
ENDBRANCH   8  23
TORSDOF 1
ENDMDL
MODEL 2
REMARK VINA RESULT:      -8.9      1.100      1.958
REMARK  Name = 
REMARK  3 active torsions:
REMARK  status: ('A' for Active; 'I' for Inactive)
REMARK    1  A    between atoms: C_1  and  C_2
REMARK    2  A    between atoms: C_2  and  C_3
REMARK    3  A    between atoms: C_8  and  C_9
REMARK                            x       y       z     vdW  Elec       q    Type
REMARK                         _______ _______ _______ _____ _____    ______ ____
ROOT
ATOM      1  C   UNL     1       4.799   3.640  16.807  0.00  0.00    +0.000 C 
ATOM      2  C   UNL     1       4.221   4.514  17.942  0.00  0.00    +0.000 C 
ATOM      3  C   UNL     1       5.336   4.594  18.995  0.00  0.00    +0.000 C 
ATOM      4  O   UNL     1       4.049   5.832  17.393  0.00  0.00    +0.000 OA
ATOM      5  C   UNL     1       3.138   6.669  17.983  0.00  0.00    +0.000 A 
ATOM      6  C   UNL     1       3.242   7.985  17.554  0.00  0.00    +0.000 A 
ATOM      7  C   UNL     1       2.430   8.966  18.111  0.00  0.00    +0.000 A 
ATOM      8  C   UNL     1       1.413   8.653  19.030  0.00  0.00    +0.000 A 
ATOM      9  C   UNL     1       1.293   7.297  19.420  0.00  0.00    +0.000 A 
ATOM     10  C   UNL     1       2.180   6.304  18.948  0.00  0.00    +0.000 A 
ATOM     11  C   UNL     1       2.271   4.927  19.581  0.00  0.00    +0.000 C 
ATOM     12  C   UNL     1       3.031   5.109  20.899  0.00  0.00    +0.000 C 
ATOM     13  O   UNL     1       2.797   3.906  21.584  0.00  0.00    +0.000 OA
ATOM     14  C   UNL     1       1.549   3.602  21.147  0.00  0.00    +0.000 C 
ATOM     15  N   UNL     1       1.027   2.589  21.868  0.00  0.00    +0.000 N 
ATOM     16  N   UNL     1       1.066   4.245  20.124  0.00  0.00    +0.000 NA
ATOM     17  C   UNL     1       2.862   3.995  18.478  0.00  0.00    +0.000 C 
ATOM     18  C   UNL     1       2.660   2.440  18.548  0.00  0.00    +0.000 C 
ATOM     19  O   UNL     1       2.186   2.415  17.172  0.00  0.00    +0.000 OA
ATOM     20  C   UNL     1       1.836   3.822  17.290  0.00  0.00    +0.000 C 
ATOM     21  H   UNL     1       1.741   2.086  22.392  0.00  0.00    +0.000 HD
ATOM     22  H   UNL     1       0.445   1.965  21.318  0.00  0.00    +0.000 HD
ENDROOT
BRANCH   8  23
ATOM     23  C   UNL     1       0.581   9.730  19.619  0.00  0.00    +0.000 A 
ATOM     24  C   UNL     1       0.813  10.228  20.922  0.00  0.00    +0.000 A 
ATOM     25  C   UNL     1       0.088  11.290  21.464  0.00  0.00    +0.000 A 
ATOM     26  C   UNL     1      -0.904  11.926  20.718  0.00  0.00    +0.000 A 
ATOM     27  C   UNL     1      -1.185  11.466  19.421  0.00  0.00    +0.000 A 
ATOM     28  C   UNL     1      -2.105  11.892  18.420  0.00  0.00    +0.000 A 
ATOM     29  C   UNL     1      -1.953  11.063  17.336  0.00  0.00    +0.000 A 
ATOM     30  N   UNL     1      -0.997  10.138  17.654  0.00  0.00    +0.000 N 
ATOM     31  C   UNL     1      -0.462  10.382  18.907  0.00  0.00    +0.000 A 
ATOM     32  H   UNL     1      -0.713   9.379  17.052  0.00  0.00    +0.000 HD
ENDBRANCH   8  23
TORSDOF 1
ENDMDL
MODEL 3
REMARK VINA RESULT:      -8.7      1.009      1.860
REMARK  Name = 
REMARK  3 active torsions:
REMARK  status: ('A' for Active; 'I' for Inactive)
REMARK    1  A    between atoms: C_1  and  C_2
REMARK    2  A    between atoms: C_2  and  C_3
REMARK    3  A    between atoms: C_8  and  C_9
REMARK                            x       y       z     vdW  Elec       q    Type
REMARK                         _______ _______ _______ _____ _____    ______ ____
ROOT
ATOM      1  C   UNL     1       4.336   3.636  16.912  0.00  0.00    +0.000 C 
ATOM      2  C   UNL     1       3.881   4.365  18.195  0.00  0.00    +0.000 C 
ATOM      3  C   UNL     1       5.112   4.370  19.113  0.00  0.00    +0.000 C 
ATOM      4  O   UNL     1       3.617   5.728  17.818  0.00  0.00    +0.000 OA
ATOM      5  C   UNL     1       2.767   6.466  18.599  0.00  0.00    +0.000 A 
ATOM      6  C   UNL     1       2.792   7.823  18.307  0.00  0.00    +0.000 A 
ATOM      7  C   UNL     1       2.034   8.712  19.059  0.00  0.00    +0.000 A 
ATOM      8  C   UNL     1       1.141   8.270  20.052  0.00  0.00    +0.000 A 
ATOM      9  C   UNL     1       1.097   6.877  20.303  0.00  0.00    +0.000 A 
ATOM     10  C   UNL     1       1.940   5.970  19.624  0.00  0.00    +0.000 A 
ATOM     11  C   UNL     1       2.134   4.536  20.087  0.00  0.00    +0.000 C 
ATOM     12  C   UNL     1       3.043   4.602  21.319  0.00  0.00    +0.000 C 
ATOM     13  O   UNL     1       2.918   3.326  21.891  0.00  0.00    +0.000 OA
ATOM     14  C   UNL     1       1.632   3.029  21.572  0.00  0.00    +0.000 C 
ATOM     15  N   UNL     1       1.221   1.929  22.235  0.00  0.00    +0.000 N 
ATOM     16  N   UNL     1       1.017   3.762  20.690  0.00  0.00    +0.000 NA
ATOM     17  C   UNL     1       2.607   3.747  18.828  0.00  0.00    +0.000 C 
ATOM     18  C   UNL     1       2.446   2.187  18.749  0.00  0.00    +0.000 C 
ATOM     19  O   UNL     1       1.811   2.293  17.445  0.00  0.00    +0.000 OA
ATOM     20  C   UNL     1       1.449   3.668  17.756  0.00  0.00    +0.000 C 
ATOM     21  H   UNL     1       2.003   1.397  22.613  0.00  0.00    +0.000 HD
ATOM     22  H   UNL     1       0.590   1.348  21.692  0.00  0.00    +0.000 HD
ENDROOT
BRANCH   8  23
ATOM     23  C   UNL     1       0.364   9.250  20.849  0.00  0.00    +0.000 A 
ATOM     24  C   UNL     1       0.291   9.178  22.259  0.00  0.00    +0.000 A 
ATOM     25  C   UNL     1      -0.373  10.134  23.029  0.00  0.00    +0.000 A 
ATOM     26  C   UNL     1      -0.990  11.229  22.425  0.00  0.00    +0.000 A 
ATOM     27  C   UNL     1      -0.958  11.345  21.026  0.00  0.00    +0.000 A 
ATOM     28  C   UNL     1      -1.468  12.322  20.123  0.00  0.00    +0.000 A 
ATOM     29  C   UNL     1      -1.151  11.918  18.850  0.00  0.00    +0.000 A 
ATOM     30  N   UNL     1      -0.493  10.723  18.948  0.00  0.00    +0.000 N 
ATOM     31  C   UNL     1      -0.308  10.361  20.271  0.00  0.00    +0.000 A 
ATOM     32  H   UNL     1      -0.176  10.178  18.159  0.00  0.00    +0.000 HD
ENDBRANCH   8  23
TORSDOF 1
ENDMDL
MODEL 4
REMARK VINA RESULT:      -8.1      1.201      1.930
REMARK  Name = 
REMARK  3 active torsions:
REMARK  status: ('A' for Active; 'I' for Inactive)
REMARK    1  A    between atoms: C_1  and  C_2
REMARK    2  A    between atoms: C_2  and  C_3
REMARK    3  A    between atoms: C_8  and  C_9
REMARK                            x       y       z     vdW  Elec       q    Type
REMARK                         _______ _______ _______ _____ _____    ______ ____
ROOT
ATOM      1  C   UNL     1       4.616   3.358  16.735  0.00  0.00    +0.000 C 
ATOM      2  C   UNL     1       4.145   4.275  17.886  0.00  0.00    +0.000 C 
ATOM      3  C   UNL     1       5.308   4.290  18.889  0.00  0.00    +0.000 C 
ATOM      4  O   UNL     1       4.033   5.598  17.333  0.00  0.00    +0.000 OA
ATOM      5  C   UNL     1       3.204   6.494  17.954  0.00  0.00    +0.000 A 
ATOM      6  C   UNL     1       3.372   7.799  17.509  0.00  0.00    +0.000 A 
ATOM      7  C   UNL     1       2.650   8.833  18.092  0.00  0.00    +0.000 A 
ATOM      8  C   UNL     1       1.656   8.591  19.057  0.00  0.00    +0.000 A 
ATOM      9  C   UNL     1       1.468   7.248  19.465  0.00  0.00    +0.000 A 
ATOM     10  C   UNL     1       2.268   6.198  18.963  0.00  0.00    +0.000 A 
ATOM     11  C   UNL     1       2.300   4.821  19.605  0.00  0.00    +0.000 C 
ATOM     12  C   UNL     1       3.127   4.963  20.887  0.00  0.00    +0.000 C 
ATOM     13  O   UNL     1       2.847   3.781  21.592  0.00  0.00    +0.000 OA
ATOM     14  C   UNL     1       1.564   3.555  21.212  0.00  0.00    +0.000 C 
ATOM     15  N   UNL     1       1.011   2.583  21.965  0.00  0.00    +0.000 N 
ATOM     16  N   UNL     1       1.078   4.222  20.205  0.00  0.00    +0.000 NA
ATOM     17  C   UNL     1       2.781   3.847  18.486  0.00  0.00    +0.000 C 
ATOM     18  C   UNL     1       2.483   2.308  18.578  0.00  0.00    +0.000 C 
ATOM     19  O   UNL     1       1.949   2.305  17.225  0.00  0.00    +0.000 OA
ATOM     20  C   UNL     1       1.694   3.732  17.345  0.00  0.00    +0.000 C 
ATOM     21  H   UNL     1       1.714   2.038  22.462  0.00  0.00    +0.000 HD
ATOM     22  H   UNL     1       0.368   1.993  21.447  0.00  0.00    +0.000 HD
ENDROOT
BRANCH   8  23
ATOM     23  C   UNL     1       0.921   9.723  19.672  0.00  0.00    +0.000 A 
ATOM     24  C   UNL     1       0.025   9.537  20.750  0.00  0.00    +0.000 A 
ATOM     25  C   UNL     1      -0.618  10.598  21.388  0.00  0.00    +0.000 A 
ATOM     26  C   UNL     1      -0.384  11.913  20.989  0.00  0.00    +0.000 A 
ATOM     27  C   UNL     1       0.489  12.157  19.916  0.00  0.00    +0.000 A 
ATOM     28  C   UNL     1       0.939  13.352  19.285  0.00  0.00    +0.000 A 
ATOM     29  C   UNL     1       1.788  12.992  18.268  0.00  0.00    +0.000 A 
ATOM     30  N   UNL     1       1.846  11.626  18.244  0.00  0.00    +0.000 N 
ATOM     31  C   UNL     1       1.103  11.075  19.273  0.00  0.00    +0.000 A 
ATOM     32  H   UNL     1       2.369  11.088  17.568  0.00  0.00    +0.000 HD
ENDBRANCH   8  23
TORSDOF 1
ENDMDL
MODEL 5
REMARK VINA RESULT:      -7.8      2.609      7.146
REMARK  Name = 
REMARK  3 active torsions:
REMARK  status: ('A' for Active; 'I' for Inactive)
REMARK    1  A    between atoms: C_1  and  C_2
REMARK    2  A    between atoms: C_2  and  C_3
REMARK    3  A    between atoms: C_8  and  C_9
REMARK                            x       y       z     vdW  Elec       q    Type
REMARK                         _______ _______ _______ _____ _____    ______ ____
ROOT
ATOM      1  C   UNL     1      -0.401  12.729  18.822  0.00  0.00    +0.000 C 
ATOM      2  C   UNL     1      -0.250  11.249  19.240  0.00  0.00    +0.000 C 
ATOM      3  C   UNL     1      -1.672  10.672  19.195  0.00  0.00    +0.000 C 
ATOM      4  O   UNL     1       0.510  10.608  18.201  0.00  0.00    +0.000 OA
ATOM      5  C   UNL     1       1.195   9.461  18.510  0.00  0.00    +0.000 A 
ATOM      6  C   UNL     1       1.667   8.785  17.392  0.00  0.00    +0.000 A 
ATOM      7  C   UNL     1       2.324   7.569  17.539  0.00  0.00    +0.000 A 
ATOM      8  C   UNL     1       2.633   7.042  18.805  0.00  0.00    +0.000 A 
ATOM      9  C   UNL     1       2.183   7.771  19.933  0.00  0.00    +0.000 A 
ATOM     10  C   UNL     1       1.419   8.951  19.802  0.00  0.00    +0.000 A 
ATOM     11  C   UNL     1       0.669   9.569  20.969  0.00  0.00    +0.000 C 
ATOM     12  C   UNL     1      -0.563   8.688  21.204  0.00  0.00    +0.000 C 
ATOM     13  O   UNL     1      -1.022   9.093  22.468  0.00  0.00    +0.000 OA
ATOM     14  C   UNL     1       0.149   9.412  23.075  0.00  0.00    +0.000 C 
ATOM     15  N   UNL     1      -0.039   9.607  24.396  0.00  0.00    +0.000 N 
ATOM     16  N   UNL     1       1.223   9.531  22.349  0.00  0.00    +0.000 NA
ATOM     17  C   UNL     1       0.477  11.072  20.598  0.00  0.00    +0.000 C 
ATOM     18  C   UNL     1       0.202  12.145  21.710  0.00  0.00    +0.000 C 
ATOM     19  O   UNL     1       1.266  12.992  21.192  0.00  0.00    +0.000 OA
ATOM     20  C   UNL     1       1.869  11.819  20.575  0.00  0.00    +0.000 C 
ATOM     21  H   UNL     1      -1.022   9.747  24.625  0.00  0.00    +0.000 HD
ATOM     22  H   UNL     1       0.550  10.339  24.780  0.00  0.00    +0.000 HD
ENDROOT
BRANCH   8  23
ATOM     23  C   UNL     1       3.316   5.730  18.922  0.00  0.00    +0.000 A 
ATOM     24  C   UNL     1       4.667   5.555  18.545  0.00  0.00    +0.000 A 
ATOM     25  C   UNL     1       5.347   4.348  18.717  0.00  0.00    +0.000 A 
ATOM     26  C   UNL     1       4.710   3.250  19.294  0.00  0.00    +0.000 A 
ATOM     27  C   UNL     1       3.363   3.365  19.678  0.00  0.00    +0.000 A 
ATOM     28  C   UNL     1       2.449   2.460  20.290  0.00  0.00    +0.000 A 
ATOM     29  C   UNL     1       1.248   3.110  20.425  0.00  0.00    +0.000 A 
ATOM     30  N   UNL     1       1.394   4.362  19.896  0.00  0.00    +0.000 N 
ATOM     31  C   UNL     1       2.694   4.578  19.473  0.00  0.00    +0.000 A 
ATOM     32  H   UNL     1       0.652   5.045  19.828  0.00  0.00    +0.000 HD
ENDBRANCH   8  23
TORSDOF 1
ENDMDL
MODEL 6
REMARK VINA RESULT:      -7.8      1.039      1.252
REMARK  Name = 
REMARK  3 active torsions:
REMARK  status: ('A' for Active; 'I' for Inactive)
REMARK    1  A    between atoms: C_1  and  C_2
REMARK    2  A    between atoms: C_2  and  C_3
REMARK    3  A    between atoms: C_8  and  C_9
REMARK                            x       y       z     vdW  Elec       q    Type
REMARK                         _______ _______ _______ _____ _____    ______ ____
ROOT
ATOM      1  C   UNL     1       5.792   4.117  17.389  0.00  0.00    +0.000 C 
ATOM      2  C   UNL     1       4.803   4.942  18.241  0.00  0.00    +0.000 C 
ATOM      3  C   UNL     1       5.542   5.220  19.558  0.00  0.00    +0.000 C 
ATOM      4  O   UNL     1       4.633   6.200  17.565  0.00  0.00    +0.000 OA
ATOM      5  C   UNL     1       3.491   6.919  17.805  0.00  0.00    +0.000 A 
ATOM      6  C   UNL     1       3.549   8.219  17.322  0.00  0.00    +0.000 A 
ATOM      7  C   UNL     1       2.493   9.094  17.548  0.00  0.00    +0.000 A 
ATOM      8  C   UNL     1       1.300   8.673  18.162  0.00  0.00    +0.000 A 
ATOM      9  C   UNL     1       1.244   7.330  18.606  0.00  0.00    +0.000 A 
ATOM     10  C   UNL     1       2.348   6.457  18.483  0.00  0.00    +0.000 A 
ATOM     11  C   UNL     1       2.423   5.132  19.222  0.00  0.00    +0.000 C 
ATOM     12  C   UNL     1       2.735   5.470  20.683  0.00  0.00    +0.000 C 
ATOM     13  O   UNL     1       2.465   4.273  21.364  0.00  0.00    +0.000 OA
ATOM     14  C   UNL     1       1.448   3.777  20.615  0.00  0.00    +0.000 C 
ATOM     15  N   UNL     1       0.870   2.728  21.235  0.00  0.00    +0.000 N 
ATOM     16  N   UNL     1       1.208   4.306  19.450  0.00  0.00    +0.000 NA
ATOM     17  C   UNL     1       3.423   4.253  18.408  0.00  0.00    +0.000 C 
ATOM     18  C   UNL     1       3.408   2.689  18.537  0.00  0.00    +0.000 C 
ATOM     19  O   UNL     1       3.363   2.545  17.090  0.00  0.00    +0.000 OA
ATOM     20  C   UNL     1       2.819   3.891  16.994  0.00  0.00    +0.000 C 
ATOM     21  H   UNL     1       1.458   2.352  21.977  0.00  0.00    +0.000 HD
ATOM     22  H   UNL     1       0.559   2.006  20.592  0.00  0.00    +0.000 HD
ENDROOT
BRANCH   8  23
ATOM     23  C   UNL     1       0.203   9.641  18.405  0.00  0.00    +0.000 A 
ATOM     24  C   UNL     1      -0.833   9.850  17.466  0.00  0.00    +0.000 A 
ATOM     25  C   UNL     1      -1.912  10.702  17.710  0.00  0.00    +0.000 A 
ATOM     26  C   UNL     1      -2.020  11.381  18.922  0.00  0.00    +0.000 A 
ATOM     27  C   UNL     1      -1.013  11.219  19.889  0.00  0.00    +0.000 A 
ATOM     28  C   UNL     1      -0.834  11.748  21.199  0.00  0.00    +0.000 A 
ATOM     29  C   UNL     1       0.350  11.254  21.689  0.00  0.00    +0.000 A 
ATOM     30  N   UNL     1       0.904  10.470  20.715  0.00  0.00    +0.000 N 
ATOM     31  C   UNL     1       0.073  10.380  19.612  0.00  0.00    +0.000 A 
ATOM     32  H   UNL     1       1.800  10.010  20.792  0.00  0.00    +0.000 HD
ENDBRANCH   8  23
TORSDOF 1
ENDMDL
MODEL 7
REMARK VINA RESULT:      -7.7      4.072      8.728
REMARK  Name = 
REMARK  3 active torsions:
REMARK  status: ('A' for Active; 'I' for Inactive)
REMARK    1  A    between atoms: C_1  and  C_2
REMARK    2  A    between atoms: C_2  and  C_3
REMARK    3  A    between atoms: C_8  and  C_9
REMARK                            x       y       z     vdW  Elec       q    Type
REMARK                         _______ _______ _______ _____ _____    ______ ____
ROOT
ATOM      1  C   UNL     1      -3.289  13.025  23.470  0.00  0.00    +0.000 C 
ATOM      2  C   UNL     1      -1.980  12.727  22.707  0.00  0.00    +0.000 C 
ATOM      3  C   UNL     1      -0.890  13.501  23.463  0.00  0.00    +0.000 C 
ATOM      4  O   UNL     1      -1.716  11.324  22.882  0.00  0.00    +0.000 OA
ATOM      5  C   UNL     1      -0.926  10.691  21.958  0.00  0.00    +0.000 A 
ATOM      6  C   UNL     1      -0.518   9.426  22.360  0.00  0.00    +0.000 A 
ATOM      7  C   UNL     1       0.343   8.684  21.560  0.00  0.00    +0.000 A 
ATOM      8  C   UNL     1       0.737   9.128  20.285  0.00  0.00    +0.000 A 
ATOM      9  C   UNL     1       0.273  10.402  19.875  0.00  0.00    +0.000 A 
ATOM     10  C   UNL     1      -0.513  11.216  20.719  0.00  0.00    +0.000 A 
ATOM     11  C   UNL     1      -0.757  12.688  20.435  0.00  0.00    +0.000 C 
ATOM     12  C   UNL     1       0.544  13.416  20.790  0.00  0.00    +0.000 C 
ATOM     13  O   UNL     1       0.385  14.682  20.206  0.00  0.00    +0.000 OA
ATOM     14  C   UNL     1      -0.355  14.367  19.112  0.00  0.00    +0.000 C 
ATOM     15  N   UNL     1      -0.428  15.418  18.270  0.00  0.00    +0.000 N 
ATOM     16  N   UNL     1      -0.907  13.190  19.043  0.00  0.00    +0.000 NA
ATOM     17  C   UNL     1      -2.070  13.052  21.193  0.00  0.00    +0.000 C 
ATOM     18  C   UNL     1      -2.921  14.303  20.773  0.00  0.00    +0.000 C 
ATOM     19  O   UNL     1      -4.130  13.496  20.725  0.00  0.00    +0.000 OA
ATOM     20  C   UNL     1      -3.307  12.309  20.548  0.00  0.00    +0.000 C 
ATOM     21  H   UNL     1      -0.163  16.290  18.724  0.00  0.00    +0.000 HD
ATOM     22  H   UNL     1      -1.324  15.490  17.798  0.00  0.00    +0.000 HD
ENDROOT
BRANCH   8  23
ATOM     23  C   UNL     1       1.675   8.319  19.468  0.00  0.00    +0.000 A 
ATOM     24  C   UNL     1       2.285   8.832  18.301  0.00  0.00    +0.000 A 
ATOM     25  C   UNL     1       3.226   8.111  17.563  0.00  0.00    +0.000 A 
ATOM     26  C   UNL     1       3.620   6.836  17.967  0.00  0.00    +0.000 A 
ATOM     27  C   UNL     1       3.037   6.272  19.115  0.00  0.00    +0.000 A 
ATOM     28  C   UNL     1       3.222   5.028  19.784  0.00  0.00    +0.000 A 
ATOM     29  C   UNL     1       2.371   5.005  20.861  0.00  0.00    +0.000 A 
ATOM     30  N   UNL     1       1.661   6.173  20.852  0.00  0.00    +0.000 N 
ATOM     31  C   UNL     1       2.077   7.003  19.825  0.00  0.00    +0.000 A 
ATOM     32  H   UNL     1       0.933   6.405  21.512  0.00  0.00    +0.000 HD
ENDBRANCH   8  23
TORSDOF 1
ENDMDL
MODEL 8
REMARK VINA RESULT:      -7.6      6.703     10.513
REMARK  Name = 
REMARK  3 active torsions:
REMARK  status: ('A' for Active; 'I' for Inactive)
REMARK    1  A    between atoms: C_1  and  C_2
REMARK    2  A    between atoms: C_2  and  C_3
REMARK    3  A    between atoms: C_8  and  C_9
REMARK                            x       y       z     vdW  Elec       q    Type
REMARK                         _______ _______ _______ _____ _____    ______ ____
ROOT
ATOM      1  C   UNL     1      -2.233  17.686  23.866  0.00  0.00    +0.000 C 
ATOM      2  C   UNL     1      -2.665  16.481  23.002  0.00  0.00    +0.000 C 
ATOM      3  C   UNL     1      -4.028  16.876  22.414  0.00  0.00    +0.000 C 
ATOM      4  O   UNL     1      -1.730  16.403  21.912  0.00  0.00    +0.000 OA
ATOM      5  C   UNL     1      -1.567  15.199  21.279  0.00  0.00    +0.000 A 
ATOM      6  C   UNL     1      -0.856  15.295  20.090  0.00  0.00    +0.000 A 
ATOM      7  C   UNL     1      -0.666  14.169  19.298  0.00  0.00    +0.000 A 
ATOM      8  C   UNL     1      -1.077  12.891  19.716  0.00  0.00    +0.000 A 
ATOM      9  C   UNL     1      -1.760  12.808  20.955  0.00  0.00    +0.000 A 
ATOM     10  C   UNL     1      -2.058  13.956  21.720  0.00  0.00    +0.000 A 
ATOM     11  C   UNL     1      -3.046  13.931  22.874  0.00  0.00    +0.000 C 
ATOM     12  C   UNL     1      -4.442  13.875  22.244  0.00  0.00    +0.000 C 
ATOM     13  O   UNL     1      -5.275  13.521  23.317  0.00  0.00    +0.000 OA
ATOM     14  C   UNL     1      -4.438  12.735  24.041  0.00  0.00    +0.000 C 
ATOM     15  N   UNL     1      -5.115  12.088  25.011  0.00  0.00    +0.000 N 
ATOM     16  N   UNL     1      -3.167  12.744  23.761  0.00  0.00    +0.000 NA
ATOM     17  C   UNL     1      -2.663  15.140  23.782  0.00  0.00    +0.000 C 
ATOM     18  C   UNL     1      -3.098  15.182  25.290  0.00  0.00    +0.000 C 
ATOM     19  O   UNL     1      -1.735  15.484  25.700  0.00  0.00    +0.000 OA
ATOM     20  C   UNL     1      -1.254  14.903  24.456  0.00  0.00    +0.000 C 
ATOM     21  H   UNL     1      -6.027  12.507  25.184  0.00  0.00    +0.000 HD
ATOM     22  H   UNL     1      -4.579  11.975  25.865  0.00  0.00    +0.000 HD
ENDROOT
BRANCH   8  23
ATOM     23  C   UNL     1      -0.876  11.715  18.834  0.00  0.00    +0.000 A 
ATOM     24  C   UNL     1       0.275  10.899  18.925  0.00  0.00    +0.000 A 
ATOM     25  C   UNL     1       0.445   9.748  18.155  0.00  0.00    +0.000 A 
ATOM     26  C   UNL     1      -0.541   9.341  17.259  0.00  0.00    +0.000 A 
ATOM     27  C   UNL     1      -1.702  10.120  17.119  0.00  0.00    +0.000 A 
ATOM     28  C   UNL     1      -2.874   9.979  16.321  0.00  0.00    +0.000 A 
ATOM     29  C   UNL     1      -3.688  11.053  16.584  0.00  0.00    +0.000 A 
ATOM     30  N   UNL     1      -3.042  11.849  17.489  0.00  0.00    +0.000 N 
ATOM     31  C   UNL     1      -1.841  11.285  17.884  0.00  0.00    +0.000 A 
ATOM     32  H   UNL     1      -3.397  12.730  17.832  0.00  0.00    +0.000 HD
ENDBRANCH   8  23
TORSDOF 1
ENDMDL
MODEL 9
REMARK VINA RESULT:      -7.6      3.181      7.565
REMARK  Name = 
REMARK  3 active torsions:
REMARK  status: ('A' for Active; 'I' for Inactive)
REMARK    1  A    between atoms: C_1  and  C_2
REMARK    2  A    between atoms: C_2  and  C_3
REMARK    3  A    between atoms: C_8  and  C_9
REMARK                            x       y       z     vdW  Elec       q    Type
REMARK                         _______ _______ _______ _____ _____    ______ ____
ROOT
ATOM      1  C   UNL     1       1.451  13.821  18.350  0.00  0.00    +0.000 C 
ATOM      2  C   UNL     1       0.906  12.435  18.759  0.00  0.00    +0.000 C 
ATOM      3  C   UNL     1      -0.487  12.346  18.118  0.00  0.00    +0.000 C 
ATOM      4  O   UNL     1       1.743  11.461  18.113  0.00  0.00    +0.000 OA
ATOM      5  C   UNL     1       1.811  10.202  18.651  0.00  0.00    +0.000 A 
ATOM      6  C   UNL     1       2.422   9.279  17.813  0.00  0.00    +0.000 A 
ATOM      7  C   UNL     1       2.506   7.944  18.190  0.00  0.00    +0.000 A 
ATOM      8  C   UNL     1       2.088   7.504  19.458  0.00  0.00    +0.000 A 
ATOM      9  C   UNL     1       1.509   8.471  20.316  0.00  0.00    +0.000 A 
ATOM     10  C   UNL     1       1.316   9.809  19.908  0.00  0.00    +0.000 A 
ATOM     11  C   UNL     1       0.428  10.774  20.675  0.00  0.00    +0.000 C 
ATOM     12  C   UNL     1      -1.017  10.372  20.361  0.00  0.00    +0.000 C 
ATOM     13  O   UNL     1      -1.768  11.055  21.330  0.00  0.00    +0.000 OA
ATOM     14  C   UNL     1      -0.901  11.051  22.374  0.00  0.00    +0.000 C 
ATOM     15  N   UNL     1      -1.516  11.457  23.503  0.00  0.00    +0.000 N 
ATOM     16  N   UNL     1       0.342  10.729  22.159  0.00  0.00    +0.000 NA
ATOM     17  C   UNL     1       0.927  12.201  20.292  0.00  0.00    +0.000 C 
ATOM     18  C   UNL     1       0.623  13.434  21.215  0.00  0.00    +0.000 C 
ATOM     19  O   UNL     1       2.025  13.823  21.201  0.00  0.00    +0.000 OA
ATOM     20  C   UNL     1       2.379  12.453  20.862  0.00  0.00    +0.000 C 
ATOM     21  H   UNL     1      -2.395  11.933  23.309  0.00  0.00    +0.000 HD
ATOM     22  H   UNL     1      -0.914  12.002  24.112  0.00  0.00    +0.000 HD
ENDROOT
BRANCH   8  23
ATOM     23  C   UNL     1       2.174   6.067  19.817  0.00  0.00    +0.000 A 
ATOM     24  C   UNL     1       1.077   5.367  20.370  0.00  0.00    +0.000 A 
ATOM     25  C   UNL     1       1.117   3.999  20.644  0.00  0.00    +0.000 A 
ATOM     26  C   UNL     1       2.259   3.252  20.362  0.00  0.00    +0.000 A 
ATOM     27  C   UNL     1       3.383   3.898  19.821  0.00  0.00    +0.000 A 
ATOM     28  C   UNL     1       4.668   3.433  19.419  0.00  0.00    +0.000 A 
ATOM     29  C   UNL     1       5.380   4.516  18.967  0.00  0.00    +0.000 A 
ATOM     30  N   UNL     1       4.584   5.620  19.105  0.00  0.00    +0.000 N 
ATOM     31  C   UNL     1       3.330   5.276  19.578  0.00  0.00    +0.000 A 
ATOM     32  H   UNL     1       4.870   6.563  18.884  0.00  0.00    +0.000 HD
ENDBRANCH   8  23
TORSDOF 1
ENDMDL
