MODEL 1
REMARK VINA RESULT:      -8.3      0.000      0.000
REMARK  Name = 
REMARK  5 active torsions:
REMARK  status: ('A' for Active; 'I' for Inactive)
REMARK    1  A    between atoms: C_2  and  C_5
REMARK    2  A    between atoms: C_6  and  N_7
REMARK    3  A    between atoms: C_10  and  C_11
REMARK    4  A    between atoms: C_22  and  C_23
REMARK    5  A    between atoms: C_23  and  C_24
REMARK                            x       y       z     vdW  Elec       q    Type
REMARK                         _______ _______ _______ _____ _____    ______ ____
ROOT
ATOM      1  C   UNL     1       3.003   6.462  19.216  0.00  0.00    +0.000 A 
ATOM      2  C   UNL     1       3.489   6.888  18.015  0.00  0.00    +0.000 A 
ATOM      3  C   UNL     1       3.005   8.142  17.423  0.00  0.00    +0.000 A 
ATOM      4  C   UNL     1       2.123   8.912  18.079  0.00  0.00    +0.000 A 
ATOM      5  N   UNL     1       1.670   8.504  19.323  0.00  0.00    +0.000 N 
ATOM      6  C   UNL     1       0.833   9.090  20.255  0.00  0.00    +0.000 A 
ATOM      7  N   UNL     1       0.662   8.248  21.259  0.00  0.00    +0.000 NA
ATOM      8  N   UNL     1       1.426   7.138  21.037  0.00  0.00    +0.000 NA
ATOM      9  C   UNL     1       2.056   7.298  19.896  0.00  0.00    +0.000 A 
ENDROOT
BRANCH   2  10
ATOM     10  N   UNL     1       4.398   6.169  17.249  0.00  0.00    +0.000 N 
ATOM     11  C   UNL     1       3.999   4.967  16.514  0.00  0.00    +0.000 C 
ATOM     12  C   UNL     1       5.042   3.878  16.756  0.00  0.00    +0.000 C 
ATOM     13  C   UNL     1       6.459   4.323  16.332  0.00  0.00    +0.000 C 
ATOM     14  C   UNL     1       6.787   5.661  17.038  0.00  0.00    +0.000 C 
ATOM     15  C   UNL     1       5.699   6.718  16.831  0.00  0.00    +0.000 C 
BRANCH  13  16
ATOM     16  C   UNL     1       6.717   4.348  14.825  0.00  0.00    +0.000 A 
ATOM     17  C   UNL     1       7.639   5.221  14.224  0.00  0.00    +0.000 A 
ATOM     18  C   UNL     1       7.845   5.226  12.843  0.00  0.00    +0.000 A 
ATOM     19  C   UNL     1       7.104   4.380  12.027  0.00  0.00    +0.000 A 
ATOM     20  C   UNL     1       6.156   3.533  12.592  0.00  0.00    +0.000 A 
ATOM     21  C   UNL     1       5.965   3.519  13.975  0.00  0.00    +0.000 A 
ENDBRANCH  13  16
ENDBRANCH   2  10
BRANCH   1  23
ATOM     22  F   UNL     1       3.021   4.925  21.062  0.00  0.00    +0.000 F 
ATOM     23  C   UNL     1       3.411   5.126  19.774  0.00  0.00    +0.000 C 
ATOM     24  F   UNL     1       4.763   4.955  19.774  0.00  0.00    +0.000 F 
ATOM     25  F   UNL     1       2.886   4.082  19.072  0.00  0.00    +0.000 F 
ENDBRANCH   1  23
BRANCH   6  26
ATOM     26  C   UNL     1       0.311  10.490  20.276  0.00  0.00    +0.000 C 
BRANCH  26  27
ATOM     27  C   UNL     1      -0.399  11.064  19.084  0.00  0.00    +0.000 C 
ATOM     28  C   UNL     1      -1.553  10.372  18.406  0.00  0.00    +0.000 C 
ATOM     29  C   UNL     1      -1.808  11.582  19.257  0.00  0.00    +0.000 C 
ENDBRANCH  26  27
ENDBRANCH   6  26
TORSDOF 5
ENDMDL
MODEL 2
REMARK VINA RESULT:      -8.2      0.093      1.139
REMARK  Name = 
REMARK  5 active torsions:
REMARK  status: ('A' for Active; 'I' for Inactive)
REMARK    1  A    between atoms: C_2  and  C_5
REMARK    2  A    between atoms: C_6  and  N_7
REMARK    3  A    between atoms: C_10  and  C_11
REMARK    4  A    between atoms: C_22  and  C_23
REMARK    5  A    between atoms: C_23  and  C_24
REMARK                            x       y       z     vdW  Elec       q    Type
REMARK                         _______ _______ _______ _____ _____    ______ ____
ROOT
ATOM      1  C   UNL     1       3.007   6.428  19.183  0.00  0.00    +0.000 A 
ATOM      2  C   UNL     1       3.482   6.863  17.980  0.00  0.00    +0.000 A 
ATOM      3  C   UNL     1       3.003   8.128  17.408  0.00  0.00    +0.000 A 
ATOM      4  C   UNL     1       2.138   8.899  18.083  0.00  0.00    +0.000 A 
ATOM      5  N   UNL     1       1.696   8.482  19.329  0.00  0.00    +0.000 N 
ATOM      6  C   UNL     1       0.877   9.066  20.277  0.00  0.00    +0.000 A 
ATOM      7  N   UNL     1       0.710   8.215  21.274  0.00  0.00    +0.000 NA
ATOM      8  N   UNL     1       1.460   7.100  21.031  0.00  0.00    +0.000 NA
ATOM      9  C   UNL     1       2.077   7.266  19.884  0.00  0.00    +0.000 A 
ENDROOT
BRANCH   2  10
ATOM     10  N   UNL     1       4.374   6.143  17.195  0.00  0.00    +0.000 N 
ATOM     11  C   UNL     1       3.956   4.948  16.460  0.00  0.00    +0.000 C 
ATOM     12  C   UNL     1       4.997   3.851  16.678  0.00  0.00    +0.000 C 
ATOM     13  C   UNL     1       6.408   4.290  16.233  0.00  0.00    +0.000 C 
ATOM     14  C   UNL     1       6.756   5.622  16.942  0.00  0.00    +0.000 C 
ATOM     15  C   UNL     1       5.671   6.686  16.759  0.00  0.00    +0.000 C 
BRANCH  13  16
ATOM     16  C   UNL     1       6.642   4.323  14.722  0.00  0.00    +0.000 A 
ATOM     17  C   UNL     1       5.960   3.481  13.827  0.00  0.00    +0.000 A 
ATOM     18  C   UNL     1       6.203   3.529  12.453  0.00  0.00    +0.000 A 
ATOM     19  C   UNL     1       7.162   4.398  11.947  0.00  0.00    +0.000 A 
ATOM     20  C   UNL     1       7.879   5.215  12.816  0.00  0.00    +0.000 A 
ATOM     21  C   UNL     1       7.621   5.176  14.187  0.00  0.00    +0.000 A 
ENDBRANCH  13  16
ENDBRANCH   2  10
BRANCH   1  23
ATOM     22  F   UNL     1       4.751   4.860  19.702  0.00  0.00    +0.000 F 
ATOM     23  C   UNL     1       3.409   5.082  19.722  0.00  0.00    +0.000 C 
ATOM     24  F   UNL     1       2.861   4.056  19.014  0.00  0.00    +0.000 F 
ATOM     25  F   UNL     1       3.035   4.905  21.020  0.00  0.00    +0.000 F 
ENDBRANCH   1  23
BRANCH   6  26
ATOM     26  C   UNL     1       0.370  10.471  20.320  0.00  0.00    +0.000 C 
BRANCH  26  27
ATOM     27  C   UNL     1      -0.338  11.070  19.139  0.00  0.00    +0.000 C 
ATOM     28  C   UNL     1      -1.372  10.322  18.338  0.00  0.00    +0.000 C 
ATOM     29  C   UNL     1      -1.802  11.419  19.268  0.00  0.00    +0.000 C 
ENDBRANCH  26  27
ENDBRANCH   6  26
TORSDOF 5
ENDMDL
MODEL 3
REMARK VINA RESULT:      -8.1      0.782      1.401
REMARK  Name = 
REMARK  5 active torsions:
REMARK  status: ('A' for Active; 'I' for Inactive)
REMARK    1  A    between atoms: C_2  and  C_5
REMARK    2  A    between atoms: C_6  and  N_7
REMARK    3  A    between atoms: C_10  and  C_11
REMARK    4  A    between atoms: C_22  and  C_23
REMARK    5  A    between atoms: C_23  and  C_24
REMARK                            x       y       z     vdW  Elec       q    Type
REMARK                         _______ _______ _______ _____ _____    ______ ____
ROOT
ATOM      1  C   UNL     1       3.056   6.351  19.192  0.00  0.00    +0.000 A 
ATOM      2  C   UNL     1       3.538   6.815  18.004  0.00  0.00    +0.000 A 
ATOM      3  C   UNL     1       3.075   8.102  17.468  0.00  0.00    +0.000 A 
ATOM      4  C   UNL     1       2.217   8.863  18.164  0.00  0.00    +0.000 A 
ATOM      5  N   UNL     1       1.768   8.415  19.396  0.00  0.00    +0.000 N 
ATOM      6  C   UNL     1       0.954   8.981  20.360  0.00  0.00    +0.000 A 
ATOM      7  N   UNL     1       0.775   8.103  21.331  0.00  0.00    +0.000 NA
ATOM      8  N   UNL     1       1.513   6.987  21.057  0.00  0.00    +0.000 NA
ATOM      9  C   UNL     1       2.134   7.179  19.916  0.00  0.00    +0.000 A 
ENDROOT
BRANCH   2  10
ATOM     10  N   UNL     1       4.423   6.108  17.200  0.00  0.00    +0.000 N 
ATOM     11  C   UNL     1       3.995   4.934  16.437  0.00  0.00    +0.000 C 
ATOM     12  C   UNL     1       5.029   3.825  16.627  0.00  0.00    +0.000 C 
ATOM     13  C   UNL     1       6.442   4.265  16.189  0.00  0.00    +0.000 C 
ATOM     14  C   UNL     1       6.801   5.577  16.927  0.00  0.00    +0.000 C 
ATOM     15  C   UNL     1       5.723   6.653  16.773  0.00  0.00    +0.000 C 
BRANCH  13  16
ATOM     16  C   UNL     1       6.672   4.332  14.678  0.00  0.00    +0.000 A 
ATOM     17  C   UNL     1       6.008   3.493  13.768  0.00  0.00    +0.000 A 
ATOM     18  C   UNL     1       6.248   3.572  12.394  0.00  0.00    +0.000 A 
ATOM     19  C   UNL     1       7.186   4.472  11.904  0.00  0.00    +0.000 A 
ATOM     20  C   UNL     1       7.886   5.288  12.787  0.00  0.00    +0.000 A 
ATOM     21  C   UNL     1       7.631   5.217  14.158  0.00  0.00    +0.000 A 
ENDBRANCH  13  16
ENDBRANCH   2  10
BRANCH   1  23
ATOM     22  F   UNL     1       3.068   4.745  20.978  0.00  0.00    +0.000 F 
ATOM     23  C   UNL     1       3.441   4.986  19.692  0.00  0.00    +0.000 C 
ATOM     24  F   UNL     1       4.788   4.783  19.661  0.00  0.00    +0.000 F 
ATOM     25  F   UNL     1       2.879   3.982  18.961  0.00  0.00    +0.000 F 
ENDBRANCH   1  23
BRANCH   6  26
ATOM     26  C   UNL     1       0.463  10.389  20.443  0.00  0.00    +0.000 C 
BRANCH  26  27
ATOM     27  C   UNL     1      -0.752  10.734  21.254  0.00  0.00    +0.000 C 
ATOM     28  C   UNL     1      -0.737  10.815  22.759  0.00  0.00    +0.000 C 
ATOM     29  C   UNL     1      -0.808  12.076  21.947  0.00  0.00    +0.000 C 
ENDBRANCH  26  27
ENDBRANCH   6  26
TORSDOF 5
ENDMDL
MODEL 4
REMARK VINA RESULT:      -8.0      0.759      1.102
REMARK  Name = 
REMARK  5 active torsions:
REMARK  status: ('A' for Active; 'I' for Inactive)
REMARK    1  A    between atoms: C_2  and  C_5
REMARK    2  A    between atoms: C_6  and  N_7
REMARK    3  A    between atoms: C_10  and  C_11
REMARK    4  A    between atoms: C_22  and  C_23
REMARK    5  A    between atoms: C_23  and  C_24
REMARK                            x       y       z     vdW  Elec       q    Type
REMARK                         _______ _______ _______ _____ _____    ______ ____
ROOT
ATOM      1  C   UNL     1       2.938   6.456  19.216  0.00  0.00    +0.000 A 
ATOM      2  C   UNL     1       3.441   6.888  18.024  0.00  0.00    +0.000 A 
ATOM      3  C   UNL     1       2.988   8.159  17.445  0.00  0.00    +0.000 A 
ATOM      4  C   UNL     1       2.119   8.939  18.105  0.00  0.00    +0.000 A 
ATOM      5  N   UNL     1       1.648   8.525  19.341  0.00  0.00    +0.000 N 
ATOM      6  C   UNL     1       0.817   9.117  20.274  0.00  0.00    +0.000 A 
ATOM      7  N   UNL     1       0.621   8.266  21.266  0.00  0.00    +0.000 NA
ATOM      8  N   UNL     1       1.362   7.142  21.035  0.00  0.00    +0.000 NA
ATOM      9  C   UNL     1       2.004   7.303  19.901  0.00  0.00    +0.000 A 
ENDROOT
BRANCH   2  10
ATOM     10  N   UNL     1       4.340   6.159  17.255  0.00  0.00    +0.000 N 
ATOM     11  C   UNL     1       3.924   4.967  16.514  0.00  0.00    +0.000 C 
ATOM     12  C   UNL     1       4.951   3.861  16.751  0.00  0.00    +0.000 C 
ATOM     13  C   UNL     1       6.374   4.287  16.329  0.00  0.00    +0.000 C 
ATOM     14  C   UNL     1       6.722   5.617  17.042  0.00  0.00    +0.000 C 
ATOM     15  C   UNL     1       5.649   6.690  16.840  0.00  0.00    +0.000 C 
BRANCH  13  16
ATOM     16  C   UNL     1       6.633   4.316  14.823  0.00  0.00    +0.000 A 
ATOM     17  C   UNL     1       7.569   5.178  14.226  0.00  0.00    +0.000 A 
ATOM     18  C   UNL     1       7.775   5.187  12.845  0.00  0.00    +0.000 A 
ATOM     19  C   UNL     1       7.021   4.356  12.025  0.00  0.00    +0.000 A 
ATOM     20  C   UNL     1       6.060   3.521  12.586  0.00  0.00    +0.000 A 
ATOM     21  C   UNL     1       5.868   3.503  13.969  0.00  0.00    +0.000 A 
ENDBRANCH  13  16
ENDBRANCH   2  10
BRANCH   1  23
ATOM     22  F   UNL     1       2.947   4.911  21.055  0.00  0.00    +0.000 F 
ATOM     23  C   UNL     1       3.313   5.105  19.759  0.00  0.00    +0.000 C 
ATOM     24  F   UNL     1       4.658   4.888  19.726  0.00  0.00    +0.000 F 
ATOM     25  F   UNL     1       2.736   4.083  19.066  0.00  0.00    +0.000 F 
ENDBRANCH   1  23
BRANCH   6  26
ATOM     26  C   UNL     1       0.326  10.527  20.310  0.00  0.00    +0.000 C 
BRANCH  26  27
ATOM     27  C   UNL     1       0.324  11.309  21.592  0.00  0.00    +0.000 C 
ATOM     28  C   UNL     1      -0.397  12.623  21.749  0.00  0.00    +0.000 C 
ATOM     29  C   UNL     1      -0.953  11.387  22.395  0.00  0.00    +0.000 C 
ENDBRANCH  26  27
ENDBRANCH   6  26
TORSDOF 5
ENDMDL
MODEL 5
REMARK VINA RESULT:      -7.9      0.725      1.227
REMARK  Name = 
REMARK  5 active torsions:
REMARK  status: ('A' for Active; 'I' for Inactive)
REMARK    1  A    between atoms: C_2  and  C_5
REMARK    2  A    between atoms: C_6  and  N_7
REMARK    3  A    between atoms: C_10  and  C_11
REMARK    4  A    between atoms: C_22  and  C_23
REMARK    5  A    between atoms: C_23  and  C_24
REMARK                            x       y       z     vdW  Elec       q    Type
REMARK                         _______ _______ _______ _____ _____    ______ ____
ROOT
ATOM      1  C   UNL     1       2.980   6.511  19.216  0.00  0.00    +0.000 A 
ATOM      2  C   UNL     1       3.462   6.927  18.010  0.00  0.00    +0.000 A 
ATOM      3  C   UNL     1       2.972   8.173  17.407  0.00  0.00    +0.000 A 
ATOM      4  C   UNL     1       2.088   8.946  18.056  0.00  0.00    +0.000 A 
ATOM      5  N   UNL     1       1.638   8.548  19.305  0.00  0.00    +0.000 N 
ATOM      6  C   UNL     1       0.800   9.139  20.232  0.00  0.00    +0.000 A 
ATOM      7  N   UNL     1       0.633   8.307  21.244  0.00  0.00    +0.000 NA
ATOM      8  N   UNL     1       1.402   7.198  21.032  0.00  0.00    +0.000 NA
ATOM      9  C   UNL     1       2.030   7.349  19.889  0.00  0.00    +0.000 A 
ENDROOT
BRANCH   2  10
ATOM     10  N   UNL     1       4.374   6.205  17.250  0.00  0.00    +0.000 N 
ATOM     11  C   UNL     1       3.976   5.000  16.518  0.00  0.00    +0.000 C 
ATOM     12  C   UNL     1       5.018   3.911  16.768  0.00  0.00    +0.000 C 
ATOM     13  C   UNL     1       6.436   4.353  16.347  0.00  0.00    +0.000 C 
ATOM     14  C   UNL     1       6.763   5.694  17.049  0.00  0.00    +0.000 C 
ATOM     15  C   UNL     1       5.676   6.751  16.835  0.00  0.00    +0.000 C 
BRANCH  13  16
ATOM     16  C   UNL     1       6.699   4.373  14.841  0.00  0.00    +0.000 A 
ATOM     17  C   UNL     1       7.637   5.231  14.242  0.00  0.00    +0.000 A 
ATOM     18  C   UNL     1       7.847   5.231  12.862  0.00  0.00    +0.000 A 
ATOM     19  C   UNL     1       7.096   4.395  12.045  0.00  0.00    +0.000 A 
ATOM     20  C   UNL     1       6.133   3.564  12.608  0.00  0.00    +0.000 A 
ATOM     21  C   UNL     1       5.938   3.554  13.990  0.00  0.00    +0.000 A 
ENDBRANCH  13  16
ENDBRANCH   2  10
BRANCH   1  23
ATOM     22  F   UNL     1       2.913   4.113  19.099  0.00  0.00    +0.000 F 
ATOM     23  C   UNL     1       3.395   5.183  19.787  0.00  0.00    +0.000 C 
ATOM     24  F   UNL     1       2.967   5.013  21.069  0.00  0.00    +0.000 F 
ATOM     25  F   UNL     1       4.748   5.019  19.803  0.00  0.00    +0.000 F 
ENDBRANCH   1  23
BRANCH   6  26
ATOM     26  C   UNL     1       0.272  10.537  20.239  0.00  0.00    +0.000 C 
BRANCH  26  27
ATOM     27  C   UNL     1       1.200  11.710  20.373  0.00  0.00    +0.000 C 
ATOM     28  C   UNL     1       1.559  12.607  19.217  0.00  0.00    +0.000 C 
ATOM     29  C   UNL     1       0.628  13.105  20.285  0.00  0.00    +0.000 C 
ENDBRANCH  26  27
ENDBRANCH   6  26
TORSDOF 5
ENDMDL
MODEL 6
REMARK VINA RESULT:      -7.7      0.738      1.547
REMARK  Name = 
REMARK  5 active torsions:
REMARK  status: ('A' for Active; 'I' for Inactive)
REMARK    1  A    between atoms: C_2  and  C_5
REMARK    2  A    between atoms: C_6  and  N_7
REMARK    3  A    between atoms: C_10  and  C_11
REMARK    4  A    between atoms: C_22  and  C_23
REMARK    5  A    between atoms: C_23  and  C_24
REMARK                            x       y       z     vdW  Elec       q    Type
REMARK                         _______ _______ _______ _____ _____    ______ ____
ROOT
ATOM      1  C   UNL     1       2.949   6.561  19.251  0.00  0.00    +0.000 A 
ATOM      2  C   UNL     1       3.417   6.964  18.034  0.00  0.00    +0.000 A 
ATOM      3  C   UNL     1       2.927   8.208  17.428  0.00  0.00    +0.000 A 
ATOM      4  C   UNL     1       2.058   8.992  18.083  0.00  0.00    +0.000 A 
ATOM      5  N   UNL     1       1.624   8.609  19.342  0.00  0.00    +0.000 N 
ATOM      6  C   UNL     1       0.804   9.214  20.276  0.00  0.00    +0.000 A 
ATOM      7  N   UNL     1       0.646   8.391  21.298  0.00  0.00    +0.000 NA
ATOM      8  N   UNL     1       1.403   7.275  21.084  0.00  0.00    +0.000 NA
ATOM      9  C   UNL     1       2.016   7.412  19.931  0.00  0.00    +0.000 A 
ENDROOT
BRANCH   2  10
ATOM     10  N   UNL     1       4.312   6.228  17.268  0.00  0.00    +0.000 N 
ATOM     11  C   UNL     1       3.892   5.025  16.545  0.00  0.00    +0.000 C 
ATOM     12  C   UNL     1       4.925   3.925  16.788  0.00  0.00    +0.000 C 
ATOM     13  C   UNL     1       6.343   4.349  16.349  0.00  0.00    +0.000 C 
ATOM     14  C   UNL     1       6.693   5.689  17.042  0.00  0.00    +0.000 C 
ATOM     15  C   UNL     1       5.616   6.757  16.836  0.00  0.00    +0.000 C 
BRANCH  13  16
ATOM     16  C   UNL     1       6.590   4.360  14.840  0.00  0.00    +0.000 A 
ATOM     17  C   UNL     1       5.885   3.535  13.947  0.00  0.00    +0.000 A 
ATOM     18  C   UNL     1       6.141   3.562  12.574  0.00  0.00    +0.000 A 
ATOM     19  C   UNL     1       7.135   4.390  12.069  0.00  0.00    +0.000 A 
ATOM     20  C   UNL     1       7.875   5.188  12.936  0.00  0.00    +0.000 A 
ATOM     21  C   UNL     1       7.604   5.171  14.306  0.00  0.00    +0.000 A 
ENDBRANCH  13  16
ENDBRANCH   2  10
BRANCH   1  23
ATOM     22  F   UNL     1       4.709   5.051  19.877  0.00  0.00    +0.000 F 
ATOM     23  C   UNL     1       3.363   5.234  19.827  0.00  0.00    +0.000 C 
ATOM     24  F   UNL     1       2.880   4.183  19.106  0.00  0.00    +0.000 F 
ATOM     25  F   UNL     1       2.929   5.061  21.107  0.00  0.00    +0.000 F 
ENDBRANCH   1  23
BRANCH   6  26
ATOM     26  C   UNL     1       0.287  10.616  20.280  0.00  0.00    +0.000 C 
BRANCH  26  27
ATOM     27  C   UNL     1       1.139  11.752  19.793  0.00  0.00    +0.000 C 
ATOM     28  C   UNL     1       0.610  13.150  19.602  0.00  0.00    +0.000 C 
ATOM     29  C   UNL     1       1.514  12.848  20.764  0.00  0.00    +0.000 C 
ENDBRANCH  26  27
ENDBRANCH   6  26
TORSDOF 5
ENDMDL
MODEL 7
REMARK VINA RESULT:      -7.1      2.261      9.238
REMARK  Name = 
REMARK  5 active torsions:
REMARK  status: ('A' for Active; 'I' for Inactive)
REMARK    1  A    between atoms: C_2  and  C_5
REMARK    2  A    between atoms: C_6  and  N_7
REMARK    3  A    between atoms: C_10  and  C_11
REMARK    4  A    between atoms: C_22  and  C_23
REMARK    5  A    between atoms: C_23  and  C_24
REMARK                            x       y       z     vdW  Elec       q    Type
REMARK                         _______ _______ _______ _____ _____    ______ ____
ROOT
ATOM      1  C   UNL     1       1.689   8.021  19.853  0.00  0.00    +0.000 A 
ATOM      2  C   UNL     1       1.416   9.133  19.112  0.00  0.00    +0.000 A 
ATOM      3  C   UNL     1       2.117   9.367  17.843  0.00  0.00    +0.000 A 
ATOM      4  C   UNL     1       2.991   8.467  17.368  0.00  0.00    +0.000 A 
ATOM      5  N   UNL     1       3.228   7.312  18.095  0.00  0.00    +0.000 N 
ATOM      6  C   UNL     1       4.001   6.192  17.851  0.00  0.00    +0.000 A 
ATOM      7  N   UNL     1       3.940   5.398  18.905  0.00  0.00    +0.000 NA
ATOM      8  N   UNL     1       3.086   5.945  19.820  0.00  0.00    +0.000 NA
ATOM      9  C   UNL     1       2.632   7.075  19.329  0.00  0.00    +0.000 A 
ENDROOT
BRANCH   2  10
ATOM     10  N   UNL     1       0.535  10.130  19.510  0.00  0.00    +0.000 N 
ATOM     11  C   UNL     1      -0.885  10.086  19.154  0.00  0.00    +0.000 C 
ATOM     12  C   UNL     1      -1.305  11.466  18.651  0.00  0.00    +0.000 C 
ATOM     13  C   UNL     1      -1.048  12.571  19.698  0.00  0.00    +0.000 C 
ATOM     14  C   UNL     1       0.435  12.498  20.137  0.00  0.00    +0.000 C 
ATOM     15  C   UNL     1       0.850  11.093  20.579  0.00  0.00    +0.000 C 
BRANCH  13  16
ATOM     16  C   UNL     1      -2.030  12.609  20.870  0.00  0.00    +0.000 A 
ATOM     17  C   UNL     1      -1.653  12.310  22.190  0.00  0.00    +0.000 A 
ATOM     18  C   UNL     1      -2.577  12.344  23.237  0.00  0.00    +0.000 A 
ATOM     19  C   UNL     1      -3.909  12.644  22.978  0.00  0.00    +0.000 A 
ATOM     20  C   UNL     1      -4.316  12.905  21.674  0.00  0.00    +0.000 A 
ATOM     21  C   UNL     1      -3.386  12.887  20.633  0.00  0.00    +0.000 A 
ENDBRANCH  13  16
ENDBRANCH   2  10
BRANCH   1  23
ATOM     22  F   UNL     1      -0.267   8.136  21.242  0.00  0.00    +0.000 F 
ATOM     23  C   UNL     1       1.058   7.830  21.205  0.00  0.00    +0.000 C 
ATOM     24  F   UNL     1       1.637   8.607  22.162  0.00  0.00    +0.000 F 
ATOM     25  F   UNL     1       1.141   6.542  21.645  0.00  0.00    +0.000 F 
ENDBRANCH   1  23
BRANCH   6  26
ATOM     26  C   UNL     1       4.676   5.796  16.579  0.00  0.00    +0.000 C 
BRANCH  26  27
ATOM     27  C   UNL     1       6.171   5.855  16.450  0.00  0.00    +0.000 C 
ATOM     28  C   UNL     1       7.080   4.766  16.960  0.00  0.00    +0.000 C 
ATOM     29  C   UNL     1       6.856   4.918  15.483  0.00  0.00    +0.000 C 
ENDBRANCH  26  27
ENDBRANCH   6  26
TORSDOF 5
ENDMDL
MODEL 8
REMARK VINA RESULT:      -7.1      3.364      9.089
REMARK  Name = 
REMARK  5 active torsions:
REMARK  status: ('A' for Active; 'I' for Inactive)
REMARK    1  A    between atoms: C_2  and  C_5
REMARK    2  A    between atoms: C_6  and  N_7
REMARK    3  A    between atoms: C_10  and  C_11
REMARK    4  A    between atoms: C_22  and  C_23
REMARK    5  A    between atoms: C_23  and  C_24
REMARK                            x       y       z     vdW  Elec       q    Type
REMARK                         _______ _______ _______ _____ _____    ______ ____
ROOT
ATOM      1  C   UNL     1       1.033   9.244  20.221  0.00  0.00    +0.000 A 
ATOM      2  C   UNL     1       1.260  10.205  19.280  0.00  0.00    +0.000 A 
ATOM      3  C   UNL     1       2.064   9.900  18.090  0.00  0.00    +0.000 A 
ATOM      4  C   UNL     1       2.536   8.662  17.882  0.00  0.00    +0.000 A 
ATOM      5  N   UNL     1       2.260   7.673  18.813  0.00  0.00    +0.000 N 
ATOM      6  C   UNL     1       2.541   6.320  18.854  0.00  0.00    +0.000 A 
ATOM      7  N   UNL     1       2.116   5.834  20.008  0.00  0.00    +0.000 NA
ATOM      8  N   UNL     1       1.499   6.834  20.705  0.00  0.00    +0.000 NA
ATOM      9  C   UNL     1       1.553   7.929  19.982  0.00  0.00    +0.000 A 
ENDROOT
BRANCH   2  10
ATOM     10  N   UNL     1       0.824  11.519  19.396  0.00  0.00    +0.000 N 
ATOM     11  C   UNL     1       1.618  12.532  20.095  0.00  0.00    +0.000 C 
ATOM     12  C   UNL     1       0.696  13.321  21.023  0.00  0.00    +0.000 C 
ATOM     13  C   UNL     1      -0.470  13.984  20.259  0.00  0.00    +0.000 C 
ATOM     14  C   UNL     1      -1.204  12.897  19.437  0.00  0.00    +0.000 C 
ATOM     15  C   UNL     1      -0.252  12.079  18.561  0.00  0.00    +0.000 C 
BRANCH  13  16
ATOM     16  C   UNL     1      -0.101  15.222  19.440  0.00  0.00    +0.000 A 
ATOM     17  C   UNL     1       1.215  15.505  19.037  0.00  0.00    +0.000 A 
ATOM     18  C   UNL     1       1.522  16.650  18.298  0.00  0.00    +0.000 A 
ATOM     19  C   UNL     1       0.520  17.557  17.976  0.00  0.00    +0.000 A 
ATOM     20  C   UNL     1      -0.785  17.321  18.396  0.00  0.00    +0.000 A 
ATOM     21  C   UNL     1      -1.091  16.166  19.120  0.00  0.00    +0.000 A 
ENDBRANCH  13  16
ENDBRANCH   2  10
BRANCH   1  23
ATOM     22  F   UNL     1      -0.778  10.382  21.315  0.00  0.00    +0.000 F 
ATOM     23  C   UNL     1       0.305   9.579  21.495  0.00  0.00    +0.000 C 
ATOM     24  F   UNL     1       1.099  10.235  22.388  0.00  0.00    +0.000 F 
ATOM     25  F   UNL     1      -0.169   8.472  22.134  0.00  0.00    +0.000 F 
ENDBRANCH   1  23
BRANCH   6  26
ATOM     26  C   UNL     1       3.073   5.453  17.760  0.00  0.00    +0.000 C 
BRANCH  26  27
ATOM     27  C   UNL     1       4.537   5.448  17.425  0.00  0.00    +0.000 C 
ATOM     28  C   UNL     1       5.098   4.746  16.215  0.00  0.00    +0.000 C 
ATOM     29  C   UNL     1       5.014   6.246  16.234  0.00  0.00    +0.000 C 
ENDBRANCH  26  27
ENDBRANCH   6  26
TORSDOF 5
ENDMDL
