MODEL 1
REMARK VINA RESULT:      -7.0      0.000      0.000
REMARK  Name = 
REMARK  9 active torsions:
REMARK  status: ('A' for Active; 'I' for Inactive)
REMARK    1  A    between atoms: N_8  and  C_9
REMARK    2  A    between atoms: C_9  and  C_10
REMARK    3  A    between atoms: C_10  and  C_11
REMARK    4  A    between atoms: C_10  and  O_13
REMARK    5  A    between atoms: C_11  and  O_12
REMARK    6  A    between atoms: O_13  and  C_14
REMARK    7  A    between atoms: C_14  and  P_15
REMARK    8  A    between atoms: P_15  and  O_17
REMARK    9  A    between atoms: P_15  and  O_18
REMARK                            x       y       z     vdW  Elec       q    Type
REMARK                         _______ _______ _______ _____ _____    ______ ____
ROOT
ATOM      1  C   UNL     1       5.108   5.280  16.044  0.00  0.00    +0.000 C 
ENDROOT
BRANCH   1   9
ATOM      2  N   UNL     1       2.096   5.833  20.644  0.00  0.00    +0.000 N 
ATOM      3  C   UNL     1       2.030   4.784  19.736  0.00  0.00    +0.000 A 
ATOM      4  N   UNL     1       1.084   3.826  19.898  0.00  0.00    +0.000 NA
ATOM      5  C   UNL     1       1.009   2.798  19.000  0.00  0.00    +0.000 A 
ATOM      6  N   UNL     1       1.775   2.530  17.918  0.00  0.00    +0.000 NA
ATOM      7  C   UNL     1       2.724   3.477  17.752  0.00  0.00    +0.000 A 
ATOM      8  N   UNL     1       3.629   3.526  16.774  0.00  0.00    +0.000 NA
ATOM      9  N   UNL     1       4.261   4.671  17.047  0.00  0.00    +0.000 N 
ATOM     10  N   UNL     1       3.911   5.359  18.151  0.00  0.00    +0.000 NA
ATOM     11  C   UNL     1       2.885   4.615  18.625  0.00  0.00    +0.000 A 
ATOM     12  H   UNL     1       1.645   5.610  21.524  0.00  0.00    +0.000 HD
ATOM     13  H   UNL     1       2.998   6.293  20.684  0.00  0.00    +0.000 HD
ENDBRANCH   1   9
BRANCH   1  14
ATOM     14  C   UNL     1       6.396   4.508  15.742  0.00  0.00    +0.000 C 
BRANCH  14  15
ATOM     15  C   UNL     1       6.697   4.536  14.232  0.00  0.00    +0.000 C 
BRANCH  15  16
ATOM     16  O   UNL     1       6.238   3.333  13.616  0.00  0.00    +0.000 OA
ATOM     17  H   UNL     1       5.610   3.595  12.925  0.00  0.00    +0.000 HD
ENDBRANCH  15  16
ENDBRANCH  14  15
BRANCH  14  18
ATOM     18  O   UNL     1       7.536   5.099  16.433  0.00  0.00    +0.000 OA
BRANCH  18  19
ATOM     19  C   UNL     1       7.757   4.489  17.726  0.00  0.00    +0.000 C 
BRANCH  19  20
ATOM     20  P   UNL     1       7.734   5.748  19.009  0.00  0.00    +0.000 P 
ATOM     21  O   UNL     1       8.056   7.139  18.578  0.00  0.00    +0.000 OA
BRANCH  20  22
ATOM     22  O   UNL     1       6.315   5.585  19.738  0.00  0.00    +0.000 OA
ATOM     23  H   UNL     1       6.417   5.314  20.673  0.00  0.00    +0.000 HD
ENDBRANCH  20  22
BRANCH  20  24
ATOM     24  O   UNL     1       8.709   5.215  20.165  0.00  0.00    +0.000 OA
ATOM     25  H   UNL     1       9.270   4.485  19.831  0.00  0.00    +0.000 HD
ENDBRANCH  20  24
ENDBRANCH  19  20
ENDBRANCH  18  19
ENDBRANCH  14  18
ENDBRANCH   1  14
TORSDOF 9
ENDMDL
MODEL 2
REMARK VINA RESULT:      -6.8      1.052      2.124
REMARK  Name = 
REMARK  9 active torsions:
REMARK  status: ('A' for Active; 'I' for Inactive)
REMARK    1  A    between atoms: N_8  and  C_9
REMARK    2  A    between atoms: C_9  and  C_10
REMARK    3  A    between atoms: C_10  and  C_11
REMARK    4  A    between atoms: C_10  and  O_13
REMARK    5  A    between atoms: C_11  and  O_12
REMARK    6  A    between atoms: O_13  and  C_14
REMARK    7  A    between atoms: C_14  and  P_15
REMARK    8  A    between atoms: P_15  and  O_17
REMARK    9  A    between atoms: P_15  and  O_18
REMARK                            x       y       z     vdW  Elec       q    Type
REMARK                         _______ _______ _______ _____ _____    ______ ____
ROOT
ATOM      1  C   UNL     1       5.227   5.715  16.060  0.00  0.00    +0.000 C 
ENDROOT
BRANCH   1   9
ATOM      2  N   UNL     1       3.148   1.221  18.515  0.00  0.00    +0.000 N 
ATOM      3  C   UNL     1       2.825   2.541  18.801  0.00  0.00    +0.000 A 
ATOM      4  N   UNL     1       1.997   2.810  19.840  0.00  0.00    +0.000 NA
ATOM      5  C   UNL     1       1.685   4.109  20.131  0.00  0.00    +0.000 A 
ATOM      6  N   UNL     1       2.059   5.253  19.515  0.00  0.00    +0.000 NA
ATOM      7  C   UNL     1       2.882   4.994  18.474  0.00  0.00    +0.000 A 
ATOM      8  N   UNL     1       3.447   5.895  17.671  0.00  0.00    +0.000 NA
ATOM      9  N   UNL     1       4.190   5.120  16.875  0.00  0.00    +0.000 N 
ATOM     10  N   UNL     1       4.125   3.783  17.026  0.00  0.00    +0.000 NA
ATOM     11  C   UNL     1       3.293   3.666  18.086  0.00  0.00    +0.000 A 
ATOM     12  H   UNL     1       2.477   0.567  18.902  0.00  0.00    +0.000 HD
ATOM     13  H   UNL     1       3.457   1.065  17.563  0.00  0.00    +0.000 HD
ENDBRANCH   1   9
BRANCH   1  14
ATOM     14  C   UNL     1       6.436   4.810  15.805  0.00  0.00    +0.000 C 
BRANCH  14  15
ATOM     15  C   UNL     1       6.778   4.781  14.304  0.00  0.00    +0.000 C 
BRANCH  15  16
ATOM     16  O   UNL     1       7.942   5.565  14.049  0.00  0.00    +0.000 OA
ATOM     17  H   UNL     1       8.704   4.971  14.139  0.00  0.00    +0.000 HD
ENDBRANCH  15  16
ENDBRANCH  14  15
BRANCH  14  18
ATOM     18  O   UNL     1       7.612   5.294  16.519  0.00  0.00    +0.000 OA
BRANCH  18  19
ATOM     19  C   UNL     1       7.851   4.543  17.733  0.00  0.00    +0.000 C 
BRANCH  19  20
ATOM     20  P   UNL     1       7.580   5.595  19.166  0.00  0.00    +0.000 P 
ATOM     21  O   UNL     1       6.176   5.694  19.659  0.00  0.00    +0.000 OA
BRANCH  20  22
ATOM     22  O   UNL     1       8.642   5.103  20.261  0.00  0.00    +0.000 OA
ATOM     23  H   UNL     1       8.203   4.685  21.030  0.00  0.00    +0.000 HD
ENDBRANCH  20  22
BRANCH  20  24
ATOM     24  O   UNL     1       8.206   7.022  18.786  0.00  0.00    +0.000 OA
ATOM     25  H   UNL     1       7.511   7.712  18.781  0.00  0.00    +0.000 HD
ENDBRANCH  20  24
ENDBRANCH  19  20
ENDBRANCH  18  19
ENDBRANCH  14  18
ENDBRANCH   1  14
TORSDOF 9
ENDMDL
MODEL 3
REMARK VINA RESULT:      -6.7      1.306      2.261
REMARK  Name = 
REMARK  9 active torsions:
REMARK  status: ('A' for Active; 'I' for Inactive)
REMARK    1  A    between atoms: N_8  and  C_9
REMARK    2  A    between atoms: C_9  and  C_10
REMARK    3  A    between atoms: C_10  and  C_11
REMARK    4  A    between atoms: C_10  and  O_13
REMARK    5  A    between atoms: C_11  and  O_12
REMARK    6  A    between atoms: O_13  and  C_14
REMARK    7  A    between atoms: C_14  and  P_15
REMARK    8  A    between atoms: P_15  and  O_17
REMARK    9  A    between atoms: P_15  and  O_18
REMARK                            x       y       z     vdW  Elec       q    Type
REMARK                         _______ _______ _______ _____ _____    ______ ____
ROOT
ATOM      1  C   UNL     1       5.088   6.162  16.073  0.00  0.00    +0.000 C 
ENDROOT
BRANCH   1   9
ATOM      2  N   UNL     1       2.862   1.583  18.223  0.00  0.00    +0.000 N 
ATOM      3  C   UNL     1       2.668   2.883  18.671  0.00  0.00    +0.000 A 
ATOM      4  N   UNL     1       1.949   3.095  19.801  0.00  0.00    +0.000 NA
ATOM      5  C   UNL     1       1.765   4.372  20.250  0.00  0.00    +0.000 A 
ATOM      6  N   UNL     1       2.178   5.548  19.725  0.00  0.00    +0.000 NA
ATOM      7  C   UNL     1       2.892   5.347  18.595  0.00  0.00    +0.000 A 
ATOM      8  N   UNL     1       3.461   6.290  17.843  0.00  0.00    +0.000 NA
ATOM      9  N   UNL     1       4.075   5.556  16.910  0.00  0.00    +0.000 N 
ATOM     10  N   UNL     1       3.917   4.218  16.927  0.00  0.00    +0.000 NA
ATOM     11  C   UNL     1       3.165   4.044  18.039  0.00  0.00    +0.000 A 
ATOM     12  H   UNL     1       2.175   0.939  18.597  0.00  0.00    +0.000 HD
ATOM     13  H   UNL     1       3.081   1.511  17.236  0.00  0.00    +0.000 HD
ENDBRANCH   1   9
BRANCH   1  14
ATOM     14  C   UNL     1       6.430   5.425  16.060  0.00  0.00    +0.000 C 
BRANCH  14  15
ATOM     15  C   UNL     1       6.737   4.894  14.647  0.00  0.00    +0.000 C 
BRANCH  15  16
ATOM     16  O   UNL     1       7.848   5.594  14.089  0.00  0.00    +0.000 OA
ATOM     17  H   UNL     1       7.485   6.242  13.465  0.00  0.00    +0.000 HD
ENDBRANCH  15  16
ENDBRANCH  14  15
BRANCH  14  18
ATOM     18  O   UNL     1       7.519   6.314  16.447  0.00  0.00    +0.000 OA
BRANCH  18  19
ATOM     19  C   UNL     1       7.480   6.631  17.858  0.00  0.00    +0.000 C 
BRANCH  19  20
ATOM     20  P   UNL     1       7.542   5.118  18.827  0.00  0.00    +0.000 P 
ATOM     21  O   UNL     1       6.240   4.613  19.351  0.00  0.00    +0.000 OA
BRANCH  20  22
ATOM     22  O   UNL     1       8.352   4.069  17.924  0.00  0.00    +0.000 OA
ATOM     23  H   UNL     1       8.544   4.430  17.034  0.00  0.00    +0.000 HD
ENDBRANCH  20  22
BRANCH  20  24
ATOM     24  O   UNL     1       8.617   5.384  19.987  0.00  0.00    +0.000 OA
ATOM     25  H   UNL     1       8.171   5.480  20.853  0.00  0.00    +0.000 HD
ENDBRANCH  20  24
ENDBRANCH  19  20
ENDBRANCH  18  19
ENDBRANCH  14  18
ENDBRANCH   1  14
TORSDOF 9
ENDMDL
MODEL 4
REMARK VINA RESULT:      -6.7      1.511      2.345
REMARK  Name = 
REMARK  9 active torsions:
REMARK  status: ('A' for Active; 'I' for Inactive)
REMARK    1  A    between atoms: N_8  and  C_9
REMARK    2  A    between atoms: C_9  and  C_10
REMARK    3  A    between atoms: C_10  and  C_11
REMARK    4  A    between atoms: C_10  and  O_13
REMARK    5  A    between atoms: C_11  and  O_12
REMARK    6  A    between atoms: O_13  and  C_14
REMARK    7  A    between atoms: C_14  and  P_15
REMARK    8  A    between atoms: P_15  and  O_17
REMARK    9  A    between atoms: P_15  and  O_18
REMARK                            x       y       z     vdW  Elec       q    Type
REMARK                         _______ _______ _______ _____ _____    ______ ____
ROOT
ATOM      1  C   UNL     1       5.134   5.714  15.838  0.00  0.00    +0.000 C 
ENDROOT
BRANCH   1   9
ATOM      2  N   UNL     1       4.219   0.924  18.440  0.00  0.00    +0.000 N 
ATOM      3  C   UNL     1       3.616   2.143  18.720  0.00  0.00    +0.000 A 
ATOM      4  N   UNL     1       2.786   2.243  19.788  0.00  0.00    +0.000 NA
ATOM      5  C   UNL     1       2.199   3.443  20.073  0.00  0.00    +0.000 A 
ATOM      6  N   UNL     1       2.281   4.628  19.426  0.00  0.00    +0.000 NA
ATOM      7  C   UNL     1       3.102   4.537  18.356  0.00  0.00    +0.000 A 
ATOM      8  N   UNL     1       3.418   5.525  17.518  0.00  0.00    +0.000 NA
ATOM      9  N   UNL     1       4.288   4.919  16.704  0.00  0.00    +0.000 N 
ATOM     10  N   UNL     1       4.535   3.606  16.876  0.00  0.00    +0.000 NA
ATOM     11  C   UNL     1       3.790   3.328  17.971  0.00  0.00    +0.000 A 
ATOM     12  H   UNL     1       3.729   0.145  18.863  0.00  0.00    +0.000 HD
ATOM     13  H   UNL     1       4.521   0.821  17.478  0.00  0.00    +0.000 HD
ENDBRANCH   1   9
BRANCH   1  14
ATOM     14  C   UNL     1       6.557   5.177  15.668  0.00  0.00    +0.000 C 
BRANCH  14  15
ATOM     15  C   UNL     1       6.819   4.809  14.196  0.00  0.00    +0.000 C 
BRANCH  15  16
ATOM     16  O   UNL     1       7.946   5.531  13.701  0.00  0.00    +0.000 OA
ATOM     17  H   UNL     1       7.621   6.402  13.425  0.00  0.00    +0.000 HD
ENDBRANCH  15  16
ENDBRANCH  14  15
BRANCH  14  18
ATOM     18  O   UNL     1       7.544   6.177  16.058  0.00  0.00    +0.000 OA
BRANCH  18  19
ATOM     19  C   UNL     1       7.245   6.752  17.352  0.00  0.00    +0.000 C 
BRANCH  19  20
ATOM     20  P   UNL     1       7.518   5.530  18.642  0.00  0.00    +0.000 P 
ATOM     21  O   UNL     1       8.089   4.223  18.205  0.00  0.00    +0.000 OA
BRANCH  20  22
ATOM     22  O   UNL     1       8.367   6.287  19.772  0.00  0.00    +0.000 OA
ATOM     23  H   UNL     1       8.098   6.013  20.672  0.00  0.00    +0.000 HD
ENDBRANCH  20  22
BRANCH  20  24
ATOM     24  O   UNL     1       6.114   5.372  19.400  0.00  0.00    +0.000 OA
ATOM     25  H   UNL     1       6.068   4.510  19.862  0.00  0.00    +0.000 HD
ENDBRANCH  20  24
ENDBRANCH  19  20
ENDBRANCH  18  19
ENDBRANCH  14  18
ENDBRANCH   1  14
TORSDOF 9
ENDMDL
MODEL 5
REMARK VINA RESULT:      -6.7      3.753      5.657
REMARK  Name = 
REMARK  9 active torsions:
REMARK  status: ('A' for Active; 'I' for Inactive)
REMARK    1  A    between atoms: N_8  and  C_9
REMARK    2  A    between atoms: C_9  and  C_10
REMARK    3  A    between atoms: C_10  and  C_11
REMARK    4  A    between atoms: C_10  and  O_13
REMARK    5  A    between atoms: C_11  and  O_12
REMARK    6  A    between atoms: O_13  and  C_14
REMARK    7  A    between atoms: C_14  and  P_15
REMARK    8  A    between atoms: P_15  and  O_17
REMARK    9  A    between atoms: P_15  and  O_18
REMARK                            x       y       z     vdW  Elec       q    Type
REMARK                         _______ _______ _______ _____ _____    ______ ____
ROOT
ATOM      1  C   UNL     1       4.209   3.228  17.199  0.00  0.00    +0.000 C 
ENDROOT
BRANCH   1   9
ATOM      2  N   UNL     1       8.305   5.332  20.255  0.00  0.00    +0.000 N 
ATOM      3  C   UNL     1       7.711   5.927  19.150  0.00  0.00    +0.000 A 
ATOM      4  N   UNL     1       8.213   7.094  18.676  0.00  0.00    +0.000 NA
ATOM      5  C   UNL     1       7.637   7.677  17.582  0.00  0.00    +0.000 A 
ATOM      6  N   UNL     1       6.570   7.289  16.848  0.00  0.00    +0.000 NA
ATOM      7  C   UNL     1       6.059   6.128  17.317  0.00  0.00    +0.000 A 
ATOM      8  N   UNL     1       5.021   5.462  16.812  0.00  0.00    +0.000 NA
ATOM      9  N   UNL     1       4.984   4.382  17.599  0.00  0.00    +0.000 N 
ATOM     10  N   UNL     1       5.856   4.294  18.623  0.00  0.00    +0.000 NA
ATOM     11  C   UNL     1       6.596   5.415  18.451  0.00  0.00    +0.000 A 
ATOM     12  H   UNL     1       8.849   5.989  20.801  0.00  0.00    +0.000 HD
ATOM     13  H   UNL     1       7.701   4.693  20.758  0.00  0.00    +0.000 HD
ENDBRANCH   1   9
BRANCH   1  14
ATOM     14  C   UNL     1       2.700   3.365  17.420  0.00  0.00    +0.000 C 
BRANCH  14  15
ATOM     15  C   UNL     1       2.096   2.016  17.853  0.00  0.00    +0.000 C 
BRANCH  15  16
ATOM     16  O   UNL     1       3.120   1.156  18.349  0.00  0.00    +0.000 OA
ATOM     17  H   UNL     1       3.867   1.226  17.734  0.00  0.00    +0.000 HD
ENDBRANCH  15  16
ENDBRANCH  14  15
BRANCH  14  18
ATOM     18  O   UNL     1       2.410   4.337  18.467  0.00  0.00    +0.000 OA
BRANCH  18  19
ATOM     19  C   UNL     1       1.439   3.835  19.415  0.00  0.00    +0.000 C 
BRANCH  19  20
ATOM     20  P   UNL     1       2.217   3.593  21.018  0.00  0.00    +0.000 P 
ATOM     21  O   UNL     1       1.452   2.785  22.010  0.00  0.00    +0.000 OA
BRANCH  20  22
ATOM     22  O   UNL     1       3.688   3.043  20.697  0.00  0.00    +0.000 OA
ATOM     23  H   UNL     1       3.665   2.128  20.350  0.00  0.00    +0.000 HD
ENDBRANCH  20  22
BRANCH  20  24
ATOM     24  O   UNL     1       2.574   5.061  21.557  0.00  0.00    +0.000 OA
ATOM     25  H   UNL     1       2.303   5.741  20.907  0.00  0.00    +0.000 HD
ENDBRANCH  20  24
ENDBRANCH  19  20
ENDBRANCH  18  19
ENDBRANCH  14  18
ENDBRANCH   1  14
TORSDOF 9
ENDMDL
MODEL 6
REMARK VINA RESULT:      -6.6      1.580      1.880
REMARK  Name = 
REMARK  9 active torsions:
REMARK  status: ('A' for Active; 'I' for Inactive)
REMARK    1  A    between atoms: N_8  and  C_9
REMARK    2  A    between atoms: C_9  and  C_10
REMARK    3  A    between atoms: C_10  and  C_11
REMARK    4  A    between atoms: C_10  and  O_13
REMARK    5  A    between atoms: C_11  and  O_12
REMARK    6  A    between atoms: O_13  and  C_14
REMARK    7  A    between atoms: C_14  and  P_15
REMARK    8  A    between atoms: P_15  and  O_17
REMARK    9  A    between atoms: P_15  and  O_18
REMARK                            x       y       z     vdW  Elec       q    Type
REMARK                         _______ _______ _______ _____ _____    ______ ____
ROOT
ATOM      1  C   UNL     1       4.543   5.186  16.563  0.00  0.00    +0.000 C 
ENDROOT
BRANCH   1   9
ATOM      2  N   UNL     1       4.878   1.665  20.811  0.00  0.00    +0.000 N 
ATOM      3  C   UNL     1       3.821   2.521  20.530  0.00  0.00    +0.000 A 
ATOM      4  N   UNL     1       2.788   2.609  21.405  0.00  0.00    +0.000 NA
ATOM      5  C   UNL     1       1.751   3.458  21.137  0.00  0.00    +0.000 A 
ATOM      6  N   UNL     1       1.539   4.265  20.073  0.00  0.00    +0.000 NA
ATOM      7  C   UNL     1       2.561   4.180  19.192  0.00  0.00    +0.000 A 
ATOM      8  N   UNL     1       2.677   4.858  18.050  0.00  0.00    +0.000 NA
ATOM      9  N   UNL     1       3.873   4.450  17.615  0.00  0.00    +0.000 N 
ATOM     10  N   UNL     1       4.538   3.515  18.321  0.00  0.00    +0.000 NA
ATOM     11  C   UNL     1       3.715   3.333  19.380  0.00  0.00    +0.000 A 
ATOM     12  H   UNL     1       4.625   0.945  21.478  0.00  0.00    +0.000 HD
ATOM     13  H   UNL     1       5.411   1.382  19.997  0.00  0.00    +0.000 HD
ENDBRANCH   1   9
BRANCH   1  14
ATOM     14  C   UNL     1       5.793   4.502  16.002  0.00  0.00    +0.000 C 
BRANCH  14  15
ATOM     15  C   UNL     1       5.749   4.481  14.463  0.00  0.00    +0.000 C 
BRANCH  15  16
ATOM     16  O   UNL     1       6.366   3.294  13.970  0.00  0.00    +0.000 OA
ATOM     17  H   UNL     1       6.012   2.556  14.492  0.00  0.00    +0.000 HD
ENDBRANCH  15  16
ENDBRANCH  14  15
BRANCH  14  18
ATOM     18  O   UNL     1       7.002   5.213  16.403  0.00  0.00    +0.000 OA
BRANCH  18  19
ATOM     19  C   UNL     1       7.626   4.605  17.559  0.00  0.00    +0.000 C 
BRANCH  19  20
ATOM     20  P   UNL     1       7.676   5.783  18.916  0.00  0.00    +0.000 P 
ATOM     21  O   UNL     1       8.060   7.181  18.566  0.00  0.00    +0.000 OA
BRANCH  20  22
ATOM     22  O   UNL     1       6.258   5.643  19.652  0.00  0.00    +0.000 OA
ATOM     23  H   UNL     1       6.342   5.741  20.622  0.00  0.00    +0.000 HD
ENDBRANCH  20  22
BRANCH  20  24
ATOM     24  O   UNL     1       8.637   5.134  20.024  0.00  0.00    +0.000 OA
ATOM     25  H   UNL     1       9.514   5.568  20.014  0.00  0.00    +0.000 HD
ENDBRANCH  20  24
ENDBRANCH  19  20
ENDBRANCH  18  19
ENDBRANCH  14  18
ENDBRANCH   1  14
TORSDOF 9
ENDMDL
MODEL 7
REMARK VINA RESULT:      -6.6      0.685      1.828
REMARK  Name = 
REMARK  9 active torsions:
REMARK  status: ('A' for Active; 'I' for Inactive)
REMARK    1  A    between atoms: N_8  and  C_9
REMARK    2  A    between atoms: C_9  and  C_10
REMARK    3  A    between atoms: C_10  and  C_11
REMARK    4  A    between atoms: C_10  and  O_13
REMARK    5  A    between atoms: C_11  and  O_12
REMARK    6  A    between atoms: O_13  and  C_14
REMARK    7  A    between atoms: C_14  and  P_15
REMARK    8  A    between atoms: P_15  and  O_17
REMARK    9  A    between atoms: P_15  and  O_18
REMARK                            x       y       z     vdW  Elec       q    Type
REMARK                         _______ _______ _______ _____ _____    ______ ____
ROOT
ATOM      1  C   UNL     1       5.022   5.421  15.977  0.00  0.00    +0.000 C 
ENDROOT
BRANCH   1   9
ATOM      2  N   UNL     1       2.039   1.599  18.629  0.00  0.00    +0.000 N 
ATOM      3  C   UNL     1       2.252   2.908  19.038  0.00  0.00    +0.000 A 
ATOM      4  N   UNL     1       1.785   3.310  20.246  0.00  0.00    +0.000 NA
ATOM      5  C   UNL     1       2.003   4.596  20.656  0.00  0.00    +0.000 A 
ATOM      6  N   UNL     1       2.621   5.618  20.025  0.00  0.00    +0.000 NA
ATOM      7  C   UNL     1       3.086   5.229  18.817  0.00  0.00    +0.000 A 
ATOM      8  N   UNL     1       3.761   5.984  17.949  0.00  0.00    +0.000 NA
ATOM      9  N   UNL     1       4.022   5.107  16.975  0.00  0.00    +0.000 N 
ATOM     10  N   UNL     1       3.531   3.857  17.076  0.00  0.00    +0.000 NA
ATOM     11  C   UNL     1       2.931   3.894  18.289  0.00  0.00    +0.000 A 
ATOM     12  H   UNL     1       1.272   1.160  19.125  0.00  0.00    +0.000 HD
ATOM     13  H   UNL     1       2.085   1.464  17.626  0.00  0.00    +0.000 HD
ENDBRANCH   1   9
BRANCH   1  14
ATOM     14  C   UNL     1       6.187   4.430  15.906  0.00  0.00    +0.000 C 
BRANCH  14  15
ATOM     15  C   UNL     1       6.466   4.033  14.444  0.00  0.00    +0.000 C 
BRANCH  15  16
ATOM     16  O   UNL     1       5.260   4.085  13.683  0.00  0.00    +0.000 OA
ATOM     17  H   UNL     1       4.529   3.951  14.306  0.00  0.00    +0.000 HD
ENDBRANCH  15  16
ENDBRANCH  14  15
BRANCH  14  18
ATOM     18  O   UNL     1       7.407   5.016  16.448  0.00  0.00    +0.000 OA
BRANCH  18  19
ATOM     19  C   UNL     1       7.752   4.449  17.734  0.00  0.00    +0.000 C 
BRANCH  19  20
ATOM     20  P   UNL     1       7.683   5.723  19.002  0.00  0.00    +0.000 P 
ATOM     21  O   UNL     1       7.995   7.112  18.561  0.00  0.00    +0.000 OA
BRANCH  20  22
ATOM     22  O   UNL     1       6.251   5.547  19.702  0.00  0.00    +0.000 OA
ATOM     23  H   UNL     1       6.052   6.287  20.310  0.00  0.00    +0.000 HD
ENDBRANCH  20  22
BRANCH  20  24
ATOM     24  O   UNL     1       8.640   5.216  20.184  0.00  0.00    +0.000 OA
ATOM     25  H   UNL     1       9.146   5.965  20.560  0.00  0.00    +0.000 HD
ENDBRANCH  20  24
ENDBRANCH  19  20
ENDBRANCH  18  19
ENDBRANCH  14  18
ENDBRANCH   1  14
TORSDOF 9
ENDMDL
MODEL 8
REMARK VINA RESULT:      -6.6      3.316      5.990
REMARK  Name = 
REMARK  9 active torsions:
REMARK  status: ('A' for Active; 'I' for Inactive)
REMARK    1  A    between atoms: N_8  and  C_9
REMARK    2  A    between atoms: C_9  and  C_10
REMARK    3  A    between atoms: C_10  and  C_11
REMARK    4  A    between atoms: C_10  and  O_13
REMARK    5  A    between atoms: C_11  and  O_12
REMARK    6  A    between atoms: O_13  and  C_14
REMARK    7  A    between atoms: C_14  and  P_15
REMARK    8  A    between atoms: P_15  and  O_17
REMARK    9  A    between atoms: P_15  and  O_18
REMARK                            x       y       z     vdW  Elec       q    Type
REMARK                         _______ _______ _______ _____ _____    ______ ____
ROOT
ATOM      1  C   UNL     1       5.753   5.621  17.516  0.00  0.00    +0.000 C 
ENDROOT
BRANCH   1   9
ATOM      2  N   UNL     1       8.956   5.911  13.021  0.00  0.00    +0.000 N 
ATOM      3  C   UNL     1       7.808   5.144  13.168  0.00  0.00    +0.000 A 
ATOM      4  N   UNL     1       7.449   4.292  12.175  0.00  0.00    +0.000 NA
ATOM      5  C   UNL     1       6.325   3.528  12.321  0.00  0.00    +0.000 A 
ATOM      6  N   UNL     1       5.430   3.478  13.333  0.00  0.00    +0.000 NA
ATOM      7  C   UNL     1       5.778   4.328  14.325  0.00  0.00    +0.000 A 
ATOM      8  N   UNL     1       5.125   4.510  15.474  0.00  0.00    +0.000 NA
ATOM      9  N   UNL     1       5.913   5.391  16.096  0.00  0.00    +0.000 N 
ATOM     10  N   UNL     1       6.995   5.867  15.448  0.00  0.00    +0.000 NA
ATOM     11  C   UNL     1       6.950   5.169  14.289  0.00  0.00    +0.000 A 
ATOM     12  H   UNL     1       9.237   6.004  12.052  0.00  0.00    +0.000 HD
ATOM     13  H   UNL     1       8.975   6.745  13.596  0.00  0.00    +0.000 HD
ENDBRANCH   1   9
BRANCH   1  14
ATOM     14  C   UNL     1       6.705   4.816  18.405  0.00  0.00    +0.000 C 
BRANCH  14  15
ATOM     15  C   UNL     1       7.775   5.738  19.017  0.00  0.00    +0.000 C 
BRANCH  15  16
ATOM     16  O   UNL     1       7.886   5.500  20.419  0.00  0.00    +0.000 OA
ATOM     17  H   UNL     1       7.152   4.913  20.662  0.00  0.00    +0.000 HD
ENDBRANCH  15  16
ENDBRANCH  14  15
BRANCH  14  18
ATOM     18  O   UNL     1       5.986   4.180  19.502  0.00  0.00    +0.000 OA
BRANCH  18  19
ATOM     19  C   UNL     1       4.556   4.174  19.277  0.00  0.00    +0.000 C 
BRANCH  19  20
ATOM     20  P   UNL     1       3.932   2.489  19.353  0.00  0.00    +0.000 P 
ATOM     21  O   UNL     1       2.614   2.301  20.024  0.00  0.00    +0.000 OA
BRANCH  20  22
ATOM     22  O   UNL     1       4.002   1.943  17.847  0.00  0.00    +0.000 OA
ATOM     23  H   UNL     1       3.569   2.556  17.219  0.00  0.00    +0.000 HD
ENDBRANCH  20  22
BRANCH  20  24
ATOM     24  O   UNL     1       5.101   1.619  20.024  0.00  0.00    +0.000 OA
ATOM     25  H   UNL     1       5.008   0.675  19.783  0.00  0.00    +0.000 HD
ENDBRANCH  20  24
ENDBRANCH  19  20
ENDBRANCH  18  19
ENDBRANCH  14  18
ENDBRANCH   1  14
TORSDOF 9
ENDMDL
MODEL 9
REMARK VINA RESULT:      -6.5      1.969      3.731
REMARK  Name = 
REMARK  9 active torsions:
REMARK  status: ('A' for Active; 'I' for Inactive)
REMARK    1  A    between atoms: N_8  and  C_9
REMARK    2  A    between atoms: C_9  and  C_10
REMARK    3  A    between atoms: C_10  and  C_11
REMARK    4  A    between atoms: C_10  and  O_13
REMARK    5  A    between atoms: C_11  and  O_12
REMARK    6  A    between atoms: O_13  and  C_14
REMARK    7  A    between atoms: C_14  and  P_15
REMARK    8  A    between atoms: P_15  and  O_17
REMARK    9  A    between atoms: P_15  and  O_18
REMARK                            x       y       z     vdW  Elec       q    Type
REMARK                         _______ _______ _______ _____ _____    ______ ____
ROOT
ATOM      1  C   UNL     1       6.296   5.306  19.178  0.00  0.00    +0.000 C 
ENDROOT
BRANCH   1   9
ATOM      2  N   UNL     1       2.524   1.317  18.536  0.00  0.00    +0.000 N 
ATOM      3  C   UNL     1       2.323   2.554  19.134  0.00  0.00    +0.000 A 
ATOM      4  N   UNL     1       1.129   2.821  19.719  0.00  0.00    +0.000 NA
ATOM      5  C   UNL     1       0.931   4.033  20.318  0.00  0.00    +0.000 A 
ATOM      6  N   UNL     1       1.757   5.099  20.421  0.00  0.00    +0.000 NA
ATOM      7  C   UNL     1       2.948   4.844  19.835  0.00  0.00    +0.000 A 
ATOM      8  N   UNL     1       3.992   5.671  19.776  0.00  0.00    +0.000 NA
ATOM      9  N   UNL     1       4.902   4.914  19.158  0.00  0.00    +0.000 N 
ATOM     10  N   UNL     1       4.548   3.683  18.738  0.00  0.00    +0.000 NA
ATOM     11  C   UNL     1       3.275   3.595  19.191  0.00  0.00    +0.000 A 
ATOM     12  H   UNL     1       1.653   0.853  18.306  0.00  0.00    +0.000 HD
ATOM     13  H   UNL     1       3.258   1.307  17.838  0.00  0.00    +0.000 HD
ENDBRANCH   1   9
BRANCH   1  14
ATOM     14  C   UNL     1       6.840   5.796  17.833  0.00  0.00    +0.000 C 
BRANCH  14  15
ATOM     15  C   UNL     1       7.714   7.048  18.033  0.00  0.00    +0.000 C 
BRANCH  15  16
ATOM     16  O   UNL     1       7.520   7.961  16.954  0.00  0.00    +0.000 OA
ATOM     17  H   UNL     1       8.371   8.034  16.493  0.00  0.00    +0.000 HD
ENDBRANCH  15  16
ENDBRANCH  14  15
BRANCH  14  18
ATOM     18  O   UNL     1       7.666   4.775  17.199  0.00  0.00    +0.000 OA
BRANCH  18  19
ATOM     19  C   UNL     1       6.923   4.018  16.214  0.00  0.00    +0.000 C 
BRANCH  19  20
ATOM     20  P   UNL     1       6.553   5.058  14.795  0.00  0.00    +0.000 P 
ATOM     21  O   UNL     1       5.571   6.157  15.018  0.00  0.00    +0.000 OA
BRANCH  20  22
ATOM     22  O   UNL     1       7.978   5.536  14.237  0.00  0.00    +0.000 OA
ATOM     23  H   UNL     1       8.656   4.836  14.328  0.00  0.00    +0.000 HD
ENDBRANCH  20  22
BRANCH  20  24
ATOM     24  O   UNL     1       6.110   4.058  13.622  0.00  0.00    +0.000 OA
ATOM     25  H   UNL     1       5.706   3.249  13.996  0.00  0.00    +0.000 HD
ENDBRANCH  20  24
ENDBRANCH  19  20
ENDBRANCH  18  19
ENDBRANCH  14  18
ENDBRANCH   1  14
TORSDOF 9
ENDMDL
