MODEL 1
REMARK VINA RESULT:      -8.9      0.000      0.000
REMARK  Name = 
REMARK  6 active torsions:
REMARK  status: ('A' for Active; 'I' for Inactive)
REMARK    1  A    between atoms: C_1  and  N_2
REMARK    2  A    between atoms: N_2  and  C_3
REMARK    3  A    between atoms: C_6  and  N_7
REMARK    4  A    between atoms: N_10  and  C_11
REMARK    5  A    between atoms: C_14  and  S_15
REMARK    6  A    between atoms: S_15  and  C_16
REMARK                            x       y       z     vdW  Elec       q    Type
REMARK                         _______ _______ _______ _____ _____    ______ ____
ROOT
ATOM      1  N   UNL     1       2.466   6.824  20.579  0.00  0.00    +0.000 N 
ATOM      2  C   UNL     1       1.649   7.953  20.532  0.00  0.00    +0.000 C 
ATOM      3  O   UNL     1       1.165   8.436  19.517  0.00  0.00    +0.000 OA
ATOM      4  N   UNL     1       1.473   8.527  21.782  0.00  0.00    +0.000 N 
ATOM      5  H   UNL     1       2.843   6.569  21.473  0.00  0.00    +0.000 HD
ATOM      6  H   UNL     1       2.281   8.481  22.383  0.00  0.00    +0.000 HD
ENDROOT
BRANCH   1  12
ATOM      7  C   UNL     1       5.429   5.339  15.429  0.00  0.00    +0.000 C 
ATOM      8  N   UNL     1       5.103   6.233  16.532  0.00  0.00    +0.000 N 
ATOM      9  C   UNL     1       6.216   6.987  17.111  0.00  0.00    +0.000 C 
ATOM     10  C   UNL     1       4.152   5.728  17.432  0.00  0.00    +0.000 A 
ATOM     11  C   UNL     1       3.757   6.484  18.525  0.00  0.00    +0.000 A 
ATOM     12  C   UNL     1       2.825   6.014  19.453  0.00  0.00    +0.000 A 
ATOM     13  C   UNL     1       2.234   4.744  19.229  0.00  0.00    +0.000 A 
ATOM     14  C   UNL     1       1.274   4.114  20.067  0.00  0.00    +0.000 A 
ATOM     15  C   UNL     1       0.744   2.857  19.755  0.00  0.00    +0.000 A 
ATOM     16  C   UNL     1       1.162   2.205  18.601  0.00  0.00    +0.000 A 
ATOM     17  C   UNL     1       2.119   2.807  17.785  0.00  0.00    +0.000 A 
ATOM     18  C   UNL     1       2.665   4.052  18.073  0.00  0.00    +0.000 A 
ATOM     19  N   UNL     1       3.584   4.527  17.217  0.00  0.00    +0.000 NA
ENDBRANCH   1  12
BRANCH   4  20
ATOM     20  C   UNL     1       0.661   9.683  21.919  0.00  0.00    +0.000 A 
ATOM     21  C   UNL     1       0.901  10.849  21.182  0.00  0.00    +0.000 A 
ATOM     22  C   UNL     1       0.126  11.993  21.388  0.00  0.00    +0.000 A 
ATOM     23  C   UNL     1      -0.898  11.988  22.341  0.00  0.00    +0.000 A 
ATOM     24  C   UNL     1      -1.132  10.823  23.082  0.00  0.00    +0.000 A 
ATOM     25  C   UNL     1      -0.377   9.666  22.850  0.00  0.00    +0.000 A 
BRANCH  23  26
ATOM     26  S   UNL     1      -1.802  13.489  22.657  0.00  0.00    +0.000 S 
BRANCH  26  27
ATOM     27  C   UNL     1      -3.410  13.099  21.951  0.00  0.00    +0.000 C 
ATOM     28  F   UNL     1      -3.349  12.368  20.813  0.00  0.00    +0.000 F 
ATOM     29  F   UNL     1      -4.159  12.393  22.833  0.00  0.00    +0.000 F 
ATOM     30  F   UNL     1      -4.097  14.230  21.662  0.00  0.00    +0.000 F 
ENDBRANCH  26  27
ENDBRANCH  23  26
ENDBRANCH   4  20
TORSDOF 4
ENDMDL
MODEL 2
REMARK VINA RESULT:      -8.7      0.379      1.197
REMARK  Name = 
REMARK  6 active torsions:
REMARK  status: ('A' for Active; 'I' for Inactive)
REMARK    1  A    between atoms: C_1  and  N_2
REMARK    2  A    between atoms: N_2  and  C_3
REMARK    3  A    between atoms: C_6  and  N_7
REMARK    4  A    between atoms: N_10  and  C_11
REMARK    5  A    between atoms: C_14  and  S_15
REMARK    6  A    between atoms: S_15  and  C_16
REMARK                            x       y       z     vdW  Elec       q    Type
REMARK                         _______ _______ _______ _____ _____    ______ ____
ROOT
ATOM      1  N   UNL     1       2.359   6.868  20.649  0.00  0.00    +0.000 N 
ATOM      2  C   UNL     1       1.608   8.041  20.594  0.00  0.00    +0.000 C 
ATOM      3  O   UNL     1       1.198   8.572  19.571  0.00  0.00    +0.000 OA
ATOM      4  N   UNL     1       1.406   8.597  21.849  0.00  0.00    +0.000 N 
ATOM      5  H   UNL     1       2.680   6.573  21.553  0.00  0.00    +0.000 HD
ATOM      6  H   UNL     1       2.183   8.493  22.483  0.00  0.00    +0.000 HD
ENDROOT
BRANCH   1  12
ATOM      7  C   UNL     1       5.335   5.420  15.497  0.00  0.00    +0.000 C 
ATOM      8  N   UNL     1       5.003   6.308  16.602  0.00  0.00    +0.000 N 
ATOM      9  C   UNL     1       6.111   7.067  17.185  0.00  0.00    +0.000 C 
ATOM     10  C   UNL     1       4.054   5.794  17.500  0.00  0.00    +0.000 A 
ATOM     11  C   UNL     1       3.653   6.544  18.595  0.00  0.00    +0.000 A 
ATOM     12  C   UNL     1       2.723   6.064  19.521  0.00  0.00    +0.000 A 
ATOM     13  C   UNL     1       2.141   4.791  19.292  0.00  0.00    +0.000 A 
ATOM     14  C   UNL     1       1.185   4.153  20.127  0.00  0.00    +0.000 A 
ATOM     15  C   UNL     1       0.663   2.893  19.810  0.00  0.00    +0.000 A 
ATOM     16  C   UNL     1       1.086   2.248  18.655  0.00  0.00    +0.000 A 
ATOM     17  C   UNL     1       2.040   2.859  17.841  0.00  0.00    +0.000 A 
ATOM     18  C   UNL     1       2.578   4.107  18.134  0.00  0.00    +0.000 A 
ATOM     19  N   UNL     1       3.494   4.590  17.280  0.00  0.00    +0.000 NA
ENDBRANCH   1  12
BRANCH   4  20
ATOM     20  C   UNL     1       0.653   9.793  21.978  0.00  0.00    +0.000 A 
ATOM     21  C   UNL     1      -0.426   9.896  22.865  0.00  0.00    +0.000 A 
ATOM     22  C   UNL     1      -1.191  11.063  22.921  0.00  0.00    +0.000 A 
ATOM     23  C   UNL     1      -0.890  12.144  22.086  0.00  0.00    +0.000 A 
ATOM     24  C   UNL     1       0.185  12.036  21.195  0.00  0.00    +0.000 A 
ATOM     25  C   UNL     1       0.973  10.878  21.164  0.00  0.00    +0.000 A 
BRANCH  23  26
ATOM     26  S   UNL     1      -1.943  13.580  22.104  0.00  0.00    +0.000 S 
BRANCH  26  27
ATOM     27  C   UNL     1      -3.371  12.993  21.180  0.00  0.00    +0.000 C 
ATOM     28  F   UNL     1      -4.089  13.980  20.592  0.00  0.00    +0.000 F 
ATOM     29  F   UNL     1      -2.985  12.146  20.195  0.00  0.00    +0.000 F 
ATOM     30  F   UNL     1      -4.218  12.308  21.984  0.00  0.00    +0.000 F 
ENDBRANCH  26  27
ENDBRANCH  23  26
ENDBRANCH   4  20
TORSDOF 4
ENDMDL
MODEL 3
REMARK VINA RESULT:      -8.5      1.368      1.765
REMARK  Name = 
REMARK  6 active torsions:
REMARK  status: ('A' for Active; 'I' for Inactive)
REMARK    1  A    between atoms: C_1  and  N_2
REMARK    2  A    between atoms: N_2  and  C_3
REMARK    3  A    between atoms: C_6  and  N_7
REMARK    4  A    between atoms: N_10  and  C_11
REMARK    5  A    between atoms: C_14  and  S_15
REMARK    6  A    between atoms: S_15  and  C_16
REMARK                            x       y       z     vdW  Elec       q    Type
REMARK                         _______ _______ _______ _____ _____    ______ ____
ROOT
ATOM      1  N   UNL     1       2.431   6.865  20.615  0.00  0.00    +0.000 N 
ATOM      2  C   UNL     1       1.629   8.004  20.569  0.00  0.00    +0.000 C 
ATOM      3  O   UNL     1       1.155   8.496  19.554  0.00  0.00    +0.000 OA
ATOM      4  N   UNL     1       1.457   8.578  21.819  0.00  0.00    +0.000 N 
ATOM      5  H   UNL     1       2.802   6.603  21.510  0.00  0.00    +0.000 HD
ATOM      6  H   UNL     1       2.263   8.520  22.422  0.00  0.00    +0.000 HD
ENDROOT
BRANCH   1  12
ATOM      7  C   UNL     1       5.373   5.365  15.457  0.00  0.00    +0.000 C 
ATOM      8  N   UNL     1       5.054   6.261  16.561  0.00  0.00    +0.000 N 
ATOM      9  C   UNL     1       6.173   7.010  17.137  0.00  0.00    +0.000 C 
ATOM     10  C   UNL     1       4.103   5.761  17.464  0.00  0.00    +0.000 A 
ATOM     11  C   UNL     1       3.715   6.519  18.557  0.00  0.00    +0.000 A 
ATOM     12  C   UNL     1       2.783   6.054  19.488  0.00  0.00    +0.000 A 
ATOM     13  C   UNL     1       2.185   4.786  19.266  0.00  0.00    +0.000 A 
ATOM     14  C   UNL     1       1.225   4.162  20.106  0.00  0.00    +0.000 A 
ATOM     15  C   UNL     1       0.687   2.907  19.795  0.00  0.00    +0.000 A 
ATOM     16  C   UNL     1       1.099   2.253  18.641  0.00  0.00    +0.000 A 
ATOM     17  C   UNL     1       2.056   2.850  17.822  0.00  0.00    +0.000 A 
ATOM     18  C   UNL     1       2.610   4.093  18.108  0.00  0.00    +0.000 A 
ATOM     19  N   UNL     1       3.529   4.563  17.250  0.00  0.00    +0.000 NA
ENDBRANCH   1  12
BRANCH   4  20
ATOM     20  C   UNL     1       0.659   9.744  21.957  0.00  0.00    +0.000 A 
ATOM     21  C   UNL     1      -0.343   9.845  22.931  0.00  0.00    +0.000 A 
ATOM     22  C   UNL     1      -1.157  10.978  22.998  0.00  0.00    +0.000 A 
ATOM     23  C   UNL     1      -0.984  12.026  22.088  0.00  0.00    +0.000 A 
ATOM     24  C   UNL     1       0.014  11.919  21.111  0.00  0.00    +0.000 A 
ATOM     25  C   UNL     1       0.852  10.798  21.066  0.00  0.00    +0.000 A 
BRANCH  23  26
ATOM     26  S   UNL     1      -2.101  13.411  22.130  0.00  0.00    +0.000 S 
BRANCH  26  27
ATOM     27  C   UNL     1      -1.204  14.568  23.177  0.00  0.00    +0.000 C 
ATOM     28  F   UNL     1      -1.243  14.261  24.495  0.00  0.00    +0.000 F 
ATOM     29  F   UNL     1       0.103  14.617  22.821  0.00  0.00    +0.000 F 
ATOM     30  F   UNL     1      -1.699  15.822  23.044  0.00  0.00    +0.000 F 
ENDBRANCH  26  27
ENDBRANCH  23  26
ENDBRANCH   4  20
TORSDOF 4
ENDMDL
MODEL 4
REMARK VINA RESULT:      -8.5      2.212      2.665
REMARK  Name = 
REMARK  6 active torsions:
REMARK  status: ('A' for Active; 'I' for Inactive)
REMARK    1  A    between atoms: C_1  and  N_2
REMARK    2  A    between atoms: N_2  and  C_3
REMARK    3  A    between atoms: C_6  and  N_7
REMARK    4  A    between atoms: N_10  and  C_11
REMARK    5  A    between atoms: C_14  and  S_15
REMARK    6  A    between atoms: S_15  and  C_16
REMARK                            x       y       z     vdW  Elec       q    Type
REMARK                         _______ _______ _______ _____ _____    ______ ____
ROOT
ATOM      1  N   UNL     1       2.951   7.742  17.238  0.00  0.00    +0.000 N 
ATOM      2  C   UNL     1       2.154   8.423  18.157  0.00  0.00    +0.000 C 
ATOM      3  O   UNL     1       1.991   8.102  19.327  0.00  0.00    +0.000 OA
ATOM      4  N   UNL     1       1.500   9.505  17.589  0.00  0.00    +0.000 N 
ATOM      5  H   UNL     1       2.950   8.081  16.293  0.00  0.00    +0.000 HD
ATOM      6  H   UNL     1       1.207   9.363  16.634  0.00  0.00    +0.000 HD
ENDROOT
BRANCH   1  12
ATOM      7  C   UNL     1       8.099   4.542  18.113  0.00  0.00    +0.000 C 
ATOM      8  N   UNL     1       7.358   5.753  17.785  0.00  0.00    +0.000 N 
ATOM      9  C   UNL     1       7.892   7.008  18.317  0.00  0.00    +0.000 C 
ATOM     10  C   UNL     1       5.962   5.607  17.803  0.00  0.00    +0.000 A 
ATOM     11  C   UNL     1       5.146   6.688  17.508  0.00  0.00    +0.000 A 
ATOM     12  C   UNL     1       3.752   6.591  17.528  0.00  0.00    +0.000 A 
ATOM     13  C   UNL     1       3.169   5.328  17.810  0.00  0.00    +0.000 A 
ATOM     14  C   UNL     1       1.778   5.051  17.873  0.00  0.00    +0.000 A 
ATOM     15  C   UNL     1       1.300   3.765  18.154  0.00  0.00    +0.000 A 
ATOM     16  C   UNL     1       2.204   2.734  18.377  0.00  0.00    +0.000 A 
ATOM     17  C   UNL     1       3.571   3.002  18.337  0.00  0.00    +0.000 A 
ATOM     18  C   UNL     1       4.073   4.270  18.065  0.00  0.00    +0.000 A 
ATOM     19  N   UNL     1       5.408   4.408  18.062  0.00  0.00    +0.000 NA
ENDBRANCH   1  12
BRANCH   4  20
ATOM     20  C   UNL     1       0.651  10.316  18.387  0.00  0.00    +0.000 A 
ATOM     21  C   UNL     1       1.160  11.285  19.260  0.00  0.00    +0.000 A 
ATOM     22  C   UNL     1       0.303  12.021  20.082  0.00  0.00    +0.000 A 
ATOM     23  C   UNL     1      -1.076  11.794  20.046  0.00  0.00    +0.000 A 
ATOM     24  C   UNL     1      -1.582  10.819  19.176  0.00  0.00    +0.000 A 
ATOM     25  C   UNL     1      -0.726  10.106  18.328  0.00  0.00    +0.000 A 
BRANCH  23  26
ATOM     26  S   UNL     1      -2.134  12.671  21.177  0.00  0.00    +0.000 S 
BRANCH  26  27
ATOM     27  C   UNL     1      -1.773  11.838  22.731  0.00  0.00    +0.000 C 
ATOM     28  F   UNL     1      -1.245  10.600  22.582  0.00  0.00    +0.000 F 
ATOM     29  F   UNL     1      -0.889  12.559  23.463  0.00  0.00    +0.000 F 
ATOM     30  F   UNL     1      -2.895  11.706  23.479  0.00  0.00    +0.000 F 
ENDBRANCH  26  27
ENDBRANCH  23  26
ENDBRANCH   4  20
TORSDOF 4
ENDMDL
MODEL 5
REMARK VINA RESULT:      -8.4      2.082      2.565
REMARK  Name = 
REMARK  6 active torsions:
REMARK  status: ('A' for Active; 'I' for Inactive)
REMARK    1  A    between atoms: C_1  and  N_2
REMARK    2  A    between atoms: N_2  and  C_3
REMARK    3  A    between atoms: C_6  and  N_7
REMARK    4  A    between atoms: N_10  and  C_11
REMARK    5  A    between atoms: C_14  and  S_15
REMARK    6  A    between atoms: S_15  and  C_16
REMARK                            x       y       z     vdW  Elec       q    Type
REMARK                         _______ _______ _______ _____ _____    ______ ____
ROOT
ATOM      1  N   UNL     1       2.710   7.620  17.316  0.00  0.00    +0.000 N 
ATOM      2  C   UNL     1       2.120   8.395  18.312  0.00  0.00    +0.000 C 
ATOM      3  O   UNL     1       2.199   8.183  19.515  0.00  0.00    +0.000 OA
ATOM      4  N   UNL     1       1.364   9.435  17.793  0.00  0.00    +0.000 N 
ATOM      5  H   UNL     1       2.516   7.873  16.364  0.00  0.00    +0.000 HD
ATOM      6  H   UNL     1       0.882   9.215  16.935  0.00  0.00    +0.000 HD
ENDROOT
BRANCH   1  12
ATOM      7  C   UNL     1       7.971   4.533  17.869  0.00  0.00    +0.000 C 
ATOM      8  N   UNL     1       7.186   5.732  17.605  0.00  0.00    +0.000 N 
ATOM      9  C   UNL     1       7.714   6.988  18.142  0.00  0.00    +0.000 C 
ATOM     10  C   UNL     1       5.796   5.550  17.686  0.00  0.00    +0.000 A 
ATOM     11  C   UNL     1       4.940   6.616  17.456  0.00  0.00    +0.000 A 
ATOM     12  C   UNL     1       3.552   6.483  17.540  0.00  0.00    +0.000 A 
ATOM     13  C   UNL     1       3.015   5.200  17.819  0.00  0.00    +0.000 A 
ATOM     14  C   UNL     1       1.635   4.885  17.942  0.00  0.00    +0.000 A 
ATOM     15  C   UNL     1       1.203   3.582  18.214  0.00  0.00    +0.000 A 
ATOM     16  C   UNL     1       2.141   2.569  18.369  0.00  0.00    +0.000 A 
ATOM     17  C   UNL     1       3.498   2.874  18.271  0.00  0.00    +0.000 A 
ATOM     18  C   UNL     1       3.955   4.159  18.006  0.00  0.00    +0.000 A 
ATOM     19  N   UNL     1       5.285   4.332  17.942  0.00  0.00    +0.000 NA
ENDBRANCH   1  12
BRANCH   4  20
ATOM     20  C   UNL     1       0.698  10.331  18.670  0.00  0.00    +0.000 A 
ATOM     21  C   UNL     1      -0.653  10.174  19.002  0.00  0.00    +0.000 A 
ATOM     22  C   UNL     1      -1.298  11.110  19.814  0.00  0.00    +0.000 A 
ATOM     23  C   UNL     1      -0.602  12.221  20.301  0.00  0.00    +0.000 A 
ATOM     24  C   UNL     1       0.748  12.379  19.961  0.00  0.00    +0.000 A 
ATOM     25  C   UNL     1       1.403  11.422  19.176  0.00  0.00    +0.000 A 
BRANCH  23  26
ATOM     26  S   UNL     1      -1.473  13.451  21.247  0.00  0.00    +0.000 S 
BRANCH  26  27
ATOM     27  C   UNL     1      -1.696  12.608  22.820  0.00  0.00    +0.000 C 
ATOM     28  F   UNL     1      -2.846  11.898  22.906  0.00  0.00    +0.000 F 
ATOM     29  F   UNL     1      -0.679  11.740  23.044  0.00  0.00    +0.000 F 
ATOM     30  F   UNL     1      -1.696  13.493  23.846  0.00  0.00    +0.000 F 
ENDBRANCH  26  27
ENDBRANCH  23  26
ENDBRANCH   4  20
TORSDOF 4
ENDMDL
MODEL 6
REMARK VINA RESULT:      -8.4      2.110      4.023
REMARK  Name = 
REMARK  6 active torsions:
REMARK  status: ('A' for Active; 'I' for Inactive)
REMARK    1  A    between atoms: C_1  and  N_2
REMARK    2  A    between atoms: N_2  and  C_3
REMARK    3  A    between atoms: C_6  and  N_7
REMARK    4  A    between atoms: N_10  and  C_11
REMARK    5  A    between atoms: C_14  and  S_15
REMARK    6  A    between atoms: S_15  and  C_16
REMARK                            x       y       z     vdW  Elec       q    Type
REMARK                         _______ _______ _______ _____ _____    ______ ____
ROOT
ATOM      1  N   UNL     1       2.897   7.668  17.506  0.00  0.00    +0.000 N 
ATOM      2  C   UNL     1       2.077   8.407  18.357  0.00  0.00    +0.000 C 
ATOM      3  O   UNL     1       1.775   8.091  19.500  0.00  0.00    +0.000 OA
ATOM      4  N   UNL     1       1.577   9.548  17.748  0.00  0.00    +0.000 N 
ATOM      5  H   UNL     1       3.016   8.015  16.571  0.00  0.00    +0.000 HD
ATOM      6  H   UNL     1       1.366   9.442  16.768  0.00  0.00    +0.000 HD
ENDROOT
BRANCH   1  12
ATOM      7  C   UNL     1       3.387   1.838  19.316  0.00  0.00    +0.000 C 
ATOM      8  N   UNL     1       2.634   3.047  19.007  0.00  0.00    +0.000 N 
ATOM      9  C   UNL     1       1.359   2.861  18.311  0.00  0.00    +0.000 C 
ATOM     10  C   UNL     1       3.419   4.136  18.598  0.00  0.00    +0.000 A 
ATOM     11  C   UNL     1       2.821   5.344  18.276  0.00  0.00    +0.000 A 
ATOM     12  C   UNL     1       3.564   6.448  17.850  0.00  0.00    +0.000 A 
ATOM     13  C   UNL     1       4.977   6.331  17.801  0.00  0.00    +0.000 A 
ATOM     14  C   UNL     1       5.881   7.347  17.393  0.00  0.00    +0.000 A 
ATOM     15  C   UNL     1       7.265   7.135  17.386  0.00  0.00    +0.000 A 
ATOM     16  C   UNL     1       7.770   5.904  17.786  0.00  0.00    +0.000 A 
ATOM     17  C   UNL     1       6.888   4.895  18.168  0.00  0.00    +0.000 A 
ATOM     18  C   UNL     1       5.510   5.076  18.180  0.00  0.00    +0.000 A 
ATOM     19  N   UNL     1       4.760   4.029  18.560  0.00  0.00    +0.000 NA
ENDBRANCH   1  12
BRANCH   4  20
ATOM     20  C   UNL     1       0.729  10.423  18.476  0.00  0.00    +0.000 A 
ATOM     21  C   UNL     1       1.238  11.385  19.357  0.00  0.00    +0.000 A 
ATOM     22  C   UNL     1       0.376  12.186  20.111  0.00  0.00    +0.000 A 
ATOM     23  C   UNL     1      -1.009  12.032  19.998  0.00  0.00    +0.000 A 
ATOM     24  C   UNL     1      -1.516  11.064  19.121  0.00  0.00    +0.000 A 
ATOM     25  C   UNL     1      -0.652  10.286  18.340  0.00  0.00    +0.000 A 
BRANCH  23  26
ATOM     26  S   UNL     1      -2.082  12.992  21.044  0.00  0.00    +0.000 S 
BRANCH  26  27
ATOM     27  C   UNL     1      -1.840  12.196  22.639  0.00  0.00    +0.000 C 
ATOM     28  F   UNL     1      -2.952  12.161  23.411  0.00  0.00    +0.000 F 
ATOM     29  F   UNL     1      -1.433  10.914  22.475  0.00  0.00    +0.000 F 
ATOM     30  F   UNL     1      -0.878  12.829  23.353  0.00  0.00    +0.000 F 
ENDBRANCH  26  27
ENDBRANCH  23  26
ENDBRANCH   4  20
TORSDOF 4
ENDMDL
MODEL 7
REMARK VINA RESULT:      -8.3      1.416      1.543
REMARK  Name = 
REMARK  6 active torsions:
REMARK  status: ('A' for Active; 'I' for Inactive)
REMARK    1  A    between atoms: C_1  and  N_2
REMARK    2  A    between atoms: N_2  and  C_3
REMARK    3  A    between atoms: C_6  and  N_7
REMARK    4  A    between atoms: N_10  and  C_11
REMARK    5  A    between atoms: C_14  and  S_15
REMARK    6  A    between atoms: S_15  and  C_16
REMARK                            x       y       z     vdW  Elec       q    Type
REMARK                         _______ _______ _______ _____ _____    ______ ____
ROOT
ATOM      1  N   UNL     1       2.528   6.830  20.456  0.00  0.00    +0.000 N 
ATOM      2  C   UNL     1       1.618   7.884  20.384  0.00  0.00    +0.000 C 
ATOM      3  O   UNL     1       1.060   8.268  19.365  0.00  0.00    +0.000 OA
ATOM      4  N   UNL     1       1.439   8.511  21.607  0.00  0.00    +0.000 N 
ATOM      5  H   UNL     1       2.957   6.657  21.347  0.00  0.00    +0.000 HD
ATOM      6  H   UNL     1       2.269   8.565  22.177  0.00  0.00    +0.000 HD
ENDROOT
BRANCH   1  12
ATOM      7  C   UNL     1       5.604   5.216  15.412  0.00  0.00    +0.000 C 
ATOM      8  N   UNL     1       5.251   6.139  16.483  0.00  0.00    +0.000 N 
ATOM      9  C   UNL     1       6.350   6.914  17.064  0.00  0.00    +0.000 C 
ATOM     10  C   UNL     1       4.283   5.655  17.377  0.00  0.00    +0.000 A 
ATOM     11  C   UNL     1       3.863   6.439  18.440  0.00  0.00    +0.000 A 
ATOM     12  C   UNL     1       2.913   5.991  19.361  0.00  0.00    +0.000 A 
ATOM     13  C   UNL     1       2.332   4.713  19.161  0.00  0.00    +0.000 A 
ATOM     14  C   UNL     1       1.358   4.102  19.995  0.00  0.00    +0.000 A 
ATOM     15  C   UNL     1       0.839   2.834  19.708  0.00  0.00    +0.000 A 
ATOM     16  C   UNL     1       1.283   2.153  18.582  0.00  0.00    +0.000 A 
ATOM     17  C   UNL     1       2.255   2.736  17.769  0.00  0.00    +0.000 A 
ATOM     18  C   UNL     1       2.790   3.991  18.033  0.00  0.00    +0.000 A 
ATOM     19  N   UNL     1       3.725   4.446  17.184  0.00  0.00    +0.000 NA
ENDBRANCH   1  12
BRANCH   4  20
ATOM     20  C   UNL     1       0.538   9.602  21.716  0.00  0.00    +0.000 A 
ATOM     21  C   UNL     1       0.446  10.588  20.726  0.00  0.00    +0.000 A 
ATOM     22  C   UNL     1      -0.402  11.686  20.893  0.00  0.00    +0.000 A 
ATOM     23  C   UNL     1      -1.167  11.816  22.057  0.00  0.00    +0.000 A 
ATOM     24  C   UNL     1      -1.068  10.831  23.049  0.00  0.00    +0.000 A 
ATOM     25  C   UNL     1      -0.244   9.714  22.865  0.00  0.00    +0.000 A 
BRANCH  23  26
ATOM     26  S   UNL     1      -2.159  13.275  22.291  0.00  0.00    +0.000 S 
BRANCH  26  27
ATOM     27  C   UNL     1      -0.977  14.399  23.050  0.00  0.00    +0.000 C 
ATOM     28  F   UNL     1      -1.192  15.704  22.756  0.00  0.00    +0.000 F 
ATOM     29  F   UNL     1      -1.014  14.288  24.400  0.00  0.00    +0.000 F 
ATOM     30  F   UNL     1       0.286  14.105  22.661  0.00  0.00    +0.000 F 
ENDBRANCH  26  27
ENDBRANCH  23  26
ENDBRANCH   4  20
TORSDOF 4
ENDMDL
MODEL 8
REMARK VINA RESULT:      -8.2      1.547      1.907
REMARK  Name = 
REMARK  6 active torsions:
REMARK  status: ('A' for Active; 'I' for Inactive)
REMARK    1  A    between atoms: C_1  and  N_2
REMARK    2  A    between atoms: N_2  and  C_3
REMARK    3  A    between atoms: C_6  and  N_7
REMARK    4  A    between atoms: N_10  and  C_11
REMARK    5  A    between atoms: C_14  and  S_15
REMARK    6  A    between atoms: S_15  and  C_16
REMARK                            x       y       z     vdW  Elec       q    Type
REMARK                         _______ _______ _______ _____ _____    ______ ____
ROOT
ATOM      1  N   UNL     1       2.310   7.341  17.867  0.00  0.00    +0.000 N 
ATOM      2  C   UNL     1       1.993   8.106  18.988  0.00  0.00    +0.000 C 
ATOM      3  O   UNL     1       2.412   7.910  20.121  0.00  0.00    +0.000 OA
ATOM      4  N   UNL     1       1.086   9.114  18.699  0.00  0.00    +0.000 N 
ATOM      5  H   UNL     1       1.849   7.578  17.007  0.00  0.00    +0.000 HD
ATOM      6  H   UNL     1       0.392   8.869  18.010  0.00  0.00    +0.000 HD
ENDROOT
BRANCH   1  12
ATOM      7  C   UNL     1       7.714   4.510  17.335  0.00  0.00    +0.000 C 
ATOM      8  N   UNL     1       6.851   5.684  17.313  0.00  0.00    +0.000 N 
ATOM      9  C   UNL     1       7.402   6.908  17.896  0.00  0.00    +0.000 C 
ATOM     10  C   UNL     1       5.497   5.419  17.573  0.00  0.00    +0.000 A 
ATOM     11  C   UNL     1       4.575   6.453  17.580  0.00  0.00    +0.000 A 
ATOM     12  C   UNL     1       3.221   6.236  17.848  0.00  0.00    +0.000 A 
ATOM     13  C   UNL     1       2.783   4.904  18.066  0.00  0.00    +0.000 A 
ATOM     14  C   UNL     1       1.450   4.503  18.352  0.00  0.00    +0.000 A 
ATOM     15  C   UNL     1       1.116   3.158  18.545  0.00  0.00    +0.000 A 
ATOM     16  C   UNL     1       2.107   2.188  18.458  0.00  0.00    +0.000 A 
ATOM     17  C   UNL     1       3.421   2.575  18.199  0.00  0.00    +0.000 A 
ATOM     18  C   UNL     1       3.782   3.904  18.006  0.00  0.00    +0.000 A 
ATOM     19  N   UNL     1       5.079   4.155  17.771  0.00  0.00    +0.000 NA
ENDBRANCH   1  12
BRANCH   4  20
ATOM     20  C   UNL     1       0.659   9.996  19.726  0.00  0.00    +0.000 A 
ATOM     21  C   UNL     1      -0.094   9.550  20.819  0.00  0.00    +0.000 A 
ATOM     22  C   UNL     1      -0.557  10.454  21.779  0.00  0.00    +0.000 A 
ATOM     23  C   UNL     1      -0.277  11.818  21.656  0.00  0.00    +0.000 A 
ATOM     24  C   UNL     1       0.471  12.262  20.558  0.00  0.00    +0.000 A 
ATOM     25  C   UNL     1       0.964  11.352  19.615  0.00  0.00    +0.000 A 
BRANCH  23  26
ATOM     26  S   UNL     1      -0.965  12.960  22.836  0.00  0.00    +0.000 S 
BRANCH  26  27
ATOM     27  C   UNL     1      -2.730  12.682  22.621  0.00  0.00    +0.000 C 
ATOM     28  F   UNL     1      -3.084  12.346  21.358  0.00  0.00    +0.000 F 
ATOM     29  F   UNL     1      -3.157  11.683  23.430  0.00  0.00    +0.000 F 
ATOM     30  F   UNL     1      -3.436  13.790  22.952  0.00  0.00    +0.000 F 
ENDBRANCH  26  27
ENDBRANCH  23  26
ENDBRANCH   4  20
TORSDOF 4
ENDMDL
MODEL 9
REMARK VINA RESULT:      -8.1      1.680      2.005
REMARK  Name = 
REMARK  6 active torsions:
REMARK  status: ('A' for Active; 'I' for Inactive)
REMARK    1  A    between atoms: C_1  and  N_2
REMARK    2  A    between atoms: N_2  and  C_3
REMARK    3  A    between atoms: C_6  and  N_7
REMARK    4  A    between atoms: N_10  and  C_11
REMARK    5  A    between atoms: C_14  and  S_15
REMARK    6  A    between atoms: S_15  and  C_16
REMARK                            x       y       z     vdW  Elec       q    Type
REMARK                         _______ _______ _______ _____ _____    ______ ____
ROOT
ATOM      1  N   UNL     1       2.397   7.351  17.699  0.00  0.00    +0.000 N 
ATOM      2  C   UNL     1       1.977   8.127  18.777  0.00  0.00    +0.000 C 
ATOM      3  O   UNL     1       2.286   7.941  19.947  0.00  0.00    +0.000 OA
ATOM      4  N   UNL     1       1.103   9.133  18.394  0.00  0.00    +0.000 N 
ATOM      5  H   UNL     1       2.021   7.579  16.796  0.00  0.00    +0.000 HD
ATOM      6  H   UNL     1       0.477   8.881  17.644  0.00  0.00    +0.000 HD
ENDROOT
BRANCH   1  12
ATOM      7  C   UNL     1       7.815   4.497  17.608  0.00  0.00    +0.000 C 
ATOM      8  N   UNL     1       6.959   5.670  17.489  0.00  0.00    +0.000 N 
ATOM      9  C   UNL     1       7.476   6.915  18.060  0.00  0.00    +0.000 C 
ATOM     10  C   UNL     1       5.591   5.416  17.674  0.00  0.00    +0.000 A 
ATOM     11  C   UNL     1       4.673   6.451  17.586  0.00  0.00    +0.000 A 
ATOM     12  C   UNL     1       3.304   6.245  17.777  0.00  0.00    +0.000 A 
ATOM     13  C   UNL     1       2.849   4.922  18.016  0.00  0.00    +0.000 A 
ATOM     14  C   UNL     1       1.501   4.534  18.233  0.00  0.00    +0.000 A 
ATOM     15  C   UNL     1       1.151   3.197  18.454  0.00  0.00    +0.000 A 
ATOM     16  C   UNL     1       2.142   2.223  18.464  0.00  0.00    +0.000 A 
ATOM     17  C   UNL     1       3.471   2.599  18.273  0.00  0.00    +0.000 A 
ATOM     18  C   UNL     1       3.847   3.920  18.055  0.00  0.00    +0.000 A 
ATOM     19  N   UNL     1       5.157   4.161  17.892  0.00  0.00    +0.000 NA
ENDBRANCH   1  12
BRANCH   4  20
ATOM     20  C   UNL     1       0.582  10.025  19.367  0.00  0.00    +0.000 A 
ATOM     21  C   UNL     1       0.727  11.413  19.253  0.00  0.00    +0.000 A 
ATOM     22  C   UNL     1       0.263  12.262  20.261  0.00  0.00    +0.000 A 
ATOM     23  C   UNL     1      -0.349  11.732  21.402  0.00  0.00    +0.000 A 
ATOM     24  C   UNL     1      -0.486  10.343  21.517  0.00  0.00    +0.000 A 
ATOM     25  C   UNL     1      -0.052   9.496  20.490  0.00  0.00    +0.000 A 
BRANCH  23  26
ATOM     26  S   UNL     1      -0.837  12.828  22.717  0.00  0.00    +0.000 S 
BRANCH  26  27
ATOM     27  C   UNL     1      -2.623  12.611  22.725  0.00  0.00    +0.000 C 
ATOM     28  F   UNL     1      -3.310  13.714  23.105  0.00  0.00    +0.000 F 
ATOM     29  F   UNL     1      -3.068  12.275  21.490  0.00  0.00    +0.000 F 
ATOM     30  F   UNL     1      -2.983  11.608  23.562  0.00  0.00    +0.000 F 
ENDBRANCH  26  27
ENDBRANCH  23  26
ENDBRANCH   4  20
TORSDOF 4
ENDMDL
