MODEL 1
REMARK VINA RESULT:      -7.6      0.000      0.000
REMARK  Name = 
REMARK  4 active torsions:
REMARK  status: ('A' for Active; 'I' for Inactive)
REMARK    1  A    between atoms: C_1  and  C_2
REMARK    2  A    between atoms: C_12  and  N_13
REMARK    3  A    between atoms: N_13  and  C_14
REMARK    4  A    between atoms: N_17  and  C_18
REMARK                            x       y       z     vdW  Elec       q    Type
REMARK                         _______ _______ _______ _____ _____    ______ ____
ROOT
ATOM      1  C   UNL     1       1.423   8.192  21.214  0.00  0.00    +0.000 C 
ATOM      2  C   UNL     1       1.838   7.123  20.247  0.00  0.00    +0.000 A 
ATOM      3  C   UNL     1       2.178   7.445  18.930  0.00  0.00    +0.000 A 
ATOM      4  C   UNL     1       2.659   6.461  18.067  0.00  0.00    +0.000 A 
ATOM      5  C   UNL     1       2.806   5.130  18.499  0.00  0.00    +0.000 A 
ATOM      6  C   UNL     1       2.382   4.800  19.792  0.00  0.00    +0.000 A 
ATOM      7  C   UNL     1       1.933   5.791  20.667  0.00  0.00    +0.000 A 
ATOM      8  O   UNL     1       2.481   3.529  20.286  0.00  0.00    +0.000 OA
ATOM      9  C   UNL     1       1.595   2.629  19.617  0.00  0.00    +0.000 C 
ATOM     10  C   UNL     1       2.192   2.001  18.360  0.00  0.00    +0.000 C 
ATOM     11  C   UNL     1       2.473   2.998  17.232  0.00  0.00    +0.000 C 
ATOM     12  C   UNL     1       3.466   4.122  17.587  0.00  0.00    +0.000 C 
ENDROOT
BRANCH  12  13
ATOM     13  N   UNL     1       4.705   3.538  18.122  0.00  0.00    +0.000 NA
ATOM     14  H   UNL     1       4.853   2.615  17.720  0.00  0.00    +0.000 HD
BRANCH  13  15
ATOM     15  C   UNL     1       5.927   4.343  17.988  0.00  0.00    +0.000 C 
ATOM     16  C   UNL     1       6.210   5.204  19.223  0.00  0.00    +0.000 C 
ATOM     17  C   UNL     1       7.365   6.173  18.965  0.00  0.00    +0.000 C 
ATOM     18  N   UNL     1       7.080   7.019  17.801  0.00  0.00    +0.000 NA
ATOM     19  C   UNL     1       8.119   8.029  17.621  0.00  0.00    +0.000 C 
ATOM     20  C   UNL     1       6.936   6.197  16.593  0.00  0.00    +0.000 C 
ATOM     21  C   UNL     1       5.761   5.231  16.747  0.00  0.00    +0.000 C 
ENDBRANCH  13  15
ENDBRANCH  12  13
TORSDOF 2
ENDMDL
MODEL 2
REMARK VINA RESULT:      -7.4      2.225      4.987
REMARK  Name = 
REMARK  4 active torsions:
REMARK  status: ('A' for Active; 'I' for Inactive)
REMARK    1  A    between atoms: C_1  and  C_2
REMARK    2  A    between atoms: C_12  and  N_13
REMARK    3  A    between atoms: N_13  and  C_14
REMARK    4  A    between atoms: N_17  and  C_18
REMARK                            x       y       z     vdW  Elec       q    Type
REMARK                         _______ _______ _______ _____ _____    ______ ____
ROOT
ATOM      1  C   UNL     1       7.051   4.762  14.932  0.00  0.00    +0.000 C 
ATOM      2  C   UNL     1       6.220   4.598  16.169  0.00  0.00    +0.000 A 
ATOM      3  C   UNL     1       6.669   5.084  17.400  0.00  0.00    +0.000 A 
ATOM      4  C   UNL     1       5.848   5.018  18.525  0.00  0.00    +0.000 A 
ATOM      5  C   UNL     1       4.560   4.457  18.447  0.00  0.00    +0.000 A 
ATOM      6  C   UNL     1       4.152   3.895  17.232  0.00  0.00    +0.000 A 
ATOM      7  C   UNL     1       4.960   3.993  16.097  0.00  0.00    +0.000 A 
ATOM      8  O   UNL     1       2.920   3.322  17.074  0.00  0.00    +0.000 OA
ATOM      9  C   UNL     1       2.794   2.117  17.832  0.00  0.00    +0.000 C 
ATOM     10  C   UNL     1       2.315   2.340  19.263  0.00  0.00    +0.000 C 
ATOM     11  C   UNL     1       3.301   3.115  20.143  0.00  0.00    +0.000 C 
ATOM     12  C   UNL     1       3.643   4.533  19.646  0.00  0.00    +0.000 C 
ENDROOT
BRANCH  12  13
ATOM     13  N   UNL     1       2.404   5.290  19.416  0.00  0.00    +0.000 NA
ATOM     14  H   UNL     1       1.669   4.942  20.028  0.00  0.00    +0.000 HD
BRANCH  13  15
ATOM     15  C   UNL     1       2.493   6.753  19.523  0.00  0.00    +0.000 C 
ATOM     16  C   UNL     1       1.476   7.340  20.507  0.00  0.00    +0.000 C 
ATOM     17  C   UNL     1       1.461   8.868  20.436  0.00  0.00    +0.000 C 
ATOM     18  N   UNL     1       1.176   9.320  19.070  0.00  0.00    +0.000 NA
ATOM     19  C   UNL     1       1.037  10.772  19.016  0.00  0.00    +0.000 C 
ATOM     20  C   UNL     1       2.224   8.861  18.149  0.00  0.00    +0.000 C 
ATOM     21  C   UNL     1       2.270   7.333  18.118  0.00  0.00    +0.000 C 
ENDBRANCH  13  15
ENDBRANCH  12  13
TORSDOF 2
ENDMDL
MODEL 3
REMARK VINA RESULT:      -7.4      2.313      5.651
REMARK  Name = 
REMARK  4 active torsions:
REMARK  status: ('A' for Active; 'I' for Inactive)
REMARK    1  A    between atoms: C_1  and  C_2
REMARK    2  A    between atoms: C_12  and  N_13
REMARK    3  A    between atoms: N_13  and  C_14
REMARK    4  A    between atoms: N_17  and  C_18
REMARK                            x       y       z     vdW  Elec       q    Type
REMARK                         _______ _______ _______ _____ _____    ______ ____
ROOT
ATOM      1  C   UNL     1       8.654   8.594  18.609  0.00  0.00    +0.000 C 
ATOM      2  C   UNL     1       7.900   7.374  18.169  0.00  0.00    +0.000 A 
ATOM      3  C   UNL     1       7.732   6.288  19.032  0.00  0.00    +0.000 A 
ATOM      4  C   UNL     1       6.946   5.201  18.652  0.00  0.00    +0.000 A 
ATOM      5  C   UNL     1       6.314   5.172  17.395  0.00  0.00    +0.000 A 
ATOM      6  C   UNL     1       6.557   6.223  16.504  0.00  0.00    +0.000 A 
ATOM      7  C   UNL     1       7.316   7.328  16.897  0.00  0.00    +0.000 A 
ATOM      8  O   UNL     1       5.989   6.267  15.261  0.00  0.00    +0.000 OA
ATOM      9  C   UNL     1       6.501   5.241  14.407  0.00  0.00    +0.000 C 
ATOM     10  C   UNL     1       5.747   3.919  14.515  0.00  0.00    +0.000 C 
ATOM     11  C   UNL     1       5.875   3.231  15.878  0.00  0.00    +0.000 C 
ATOM     12  C   UNL     1       5.353   4.050  17.074  0.00  0.00    +0.000 C 
ENDROOT
BRANCH  12  13
ATOM     13  N   UNL     1       3.974   4.489  16.810  0.00  0.00    +0.000 NA
ATOM     14  H   UNL     1       3.677   4.159  15.894  0.00  0.00    +0.000 HD
BRANCH  13  15
ATOM     15  C   UNL     1       2.965   4.138  17.818  0.00  0.00    +0.000 C 
ATOM     16  C   UNL     1       3.026   5.036  19.058  0.00  0.00    +0.000 C 
ATOM     17  C   UNL     1       2.105   4.513  20.162  0.00  0.00    +0.000 C 
ATOM     18  N   UNL     1       2.449   3.130  20.510  0.00  0.00    +0.000 NA
ATOM     19  C   UNL     1       1.660   2.664  21.647  0.00  0.00    +0.000 C 
ATOM     20  C   UNL     1       2.266   2.248  19.350  0.00  0.00    +0.000 C 
ATOM     21  C   UNL     1       3.195   2.671  18.212  0.00  0.00    +0.000 C 
ENDBRANCH  13  15
ENDBRANCH  12  13
TORSDOF 2
ENDMDL
MODEL 4
REMARK VINA RESULT:      -7.2      2.494      5.700
REMARK  Name = 
REMARK  4 active torsions:
REMARK  status: ('A' for Active; 'I' for Inactive)
REMARK    1  A    between atoms: C_1  and  C_2
REMARK    2  A    between atoms: C_12  and  N_13
REMARK    3  A    between atoms: N_13  and  C_14
REMARK    4  A    between atoms: N_17  and  C_18
REMARK                            x       y       z     vdW  Elec       q    Type
REMARK                         _______ _______ _______ _____ _____    ______ ____
ROOT
ATOM      1  C   UNL     1       8.625   9.026  18.571  0.00  0.00    +0.000 C 
ATOM      2  C   UNL     1       7.947   7.750  18.169  0.00  0.00    +0.000 A 
ATOM      3  C   UNL     1       8.157   6.573  18.892  0.00  0.00    +0.000 A 
ATOM      4  C   UNL     1       7.446   5.416  18.574  0.00  0.00    +0.000 A 
ATOM      5  C   UNL     1       6.513   5.408  17.521  0.00  0.00    +0.000 A 
ATOM      6  C   UNL     1       6.372   6.567  16.749  0.00  0.00    +0.000 A 
ATOM      7  C   UNL     1       7.058   7.735  17.088  0.00  0.00    +0.000 A 
ATOM      8  O   UNL     1       5.494   6.640  15.703  0.00  0.00    +0.000 OA
ATOM      9  C   UNL     1       5.890   5.798  14.617  0.00  0.00    +0.000 C 
ATOM     10  C   UNL     1       5.370   4.368  14.728  0.00  0.00    +0.000 C 
ATOM     11  C   UNL     1       5.944   3.580  15.910  0.00  0.00    +0.000 C 
ATOM     12  C   UNL     1       5.655   4.184  17.299  0.00  0.00    +0.000 C 
ENDROOT
BRANCH  12  13
ATOM     13  N   UNL     1       4.211   4.418  17.447  0.00  0.00    +0.000 NA
ATOM     14  H   UNL     1       3.697   3.817  16.805  0.00  0.00    +0.000 HD
BRANCH  13  15
ATOM     15  C   UNL     1       3.657   4.293  18.801  0.00  0.00    +0.000 C 
ATOM     16  C   UNL     1       4.120   3.021  19.519  0.00  0.00    +0.000 C 
ATOM     17  C   UNL     1       3.366   2.826  20.835  0.00  0.00    +0.000 C 
ATOM     18  N   UNL     1       1.918   2.786  20.599  0.00  0.00    +0.000 NA
ATOM     19  C   UNL     1       1.196   2.475  21.830  0.00  0.00    +0.000 C 
ATOM     20  C   UNL     1       1.456   4.058  20.029  0.00  0.00    +0.000 C 
ATOM     21  C   UNL     1       2.126   4.306  18.677  0.00  0.00    +0.000 C 
ENDBRANCH  13  15
ENDBRANCH  12  13
TORSDOF 2
ENDMDL
MODEL 5
REMARK VINA RESULT:      -7.1      1.506      2.045
REMARK  Name = 
REMARK  4 active torsions:
REMARK  status: ('A' for Active; 'I' for Inactive)
REMARK    1  A    between atoms: C_1  and  C_2
REMARK    2  A    between atoms: C_12  and  N_13
REMARK    3  A    between atoms: N_13  and  C_14
REMARK    4  A    between atoms: N_17  and  C_18
REMARK                            x       y       z     vdW  Elec       q    Type
REMARK                         _______ _______ _______ _____ _____    ______ ____
ROOT
ATOM      1  C   UNL     1       1.162   9.923  20.942  0.00  0.00    +0.000 C 
ATOM      2  C   UNL     1       1.493   8.671  20.185  0.00  0.00    +0.000 A 
ATOM      3  C   UNL     1       1.783   8.718  18.819  0.00  0.00    +0.000 A 
ATOM      4  C   UNL     1       2.188   7.567  18.145  0.00  0.00    +0.000 A 
ATOM      5  C   UNL     1       2.306   6.338  18.820  0.00  0.00    +0.000 A 
ATOM      6  C   UNL     1       1.931   6.282  20.168  0.00  0.00    +0.000 A 
ATOM      7  C   UNL     1       1.559   7.442  20.851  0.00  0.00    +0.000 A 
ATOM      8  O   UNL     1       2.007   5.126  20.895  0.00  0.00    +0.000 OA
ATOM      9  C   UNL     1       1.058   4.154  20.447  0.00  0.00    +0.000 C 
ATOM     10  C   UNL     1       1.573   3.271  19.314  0.00  0.00    +0.000 C 
ATOM     11  C   UNL     1       1.837   4.019  18.004  0.00  0.00    +0.000 C 
ATOM     12  C   UNL     1       2.886   5.145  18.096  0.00  0.00    +0.000 C 
ENDROOT
BRANCH  12  13
ATOM     13  N   UNL     1       4.126   4.620  18.687  0.00  0.00    +0.000 NA
ATOM     14  H   UNL     1       3.954   3.700  19.087  0.00  0.00    +0.000 HD
BRANCH  13  15
ATOM     15  C   UNL     1       5.306   4.572  17.812  0.00  0.00    +0.000 C 
ATOM     16  C   UNL     1       5.845   5.963  17.464  0.00  0.00    +0.000 C 
ATOM     17  C   UNL     1       6.937   5.878  16.396  0.00  0.00    +0.000 C 
ATOM     18  N   UNL     1       6.432   5.205  15.194  0.00  0.00    +0.000 NA
ATOM     19  C   UNL     1       7.426   5.230  14.124  0.00  0.00    +0.000 C 
ATOM     20  C   UNL     1       6.034   3.827  15.506  0.00  0.00    +0.000 C 
ATOM     21  C   UNL     1       4.903   3.822  16.534  0.00  0.00    +0.000 C 
ENDBRANCH  13  15
ENDBRANCH  12  13
TORSDOF 2
ENDMDL
MODEL 6
REMARK VINA RESULT:      -7.1      2.473      5.154
REMARK  Name = 
REMARK  4 active torsions:
REMARK  status: ('A' for Active; 'I' for Inactive)
REMARK    1  A    between atoms: C_1  and  C_2
REMARK    2  A    between atoms: C_12  and  N_13
REMARK    3  A    between atoms: N_13  and  C_14
REMARK    4  A    between atoms: N_17  and  C_18
REMARK                            x       y       z     vdW  Elec       q    Type
REMARK                         _______ _______ _______ _____ _____    ______ ____
ROOT
ATOM      1  C   UNL     1       1.405   2.448  21.653  0.00  0.00    +0.000 C 
ATOM      2  C   UNL     1       1.931   3.283  20.524  0.00  0.00    +0.000 A 
ATOM      3  C   UNL     1       1.196   3.435  19.345  0.00  0.00    +0.000 A 
ATOM      4  C   UNL     1       1.645   4.294  18.342  0.00  0.00    +0.000 A 
ATOM      5  C   UNL     1       2.843   5.016  18.492  0.00  0.00    +0.000 A 
ATOM      6  C   UNL     1       3.615   4.793  19.638  0.00  0.00    +0.000 A 
ATOM      7  C   UNL     1       3.150   3.960  20.657  0.00  0.00    +0.000 A 
ATOM      8  O   UNL     1       4.796   5.447  19.856  0.00  0.00    +0.000 OA
ATOM      9  C   UNL     1       5.806   5.043  18.928  0.00  0.00    +0.000 C 
ATOM     10  C   UNL     1       5.803   5.844  17.630  0.00  0.00    +0.000 C 
ATOM     11  C   UNL     1       4.548   5.647  16.772  0.00  0.00    +0.000 C 
ATOM     12  C   UNL     1       3.224   6.046  17.453  0.00  0.00    +0.000 C 
ENDROOT
BRANCH  12  13
ATOM     13  N   UNL     1       3.325   7.419  17.967  0.00  0.00    +0.000 NA
ATOM     14  H   UNL     1       3.802   8.008  17.287  0.00  0.00    +0.000 HD
BRANCH  13  15
ATOM     15  C   UNL     1       2.073   8.060  18.391  0.00  0.00    +0.000 C 
ATOM     16  C   UNL     1       1.936   9.497  17.879  0.00  0.00    +0.000 C 
ATOM     17  C   UNL     1       0.727  10.193  18.506  0.00  0.00    +0.000 C 
ATOM     18  N   UNL     1       0.824  10.175  19.970  0.00  0.00    +0.000 NA
ATOM     19  C   UNL     1      -0.259  10.944  20.576  0.00  0.00    +0.000 C 
ATOM     20  C   UNL     1       0.825   8.793  20.467  0.00  0.00    +0.000 C 
ATOM     21  C   UNL     1       2.039   8.038  19.926  0.00  0.00    +0.000 C 
ENDBRANCH  13  15
ENDBRANCH  12  13
TORSDOF 2
ENDMDL
MODEL 7
REMARK VINA RESULT:      -7.0      2.636      5.576
REMARK  Name = 
REMARK  4 active torsions:
REMARK  status: ('A' for Active; 'I' for Inactive)
REMARK    1  A    between atoms: C_1  and  C_2
REMARK    2  A    between atoms: C_12  and  N_13
REMARK    3  A    between atoms: N_13  and  C_14
REMARK    4  A    between atoms: N_17  and  C_18
REMARK                            x       y       z     vdW  Elec       q    Type
REMARK                         _______ _______ _______ _____ _____    ______ ____
ROOT
ATOM      1  C   UNL     1       6.061   3.842  15.358  0.00  0.00    +0.000 C 
ATOM      2  C   UNL     1       5.278   4.255  16.568  0.00  0.00    +0.000 A 
ATOM      3  C   UNL     1       5.893   4.951  17.613  0.00  0.00    +0.000 A 
ATOM      4  C   UNL     1       5.138   5.419  18.687  0.00  0.00    +0.000 A 
ATOM      5  C   UNL     1       3.750   5.197  18.746  0.00  0.00    +0.000 A 
ATOM      6  C   UNL     1       3.157   4.426  17.739  0.00  0.00    +0.000 A 
ATOM      7  C   UNL     1       3.907   3.987  16.646  0.00  0.00    +0.000 A 
ATOM      8  O   UNL     1       1.816   4.156  17.726  0.00  0.00    +0.000 OA
ATOM      9  C   UNL     1       1.438   3.293  18.800  0.00  0.00    +0.000 C 
ATOM     10  C   UNL     1       1.100   4.033  20.091  0.00  0.00    +0.000 C 
ATOM     11  C   UNL     1       2.288   4.761  20.729  0.00  0.00    +0.000 C 
ATOM     12  C   UNL     1       2.940   5.843  19.847  0.00  0.00    +0.000 C 
ENDROOT
BRANCH  12  13
ATOM     13  N   UNL     1       1.913   6.783  19.374  0.00  0.00    +0.000 NA
ATOM     14  H   UNL     1       0.992   6.353  19.449  0.00  0.00    +0.000 HD
BRANCH  13  15
ATOM     15  C   UNL     1       1.896   8.112  19.998  0.00  0.00    +0.000 C 
ATOM     16  C   UNL     1       1.054   8.159  21.277  0.00  0.00    +0.000 C 
ATOM     17  C   UNL     1       0.895   9.595  21.779  0.00  0.00    +0.000 C 
ATOM     18  N   UNL     1       0.301  10.443  20.739  0.00  0.00    +0.000 NA
ATOM     19  C   UNL     1       0.029  11.784  21.249  0.00  0.00    +0.000 C 
ATOM     20  C   UNL     1       1.175  10.498  19.561  0.00  0.00    +0.000 C 
ATOM     21  C   UNL     1       1.344   9.102  18.961  0.00  0.00    +0.000 C 
ENDBRANCH  13  15
ENDBRANCH  12  13
TORSDOF 2
ENDMDL
MODEL 8
REMARK VINA RESULT:      -7.0      2.408      5.094
REMARK  Name = 
REMARK  4 active torsions:
REMARK  status: ('A' for Active; 'I' for Inactive)
REMARK    1  A    between atoms: C_1  and  C_2
REMARK    2  A    between atoms: C_12  and  N_13
REMARK    3  A    between atoms: N_13  and  C_14
REMARK    4  A    between atoms: N_17  and  C_18
REMARK                            x       y       z     vdW  Elec       q    Type
REMARK                         _______ _______ _______ _____ _____    ______ ____
ROOT
ATOM      1  C   UNL     1       6.281   4.069  15.595  0.00  0.00    +0.000 C 
ATOM      2  C   UNL     1       5.440   4.303  16.815  0.00  0.00    +0.000 A 
ATOM      3  C   UNL     1       5.961   4.973  17.924  0.00  0.00    +0.000 A 
ATOM      4  C   UNL     1       5.144   5.275  19.013  0.00  0.00    +0.000 A 
ATOM      5  C   UNL     1       3.786   4.906  19.021  0.00  0.00    +0.000 A 
ATOM      6  C   UNL     1       3.293   4.160  17.943  0.00  0.00    +0.000 A 
ATOM      7  C   UNL     1       4.103   3.889  16.838  0.00  0.00    +0.000 A 
ATOM      8  O   UNL     1       1.989   3.755  17.877  0.00  0.00    +0.000 OA
ATOM      9  C   UNL     1       1.686   2.775  18.873  0.00  0.00    +0.000 C 
ATOM     10  C   UNL     1       1.252   3.372  20.209  0.00  0.00    +0.000 C 
ATOM     11  C   UNL     1       2.347   4.166  20.929  0.00  0.00    +0.000 C 
ATOM     12  C   UNL     1       2.895   5.376  20.148  0.00  0.00    +0.000 C 
ENDROOT
BRANCH  12  13
ATOM     13  N   UNL     1       1.783   6.239  19.724  0.00  0.00    +0.000 NA
ATOM     14  H   UNL     1       0.958   6.037  20.286  0.00  0.00    +0.000 HD
BRANCH  13  15
ATOM     15  C   UNL     1       2.037   7.685  19.710  0.00  0.00    +0.000 C 
ATOM     16  C   UNL     1       1.068   8.468  20.601  0.00  0.00    +0.000 C 
ATOM     17  C   UNL     1       1.231   9.976  20.401  0.00  0.00    +0.000 C 
ATOM     18  N   UNL     1       1.038  10.333  18.991  0.00  0.00    +0.000 NA
ATOM     19  C   UNL     1       1.068  11.782  18.809  0.00  0.00    +0.000 C 
ATOM     20  C   UNL     1       2.050   9.680  18.152  0.00  0.00    +0.000 C 
ATOM     21  C   UNL     1       1.921   8.160  18.254  0.00  0.00    +0.000 C 
ENDBRANCH  13  15
ENDBRANCH  12  13
TORSDOF 2
ENDMDL
MODEL 9
REMARK VINA RESULT:      -6.6      2.650      5.668
REMARK  Name = 
REMARK  4 active torsions:
REMARK  status: ('A' for Active; 'I' for Inactive)
REMARK    1  A    between atoms: C_1  and  C_2
REMARK    2  A    between atoms: C_12  and  N_13
REMARK    3  A    between atoms: N_13  and  C_14
REMARK    4  A    between atoms: N_17  and  C_18
REMARK                            x       y       z     vdW  Elec       q    Type
REMARK                         _______ _______ _______ _____ _____    ______ ____
ROOT
ATOM      1  C   UNL     1       5.972   3.716  13.103  0.00  0.00    +0.000 C 
ATOM      2  C   UNL     1       5.653   4.262  14.463  0.00  0.00    +0.000 A 
ATOM      3  C   UNL     1       6.267   5.429  14.925  0.00  0.00    +0.000 A 
ATOM      4  C   UNL     1       5.891   5.986  16.147  0.00  0.00    +0.000 A 
ATOM      5  C   UNL     1       4.897   5.384  16.940  0.00  0.00    +0.000 A 
ATOM      6  C   UNL     1       4.349   4.170  16.510  0.00  0.00    +0.000 A 
ATOM      7  C   UNL     1       4.700   3.631  15.270  0.00  0.00    +0.000 A 
ATOM      8  O   UNL     1       3.385   3.515  17.225  0.00  0.00    +0.000 OA
ATOM      9  C   UNL     1       3.893   3.007  18.461  0.00  0.00    +0.000 C 
ATOM     10  C   UNL     1       3.822   4.007  19.611  0.00  0.00    +0.000 C 
ATOM     11  C   UNL     1       4.717   5.238  19.431  0.00  0.00    +0.000 C 
ATOM     12  C   UNL     1       4.411   6.090  18.184  0.00  0.00    +0.000 C 
ENDROOT
BRANCH  12  13
ATOM     13  N   UNL     1       2.984   6.444  18.164  0.00  0.00    +0.000 NA
ATOM     14  H   UNL     1       2.433   5.675  18.540  0.00  0.00    +0.000 HD
BRANCH  13  15
ATOM     15  C   UNL     1       2.605   7.700  18.825  0.00  0.00    +0.000 C 
ATOM     16  C   UNL     1       1.831   7.477  20.128  0.00  0.00    +0.000 C 
ATOM     17  C   UNL     1       1.281   8.796  20.674  0.00  0.00    +0.000 C 
ATOM     18  N   UNL     1       0.431   9.454  19.675  0.00  0.00    +0.000 NA
ATOM     19  C   UNL     1      -0.199  10.649  20.230  0.00  0.00    +0.000 C 
ATOM     20  C   UNL     1       1.210   9.782  18.475  0.00  0.00    +0.000 C 
ATOM     21  C   UNL     1       1.755   8.507  17.832  0.00  0.00    +0.000 C 
ENDBRANCH  13  15
ENDBRANCH  12  13
TORSDOF 2
ENDMDL
