MODEL 1
REMARK VINA RESULT:      -8.9      0.000      0.000
REMARK  Name = 
REMARK  6 active torsions:
REMARK  status: ('A' for Active; 'I' for Inactive)
REMARK    1  A    between atoms: C_1  and  C_2
REMARK    2  A    between atoms: C_2  and  N_3
REMARK    3  A    between atoms: C_4  and  C_5
REMARK    4  A    between atoms: C_5  and  O_6
REMARK    5  A    between atoms: C_5  and  C_7
REMARK    6  A    between atoms: C_5  and  C_13
REMARK                            x       y       z     vdW  Elec       q    Type
REMARK                         _______ _______ _______ _____ _____    ______ ____
ROOT
ATOM      1  C   UNL     1       5.494   5.701  16.167  0.00  0.00    +0.000 C 
ENDROOT
BRANCH   1   3
ATOM      2  N   UNL     1       3.575   5.507  17.952  0.00  0.00    +0.000 N 
ATOM      3  C   UNL     1       4.420   4.963  16.994  0.00  0.00    +0.000 A 
ATOM      4  N   UNL     1       4.101   3.692  16.766  0.00  0.00    +0.000 NA
ATOM      5  C   UNL     1       3.067   3.400  17.610  0.00  0.00    +0.000 A 
ATOM      6  C   UNL     1       2.355   2.200  17.754  0.00  0.00    +0.000 A 
ATOM      7  C   UNL     1       1.331   2.126  18.707  0.00  0.00    +0.000 A 
ATOM      8  C   UNL     1       1.032   3.229  19.506  0.00  0.00    +0.000 A 
ATOM      9  C   UNL     1       1.733   4.428  19.358  0.00  0.00    +0.000 A 
ATOM     10  F   UNL     1       1.428   5.476  20.127  0.00  0.00    +0.000 F 
ATOM     11  C   UNL     1       2.740   4.500  18.391  0.00  0.00    +0.000 A 
BRANCH   2  13
ATOM     12  C   UNL     1       2.404   7.702  17.888  0.00  0.00    +0.000 C 
ATOM     13  C   UNL     1       3.546   6.869  18.455  0.00  0.00    +0.000 C 
ENDBRANCH   2  13
ENDBRANCH   1   3
BRANCH   1  14
ATOM     14  C   UNL     1       6.574   6.323  17.078  0.00  0.00    +0.000 A 
ATOM     15  C   UNL     1       7.033   7.647  16.982  0.00  0.00    +0.000 A 
ATOM     16  C   UNL     1       7.956   8.166  17.900  0.00  0.00    +0.000 A 
ATOM     17  C   UNL     1       8.474   7.366  18.918  0.00  0.00    +0.000 A 
ATOM     18  C   UNL     1       8.043   6.054  19.041  0.00  0.00    +0.000 A 
ATOM     19  C   UNL     1       7.086   5.554  18.155  0.00  0.00    +0.000 A 
ENDBRANCH   1  14
BRANCH   1  20
ATOM     20  C   UNL     1       5.916   4.958  14.877  0.00  0.00    +0.000 A 
ATOM     21  C   UNL     1       5.035   4.157  14.121  0.00  0.00    +0.000 A 
ATOM     22  C   UNL     1       5.413   3.592  12.895  0.00  0.00    +0.000 A 
ATOM     23  C   UNL     1       6.687   3.814  12.385  0.00  0.00    +0.000 A 
ATOM     24  C   UNL     1       7.580   4.602  13.100  0.00  0.00    +0.000 A 
ATOM     25  C   UNL     1       7.194   5.176  14.315  0.00  0.00    +0.000 A 
ENDBRANCH   1  20
BRANCH   1  26
ATOM     26  O   UNL     1       4.810   6.877  15.659  0.00  0.00    +0.000 OA
ATOM     27  H   UNL     1       5.501   7.394  15.199  0.00  0.00    +0.000 HD
ENDBRANCH   1  26
TORSDOF 5
ENDMDL
MODEL 2
REMARK VINA RESULT:      -8.5      2.657      4.629
REMARK  Name = 
REMARK  6 active torsions:
REMARK  status: ('A' for Active; 'I' for Inactive)
REMARK    1  A    between atoms: C_1  and  C_2
REMARK    2  A    between atoms: C_2  and  N_3
REMARK    3  A    between atoms: C_4  and  C_5
REMARK    4  A    between atoms: C_5  and  O_6
REMARK    5  A    between atoms: C_5  and  C_7
REMARK    6  A    between atoms: C_5  and  C_13
REMARK                            x       y       z     vdW  Elec       q    Type
REMARK                         _______ _______ _______ _____ _____    ______ ____
ROOT
ATOM      1  C   UNL     1       4.248   5.634  17.793  0.00  0.00    +0.000 C 
ENDROOT
BRANCH   1   3
ATOM      2  N   UNL     1       2.575   6.795  19.453  0.00  0.00    +0.000 N 
ATOM      3  C   UNL     1       3.230   6.706  18.232  0.00  0.00    +0.000 A 
ATOM      4  N   UNL     1       2.963   7.776  17.488  0.00  0.00    +0.000 NA
ATOM      5  C   UNL     1       2.098   8.543  18.216  0.00  0.00    +0.000 A 
ATOM      6  C   UNL     1       1.525   9.781  17.890  0.00  0.00    +0.000 A 
ATOM      7  C   UNL     1       0.642  10.382  18.798  0.00  0.00    +0.000 A 
ATOM      8  C   UNL     1       0.334   9.752  20.003  0.00  0.00    +0.000 A 
ATOM      9  C   UNL     1       0.911   8.524  20.333  0.00  0.00    +0.000 A 
ATOM     10  F   UNL     1       0.609   7.938  21.495  0.00  0.00    +0.000 F 
ATOM     11  C   UNL     1       1.805   7.940  19.432  0.00  0.00    +0.000 A 
BRANCH   2  13
ATOM     12  C   UNL     1       1.452   4.910  20.628  0.00  0.00    +0.000 C 
ATOM     13  C   UNL     1       2.631   5.870  20.572  0.00  0.00    +0.000 C 
ENDBRANCH   2  13
ENDBRANCH   1   3
BRANCH   1  14
ATOM     14  C   UNL     1       5.688   6.034  18.179  0.00  0.00    +0.000 A 
ATOM     15  C   UNL     1       6.422   5.459  19.229  0.00  0.00    +0.000 A 
ATOM     16  C   UNL     1       7.757   5.816  19.465  0.00  0.00    +0.000 A 
ATOM     17  C   UNL     1       8.384   6.784  18.682  0.00  0.00    +0.000 A 
ATOM     18  C   UNL     1       7.688   7.373  17.637  0.00  0.00    +0.000 A 
ATOM     19  C   UNL     1       6.374   6.979  17.373  0.00  0.00    +0.000 A 
ENDBRANCH   1  14
BRANCH   1  20
ATOM     20  C   UNL     1       3.770   4.180  18.024  0.00  0.00    +0.000 A 
ATOM     21  C   UNL     1       4.399   3.291  18.921  0.00  0.00    +0.000 A 
ATOM     22  C   UNL     1       3.875   2.021  19.197  0.00  0.00    +0.000 A 
ATOM     23  C   UNL     1       2.701   1.600  18.583  0.00  0.00    +0.000 A 
ATOM     24  C   UNL     1       2.051   2.450  17.697  0.00  0.00    +0.000 A 
ATOM     25  C   UNL     1       2.569   3.722  17.436  0.00  0.00    +0.000 A 
ENDBRANCH   1  20
BRANCH   1  26
ATOM     26  O   UNL     1       4.280   5.741  16.345  0.00  0.00    +0.000 OA
ATOM     27  H   UNL     1       3.575   5.140  16.029  0.00  0.00    +0.000 HD
ENDBRANCH   1  26
TORSDOF 5
ENDMDL
MODEL 3
REMARK VINA RESULT:      -8.4      0.238      1.349
REMARK  Name = 
REMARK  6 active torsions:
REMARK  status: ('A' for Active; 'I' for Inactive)
REMARK    1  A    between atoms: C_1  and  C_2
REMARK    2  A    between atoms: C_2  and  N_3
REMARK    3  A    between atoms: C_4  and  C_5
REMARK    4  A    between atoms: C_5  and  O_6
REMARK    5  A    between atoms: C_5  and  C_7
REMARK    6  A    between atoms: C_5  and  C_13
REMARK                            x       y       z     vdW  Elec       q    Type
REMARK                         _______ _______ _______ _____ _____    ______ ____
ROOT
ATOM      1  C   UNL     1       5.349   5.800  16.345  0.00  0.00    +0.000 C 
ENDROOT
BRANCH   1   3
ATOM      2  N   UNL     1       3.438   5.485  18.121  0.00  0.00    +0.000 N 
ATOM      3  C   UNL     1       4.297   5.001  17.142  0.00  0.00    +0.000 A 
ATOM      4  N   UNL     1       4.011   3.732  16.865  0.00  0.00    +0.000 NA
ATOM      5  C   UNL     1       2.986   3.380  17.697  0.00  0.00    +0.000 A 
ATOM      6  C   UNL     1       2.307   2.157  17.795  0.00  0.00    +0.000 A 
ATOM      7  C   UNL     1       1.286   2.019  18.745  0.00  0.00    +0.000 A 
ATOM      8  C   UNL     1       0.959   3.081  19.586  0.00  0.00    +0.000 A 
ATOM      9  C   UNL     1       1.627   4.303  19.485  0.00  0.00    +0.000 A 
ATOM     10  F   UNL     1       1.296   5.312  20.294  0.00  0.00    +0.000 F 
ATOM     11  C   UNL     1       2.631   4.440  18.521  0.00  0.00    +0.000 A 
BRANCH   2  13
ATOM     12  C   UNL     1       2.261   7.677  18.082  0.00  0.00    +0.000 C 
ATOM     13  C   UNL     1       3.374   6.825  18.677  0.00  0.00    +0.000 C 
ENDBRANCH   2  13
ENDBRANCH   1   3
BRANCH   1  14
ATOM     14  C   UNL     1       6.432   6.387  17.276  0.00  0.00    +0.000 A 
ATOM     15  C   UNL     1       7.073   5.675  18.303  0.00  0.00    +0.000 A 
ATOM     16  C   UNL     1       8.109   6.251  19.051  0.00  0.00    +0.000 A 
ATOM     17  C   UNL     1       8.508   7.566  18.819  0.00  0.00    +0.000 A 
ATOM     18  C   UNL     1       7.895   8.299  17.813  0.00  0.00    +0.000 A 
ATOM     19  C   UNL     1       6.897   7.706  17.036  0.00  0.00    +0.000 A 
ENDBRANCH   1  14
BRANCH   1  20
ATOM     20  C   UNL     1       5.765   5.136  15.010  0.00  0.00    +0.000 A 
ATOM     21  C   UNL     1       7.090   5.130  14.529  0.00  0.00    +0.000 A 
ATOM     22  C   UNL     1       7.458   4.420  13.377  0.00  0.00    +0.000 A 
ATOM     23  C   UNL     1       6.508   3.693  12.670  0.00  0.00    +0.000 A 
ATOM     24  C   UNL     1       5.192   3.672  13.117  0.00  0.00    +0.000 A 
ATOM     25  C   UNL     1       4.834   4.368  14.275  0.00  0.00    +0.000 A 
ENDBRANCH   1  20
BRANCH   1  26
ATOM     26  O   UNL     1       4.643   6.991  15.911  0.00  0.00    +0.000 OA
ATOM     27  H   UNL     1       5.337   7.671  15.796  0.00  0.00    +0.000 HD
ENDBRANCH   1  26
TORSDOF 5
ENDMDL
MODEL 4
REMARK VINA RESULT:      -8.2      1.615      4.168
REMARK  Name = 
REMARK  6 active torsions:
REMARK  status: ('A' for Active; 'I' for Inactive)
REMARK    1  A    between atoms: C_1  and  C_2
REMARK    2  A    between atoms: C_2  and  N_3
REMARK    3  A    between atoms: C_4  and  C_5
REMARK    4  A    between atoms: C_5  and  O_6
REMARK    5  A    between atoms: C_5  and  C_7
REMARK    6  A    between atoms: C_5  and  C_13
REMARK                            x       y       z     vdW  Elec       q    Type
REMARK                         _______ _______ _______ _____ _____    ______ ____
ROOT
ATOM      1  C   UNL     1       6.641   5.002  17.549  0.00  0.00    +0.000 C 
ENDROOT
BRANCH   1   3
ATOM      2  N   UNL     1       4.104   5.066  18.229  0.00  0.00    +0.000 N 
ATOM      3  C   UNL     1       5.401   4.590  18.369  0.00  0.00    +0.000 A 
ATOM      4  N   UNL     1       5.434   3.597  19.253  0.00  0.00    +0.000 NA
ATOM      5  C   UNL     1       4.157   3.454  19.716  0.00  0.00    +0.000 A 
ATOM      6  C   UNL     1       3.652   2.537  20.651  0.00  0.00    +0.000 A 
ATOM      7  C   UNL     1       2.293   2.588  20.989  0.00  0.00    +0.000 A 
ATOM      8  C   UNL     1       1.459   3.543  20.410  0.00  0.00    +0.000 A 
ATOM      9  C   UNL     1       1.957   4.451  19.473  0.00  0.00    +0.000 A 
ATOM     10  F   UNL     1       1.141   5.355  18.924  0.00  0.00    +0.000 F 
ATOM     11  C   UNL     1       3.309   4.382  19.126  0.00  0.00    +0.000 A 
BRANCH   2  13
ATOM     12  C   UNL     1       3.397   7.444  18.029  0.00  0.00    +0.000 C 
ATOM     13  C   UNL     1       3.619   6.106  17.337  0.00  0.00    +0.000 C 
ENDBRANCH   2  13
ENDBRANCH   1   3
BRANCH   1  14
ATOM     14  C   UNL     1       6.499   4.585  16.069  0.00  0.00    +0.000 A 
ATOM     15  C   UNL     1       5.469   3.776  15.563  0.00  0.00    +0.000 A 
ATOM     16  C   UNL     1       5.359   3.511  14.190  0.00  0.00    +0.000 A 
ATOM     17  C   UNL     1       6.296   4.015  13.291  0.00  0.00    +0.000 A 
ATOM     18  C   UNL     1       7.327   4.818  13.757  0.00  0.00    +0.000 A 
ATOM     19  C   UNL     1       7.406   5.121  15.118  0.00  0.00    +0.000 A 
ENDBRANCH   1  14
BRANCH   1  20
ATOM     20  C   UNL     1       7.190   6.405  17.899  0.00  0.00    +0.000 A 
ATOM     21  C   UNL     1       8.156   6.630  18.902  0.00  0.00    +0.000 A 
ATOM     22  C   UNL     1       8.722   7.894  19.117  0.00  0.00    +0.000 A 
ATOM     23  C   UNL     1       8.337   8.976  18.333  0.00  0.00    +0.000 A 
ATOM     24  C   UNL     1       7.390   8.791  17.333  0.00  0.00    +0.000 A 
ATOM     25  C   UNL     1       6.841   7.525  17.111  0.00  0.00    +0.000 A 
ENDBRANCH   1  20
BRANCH   1  26
ATOM     26  O   UNL     1       7.691   4.114  18.015  0.00  0.00    +0.000 OA
ATOM     27  H   UNL     1       7.748   3.409  17.339  0.00  0.00    +0.000 HD
ENDBRANCH   1  26
TORSDOF 5
ENDMDL
MODEL 5
REMARK VINA RESULT:      -7.8      1.591      4.135
REMARK  Name = 
REMARK  6 active torsions:
REMARK  status: ('A' for Active; 'I' for Inactive)
REMARK    1  A    between atoms: C_1  and  C_2
REMARK    2  A    between atoms: C_2  and  N_3
REMARK    3  A    between atoms: C_4  and  C_5
REMARK    4  A    between atoms: C_5  and  O_6
REMARK    5  A    between atoms: C_5  and  C_7
REMARK    6  A    between atoms: C_5  and  C_13
REMARK                            x       y       z     vdW  Elec       q    Type
REMARK                         _______ _______ _______ _____ _____    ______ ____
ROOT
ATOM      1  C   UNL     1       6.809   5.011  17.304  0.00  0.00    +0.000 C 
ENDROOT
BRANCH   1   3
ATOM      2  N   UNL     1       4.286   5.157  18.026  0.00  0.00    +0.000 N 
ATOM      3  C   UNL     1       5.568   4.633  18.139  0.00  0.00    +0.000 A 
ATOM      4  N   UNL     1       5.579   3.628  19.009  0.00  0.00    +0.000 NA
ATOM      5  C   UNL     1       4.304   3.525  19.491  0.00  0.00    +0.000 A 
ATOM      6  C   UNL     1       3.782   2.614  20.422  0.00  0.00    +0.000 A 
ATOM      7  C   UNL     1       2.431   2.709  20.783  0.00  0.00    +0.000 A 
ATOM      8  C   UNL     1       1.623   3.702  20.230  0.00  0.00    +0.000 A 
ATOM      9  C   UNL     1       2.139   4.604  19.297  0.00  0.00    +0.000 A 
ATOM     10  F   UNL     1       1.348   5.544  18.773  0.00  0.00    +0.000 F 
ATOM     11  C   UNL     1       3.482   4.491  18.927  0.00  0.00    +0.000 A 
BRANCH   2  13
ATOM     12  C   UNL     1       3.675   7.565  17.865  0.00  0.00    +0.000 C 
ATOM     13  C   UNL     1       3.826   6.226  17.156  0.00  0.00    +0.000 C 
ENDBRANCH   2  13
ENDBRANCH   1   3
BRANCH   1  14
ATOM     14  C   UNL     1       6.606   4.671  15.811  0.00  0.00    +0.000 A 
ATOM     15  C   UNL     1       7.399   5.170  14.765  0.00  0.00    +0.000 A 
ATOM     16  C   UNL     1       7.206   4.748  13.441  0.00  0.00    +0.000 A 
ATOM     17  C   UNL     1       6.195   3.844  13.123  0.00  0.00    +0.000 A 
ATOM     18  C   UNL     1       5.393   3.332  14.132  0.00  0.00    +0.000 A 
ATOM     19  C   UNL     1       5.618   3.716  15.456  0.00  0.00    +0.000 A 
ENDBRANCH   1  14
BRANCH   1  20
ATOM     20  C   UNL     1       7.447   6.364  17.700  0.00  0.00    +0.000 A 
ATOM     21  C   UNL     1       7.237   7.559  16.982  0.00  0.00    +0.000 A 
ATOM     22  C   UNL     1       7.731   8.791  17.431  0.00  0.00    +0.000 A 
ATOM     23  C   UNL     1       8.453   8.866  18.616  0.00  0.00    +0.000 A 
ATOM     24  C   UNL     1       8.677   7.709  19.353  0.00  0.00    +0.000 A 
ATOM     25  C   UNL     1       8.168   6.485  18.909  0.00  0.00    +0.000 A 
ENDBRANCH   1  20
BRANCH   1  26
ATOM     26  O   UNL     1       7.817   4.045  17.702  0.00  0.00    +0.000 OA
ATOM     27  H   UNL     1       7.525   3.719  18.577  0.00  0.00    +0.000 HD
ENDBRANCH   1  26
TORSDOF 5
ENDMDL
MODEL 6
REMARK VINA RESULT:      -7.8      1.354      4.048
REMARK  Name = 
REMARK  6 active torsions:
REMARK  status: ('A' for Active; 'I' for Inactive)
REMARK    1  A    between atoms: C_1  and  C_2
REMARK    2  A    between atoms: C_2  and  N_3
REMARK    3  A    between atoms: C_4  and  C_5
REMARK    4  A    between atoms: C_5  and  O_6
REMARK    5  A    between atoms: C_5  and  C_7
REMARK    6  A    between atoms: C_5  and  C_13
REMARK                            x       y       z     vdW  Elec       q    Type
REMARK                         _______ _______ _______ _____ _____    ______ ____
ROOT
ATOM      1  C   UNL     1       6.761   4.877  16.715  0.00  0.00    +0.000 C 
ENDROOT
BRANCH   1   3
ATOM      2  N   UNL     1       4.181   5.054  17.183  0.00  0.00    +0.000 N 
ATOM      3  C   UNL     1       5.394   4.380  17.230  0.00  0.00    +0.000 A 
ATOM      4  N   UNL     1       5.215   3.142  17.681  0.00  0.00    +0.000 NA
ATOM      5  C   UNL     1       3.883   3.025  17.963  0.00  0.00    +0.000 A 
ATOM      6  C   UNL     1       3.176   1.916  18.449  0.00  0.00    +0.000 A 
ATOM      7  C   UNL     1       1.799   2.035  18.681  0.00  0.00    +0.000 A 
ATOM      8  C   UNL     1       1.146   3.244  18.440  0.00  0.00    +0.000 A 
ATOM      9  C   UNL     1       1.847   4.347  17.948  0.00  0.00    +0.000 A 
ATOM     10  F   UNL     1       1.204   5.494  17.717  0.00  0.00    +0.000 F 
ATOM     11  C   UNL     1       3.216   4.215  17.700  0.00  0.00    +0.000 A 
BRANCH   2  13
ATOM     12  C   UNL     1       3.742   7.417  17.831  0.00  0.00    +0.000 C 
ATOM     13  C   UNL     1       3.921   6.403  16.709  0.00  0.00    +0.000 C 
ENDBRANCH   2  13
ENDBRANCH   1   3
BRANCH   1  14
ATOM     14  C   UNL     1       6.853   4.773  15.177  0.00  0.00    +0.000 A 
ATOM     15  C   UNL     1       7.814   5.428  14.390  0.00  0.00    +0.000 A 
ATOM     16  C   UNL     1       7.887   5.217  13.006  0.00  0.00    +0.000 A 
ATOM     17  C   UNL     1       6.980   4.375  12.365  0.00  0.00    +0.000 A 
ATOM     18  C   UNL     1       6.017   3.713  13.113  0.00  0.00    +0.000 A 
ATOM     19  C   UNL     1       5.977   3.887  14.498  0.00  0.00    +0.000 A 
ENDBRANCH   1  14
BRANCH   1  20
ATOM     20  C   UNL     1       7.277   6.150  17.429  0.00  0.00    +0.000 A 
ATOM     21  C   UNL     1       7.941   6.124  18.673  0.00  0.00    +0.000 A 
ATOM     22  C   UNL     1       8.502   7.278  19.238  0.00  0.00    +0.000 A 
ATOM     23  C   UNL     1       8.415   8.496  18.574  0.00  0.00    +0.000 A 
ATOM     24  C   UNL     1       7.772   8.558  17.344  0.00  0.00    +0.000 A 
ATOM     25  C   UNL     1       7.229   7.402  16.777  0.00  0.00    +0.000 A 
ENDBRANCH   1  20
BRANCH   1  26
ATOM     26  O   UNL     1       7.700   3.857  17.146  0.00  0.00    +0.000 OA
ATOM     27  H   UNL     1       7.239   3.372  17.860  0.00  0.00    +0.000 HD
ENDBRANCH   1  26
TORSDOF 5
ENDMDL
MODEL 7
REMARK VINA RESULT:      -7.7      1.998      5.035
REMARK  Name = 
REMARK  6 active torsions:
REMARK  status: ('A' for Active; 'I' for Inactive)
REMARK    1  A    between atoms: C_1  and  C_2
REMARK    2  A    between atoms: C_2  and  N_3
REMARK    3  A    between atoms: C_4  and  C_5
REMARK    4  A    between atoms: C_5  and  O_6
REMARK    5  A    between atoms: C_5  and  C_7
REMARK    6  A    between atoms: C_5  and  C_13
REMARK                            x       y       z     vdW  Elec       q    Type
REMARK                         _______ _______ _______ _____ _____    ______ ____
ROOT
ATOM      1  C   UNL     1       4.222   5.042  18.229  0.00  0.00    +0.000 C 
ENDROOT
BRANCH   1   3
ATOM      2  N   UNL     1       2.631   6.613  19.609  0.00  0.00    +0.000 N 
ATOM      3  C   UNL     1       3.358   6.297  18.469  0.00  0.00    +0.000 A 
ATOM      4  N   UNL     1       3.323   7.308  17.606  0.00  0.00    +0.000 NA
ATOM      5  C   UNL     1       2.538   8.271  18.175  0.00  0.00    +0.000 A 
ATOM      6  C   UNL     1       2.196   9.539  17.682  0.00  0.00    +0.000 A 
ATOM      7  C   UNL     1       1.353  10.360  18.443  0.00  0.00    +0.000 A 
ATOM      8  C   UNL     1       0.855   9.917  19.667  0.00  0.00    +0.000 A 
ATOM      9  C   UNL     1       1.201   8.658  20.164  0.00  0.00    +0.000 A 
ATOM     10  F   UNL     1       0.720   8.252  21.342  0.00  0.00    +0.000 F 
ATOM     11  C   UNL     1       2.058   7.852  19.409  0.00  0.00    +0.000 A 
BRANCH   2  13
ATOM     12  C   UNL     1       1.189   4.967  20.794  0.00  0.00    +0.000 C 
ATOM     13  C   UNL     1       2.453   5.816  20.811  0.00  0.00    +0.000 C 
ENDBRANCH   2  13
ENDBRANCH   1   3
BRANCH   1  14
ATOM     14  C   UNL     1       3.413   3.749  18.465  0.00  0.00    +0.000 A 
ATOM     15  C   UNL     1       3.816   2.697  19.304  0.00  0.00    +0.000 A 
ATOM     16  C   UNL     1       2.985   1.590  19.533  0.00  0.00    +0.000 A 
ATOM     17  C   UNL     1       1.747   1.487  18.903  0.00  0.00    +0.000 A 
ATOM     18  C   UNL     1       1.318   2.508  18.067  0.00  0.00    +0.000 A 
ATOM     19  C   UNL     1       2.126   3.632  17.879  0.00  0.00    +0.000 A 
ENDBRANCH   1  14
BRANCH   1  20
ATOM     20  C   UNL     1       5.157   5.147  17.001  0.00  0.00    +0.000 A 
ATOM     21  C   UNL     1       6.400   5.814  17.027  0.00  0.00    +0.000 A 
ATOM     22  C   UNL     1       7.277   5.791  15.935  0.00  0.00    +0.000 A 
ATOM     23  C   UNL     1       6.939   5.099  14.778  0.00  0.00    +0.000 A 
ATOM     24  C   UNL     1       5.724   4.426  14.717  0.00  0.00    +0.000 A 
ATOM     25  C   UNL     1       4.859   4.438  15.815  0.00  0.00    +0.000 A 
ENDBRANCH   1  20
BRANCH   1  26
ATOM     26  O   UNL     1       5.150   5.027  19.346  0.00  0.00    +0.000 OA
ATOM     27  H   UNL     1       6.032   4.895  18.943  0.00  0.00    +0.000 HD
ENDBRANCH   1  26
TORSDOF 5
ENDMDL
MODEL 8
REMARK VINA RESULT:      -7.6      2.347      6.731
REMARK  Name = 
REMARK  6 active torsions:
REMARK  status: ('A' for Active; 'I' for Inactive)
REMARK    1  A    between atoms: C_1  and  C_2
REMARK    2  A    between atoms: C_2  and  N_3
REMARK    3  A    between atoms: C_4  and  C_5
REMARK    4  A    between atoms: C_5  and  O_6
REMARK    5  A    between atoms: C_5  and  C_7
REMARK    6  A    between atoms: C_5  and  C_13
REMARK                            x       y       z     vdW  Elec       q    Type
REMARK                         _______ _______ _______ _____ _____    ______ ____
ROOT
ATOM      1  C   UNL     1       2.173   5.846  18.754  0.00  0.00    +0.000 C 
ENDROOT
BRANCH   1   3
ATOM      2  N   UNL     1       3.954   4.594  17.283  0.00  0.00    +0.000 N 
ATOM      3  C   UNL     1       3.551   5.651  18.088  0.00  0.00    +0.000 A 
ATOM      4  N   UNL     1       4.493   6.588  18.124  0.00  0.00    +0.000 NA
ATOM      5  C   UNL     1       5.529   6.118  17.367  0.00  0.00    +0.000 A 
ATOM      6  C   UNL     1       6.756   6.730  17.070  0.00  0.00    +0.000 A 
ATOM      7  C   UNL     1       7.684   6.043  16.275  0.00  0.00    +0.000 A 
ATOM      8  C   UNL     1       7.393   4.767  15.796  0.00  0.00    +0.000 A 
ATOM      9  C   UNL     1       6.169   4.160  16.083  0.00  0.00    +0.000 A 
ATOM     10  F   UNL     1       5.904   2.939  15.610  0.00  0.00    +0.000 F 
ATOM     11  C   UNL     1       5.240   4.858  16.860  0.00  0.00    +0.000 A 
BRANCH   2  13
ATOM     12  C   UNL     1       3.520   2.206  17.835  0.00  0.00    +0.000 C 
ATOM     13  C   UNL     1       3.211   3.394  16.936  0.00  0.00    +0.000 C 
ENDBRANCH   2  13
ENDBRANCH   1   3
BRANCH   1  14
ATOM     14  C   UNL     1       1.871   4.715  19.762  0.00  0.00    +0.000 A 
ATOM     15  C   UNL     1       0.789   3.826  19.662  0.00  0.00    +0.000 A 
ATOM     16  C   UNL     1       0.629   2.770  20.571  0.00  0.00    +0.000 A 
ATOM     17  C   UNL     1       1.524   2.596  21.625  0.00  0.00    +0.000 A 
ATOM     18  C   UNL     1       2.603   3.457  21.754  0.00  0.00    +0.000 A 
ATOM     19  C   UNL     1       2.788   4.479  20.818  0.00  0.00    +0.000 A 
ENDBRANCH   1  14
BRANCH   1  20
ATOM     20  C   UNL     1       1.859   7.313  19.134  0.00  0.00    +0.000 A 
ATOM     21  C   UNL     1       1.744   8.350  18.185  0.00  0.00    +0.000 A 
ATOM     22  C   UNL     1       1.343   9.644  18.545  0.00  0.00    +0.000 A 
ATOM     23  C   UNL     1       1.043   9.941  19.870  0.00  0.00    +0.000 A 
ATOM     24  C   UNL     1       1.141   8.942  20.831  0.00  0.00    +0.000 A 
ATOM     25  C   UNL     1       1.525   7.650  20.465  0.00  0.00    +0.000 A 
ENDBRANCH   1  20
BRANCH   1  26
ATOM     26  O   UNL     1       1.220   5.571  17.694  0.00  0.00    +0.000 OA
ATOM     27  H   UNL     1       0.712   6.400  17.587  0.00  0.00    +0.000 HD
ENDBRANCH   1  26
TORSDOF 5
ENDMDL
MODEL 9
REMARK VINA RESULT:      -7.6      2.564      6.225
REMARK  Name = 
REMARK  6 active torsions:
REMARK  status: ('A' for Active; 'I' for Inactive)
REMARK    1  A    between atoms: C_1  and  C_2
REMARK    2  A    between atoms: C_2  and  N_3
REMARK    3  A    between atoms: C_4  and  C_5
REMARK    4  A    between atoms: C_5  and  O_6
REMARK    5  A    between atoms: C_5  and  C_7
REMARK    6  A    between atoms: C_5  and  C_13
REMARK                            x       y       z     vdW  Elec       q    Type
REMARK                         _______ _______ _______ _____ _____    ______ ____
ROOT
ATOM      1  C   UNL     1       2.871   6.035  19.162  0.00  0.00    +0.000 C 
ENDROOT
BRANCH   1   3
ATOM      2  N   UNL     1       5.169   5.096  18.301  0.00  0.00    +0.000 N 
ATOM      3  C   UNL     1       4.011   5.845  18.140  0.00  0.00    +0.000 A 
ATOM      4  N   UNL     1       3.929   6.305  16.894  0.00  0.00    +0.000 NA
ATOM      5  C   UNL     1       5.061   5.883  16.255  0.00  0.00    +0.000 A 
ATOM      6  C   UNL     1       5.453   6.086  14.924  0.00  0.00    +0.000 A 
ATOM      7  C   UNL     1       6.680   5.567  14.489  0.00  0.00    +0.000 A 
ATOM      8  C   UNL     1       7.501   4.866  15.371  0.00  0.00    +0.000 A 
ATOM      9  C   UNL     1       7.108   4.655  16.695  0.00  0.00    +0.000 A 
ATOM     10  F   UNL     1       7.905   3.975  17.525  0.00  0.00    +0.000 F 
ATOM     11  C   UNL     1       5.875   5.159  17.117  0.00  0.00    +0.000 A 
BRANCH   2  13
ATOM     12  C   UNL     1       4.974   3.009  19.642  0.00  0.00    +0.000 C 
ATOM     13  C   UNL     1       5.618   4.378  19.482  0.00  0.00    +0.000 C 
ENDBRANCH   2  13
ENDBRANCH   1   3
BRANCH   1  14
ATOM     14  C   UNL     1       2.229   7.433  19.033  0.00  0.00    +0.000 A 
ATOM     15  C   UNL     1       2.104   8.147  17.830  0.00  0.00    +0.000 A 
ATOM     16  C   UNL     1       1.432   9.376  17.779  0.00  0.00    +0.000 A 
ATOM     17  C   UNL     1       0.898   9.944  18.934  0.00  0.00    +0.000 A 
ATOM     18  C   UNL     1       1.004   9.266  20.140  0.00  0.00    +0.000 A 
ATOM     19  C   UNL     1       1.631   8.019  20.179  0.00  0.00    +0.000 A 
ENDBRANCH   1  14
BRANCH   1  20
ATOM     20  C   UNL     1       1.967   4.791  19.336  0.00  0.00    +0.000 A 
ATOM     21  C   UNL     1       1.534   3.992  18.258  0.00  0.00    +0.000 A 
ATOM     22  C   UNL     1       0.814   2.805  18.456  0.00  0.00    +0.000 A 
ATOM     23  C   UNL     1       0.505   2.381  19.743  0.00  0.00    +0.000 A 
ATOM     24  C   UNL     1       0.919   3.141  20.830  0.00  0.00    +0.000 A 
ATOM     25  C   UNL     1       1.650   4.315  20.628  0.00  0.00    +0.000 A 
ENDBRANCH   1  20
BRANCH   1  26
ATOM     26  O   UNL     1       3.549   6.128  20.442  0.00  0.00    +0.000 OA
ATOM     27  H   UNL     1       3.911   5.234  20.605  0.00  0.00    +0.000 HD
ENDBRANCH   1  26
TORSDOF 5
ENDMDL
