MODEL 1
REMARK VINA RESULT:      -7.1      0.000      0.000
REMARK  Name = 
REMARK  3 active torsions:
REMARK  status: ('A' for Active; 'I' for Inactive)
REMARK    1  A    between atoms: C_1  and  N_2
REMARK    2  A    between atoms: C_3  and  C_4
REMARK    3  A    between atoms: C_9  and  C_10
REMARK                            x       y       z     vdW  Elec       q    Type
REMARK                         _______ _______ _______ _____ _____    ______ ____
ROOT
ATOM      1  C   UNL     1       2.200   6.472  20.094  0.00  0.00    +0.000 C 
ATOM      2  O   UNL     1       2.027   5.672  21.018  0.00  0.00    +0.000 OA
ATOM      3  N   UNL     1       1.661   7.763  20.193  0.00  0.00    +0.000 N 
ATOM      4  C   UNL     1       0.995   8.127  21.440  0.00  0.00    +0.000 C 
ATOM      5  C   UNL     1      -0.353   8.777  21.161  0.00  0.00    +0.000 C 
ATOM      6  C   UNL     1      -0.237   9.986  20.222  0.00  0.00    +0.000 C 
ATOM      7  C   UNL     1       0.551   9.570  18.960  0.00  0.00    +0.000 C 
ATOM      8  C   UNL     1       1.888   8.902  19.304  0.00  0.00    +0.000 C 
ENDROOT
BRANCH   1  11
ATOM      9  C   UNL     1       2.269   3.615  18.865  0.00  0.00    +0.000 C 
ATOM     10  N   UNL     1       2.994   4.778  18.413  0.00  0.00    +0.000 N 
ATOM     11  C   UNL     1       2.969   6.074  18.916  0.00  0.00    +0.000 A 
ATOM     12  C   UNL     1       3.700   6.861  18.030  0.00  0.00    +0.000 A 
ATOM     13  C   UNL     1       4.329   5.978  17.111  0.00  0.00    +0.000 A 
ATOM     14  S   UNL     1       5.444   6.036  15.790  0.00  0.00    +0.000 S 
ATOM     15  C   UNL     1       5.289   4.335  15.590  0.00  0.00    +0.000 A 
ATOM     16  C   UNL     1       4.427   3.739  16.486  0.00  0.00    +0.000 A 
ATOM     17  C   UNL     1       3.885   4.720  17.363  0.00  0.00    +0.000 A 
ENDBRANCH   1  11
BRANCH   6  18
ATOM     18  C   UNL     1       0.393  11.240  20.853  0.00  0.00    +0.000 C 
ATOM     19  O   UNL     1       1.284  11.126  21.699  0.00  0.00    +0.000 OA
ATOM     20  N   UNL     1      -0.013  12.495  20.428  0.00  0.00    +0.000 N 
ATOM     21  C   UNL     1      -0.996  12.811  19.393  0.00  0.00    +0.000 C 
ATOM     22  C   UNL     1      -0.352  13.634  18.272  0.00  0.00    +0.000 C 
ATOM     23  O   UNL     1       0.289  14.808  18.789  0.00  0.00    +0.000 OA
ATOM     24  C   UNL     1       1.305  14.455  19.744  0.00  0.00    +0.000 C 
ATOM     25  C   UNL     1       0.704  13.677  20.921  0.00  0.00    +0.000 C 
ENDBRANCH   6  18
TORSDOF 2
ENDMDL
MODEL 2
REMARK VINA RESULT:      -7.0      1.111      1.137
REMARK  Name = 
REMARK  3 active torsions:
REMARK  status: ('A' for Active; 'I' for Inactive)
REMARK    1  A    between atoms: C_1  and  N_2
REMARK    2  A    between atoms: C_3  and  C_4
REMARK    3  A    between atoms: C_9  and  C_10
REMARK                            x       y       z     vdW  Elec       q    Type
REMARK                         _______ _______ _______ _____ _____    ______ ____
ROOT
ATOM      1  C   UNL     1       2.199   6.196  20.153  0.00  0.00    +0.000 C 
ATOM      2  O   UNL     1       1.755   5.401  20.985  0.00  0.00    +0.000 OA
ATOM      3  N   UNL     1       1.783   7.535  20.190  0.00  0.00    +0.000 N 
ATOM      4  C   UNL     1       0.906   7.943  21.283  0.00  0.00    +0.000 C 
ATOM      5  C   UNL     1      -0.280   8.738  20.753  0.00  0.00    +0.000 C 
ATOM      6  C   UNL     1       0.154   9.946  19.911  0.00  0.00    +0.000 C 
ATOM      7  C   UNL     1       1.148   9.473  18.827  0.00  0.00    +0.000 C 
ATOM      8  C   UNL     1       2.307   8.661  19.417  0.00  0.00    +0.000 C 
ENDROOT
BRANCH   1  11
ATOM      9  C   UNL     1       1.525   4.425  17.687  0.00  0.00    +0.000 C 
ATOM     10  N   UNL     1       2.822   4.928  18.072  0.00  0.00    +0.000 N 
ATOM     11  C   UNL     1       3.159   5.742  19.148  0.00  0.00    +0.000 A 
ATOM     12  C   UNL     1       4.498   6.088  18.982  0.00  0.00    +0.000 A 
ATOM     13  C   UNL     1       5.002   5.302  17.911  0.00  0.00    +0.000 A 
ATOM     14  S   UNL     1       6.499   4.996  17.099  0.00  0.00    +0.000 S 
ATOM     15  C   UNL     1       5.691   3.920  16.027  0.00  0.00    +0.000 A 
ATOM     16  C   UNL     1       4.340   3.792  16.268  0.00  0.00    +0.000 A 
ATOM     17  C   UNL     1       3.966   4.607  17.374  0.00  0.00    +0.000 A 
ENDBRANCH   1  11
BRANCH   6  18
ATOM     18  C   UNL     1       0.757  11.113  20.712  0.00  0.00    +0.000 C 
ATOM     19  O   UNL     1       1.107  10.944  21.884  0.00  0.00    +0.000 OA
ATOM     20  N   UNL     1       0.947  12.339  20.094  0.00  0.00    +0.000 N 
ATOM     21  C   UNL     1       0.657  12.691  18.705  0.00  0.00    +0.000 C 
ATOM     22  C   UNL     1       1.932  13.150  17.989  0.00  0.00    +0.000 C 
ATOM     23  O   UNL     1       2.573  14.219  18.699  0.00  0.00    +0.000 OA
ATOM     24  C   UNL     1       2.915  13.811  20.034  0.00  0.00    +0.000 C 
ATOM     25  C   UNL     1       1.665  13.395  20.818  0.00  0.00    +0.000 C 
ENDBRANCH   6  18
TORSDOF 2
ENDMDL
MODEL 3
REMARK VINA RESULT:      -6.9      1.341      1.491
REMARK  Name = 
REMARK  3 active torsions:
REMARK  status: ('A' for Active; 'I' for Inactive)
REMARK    1  A    between atoms: C_1  and  N_2
REMARK    2  A    between atoms: C_3  and  C_4
REMARK    3  A    between atoms: C_9  and  C_10
REMARK                            x       y       z     vdW  Elec       q    Type
REMARK                         _______ _______ _______ _____ _____    ______ ____
ROOT
ATOM      1  C   UNL     1       2.151   7.199  19.819  0.00  0.00    +0.000 C 
ATOM      2  O   UNL     1       2.010   6.647  20.913  0.00  0.00    +0.000 OA
ATOM      3  N   UNL     1       1.573   8.459  19.606  0.00  0.00    +0.000 N 
ATOM      4  C   UNL     1       0.907   9.100  20.735  0.00  0.00    +0.000 C 
ATOM      5  C   UNL     1      -0.463   9.624  20.326  0.00  0.00    +0.000 C 
ATOM      6  C   UNL     1      -0.392  10.568  19.117  0.00  0.00    +0.000 C 
ATOM      7  C   UNL     1       0.398   9.876  17.984  0.00  0.00    +0.000 C 
ATOM      8  C   UNL     1       1.757   9.351  18.461  0.00  0.00    +0.000 C 
ENDROOT
BRANCH   1  11
ATOM      9  C   UNL     1       1.821   4.242  18.911  0.00  0.00    +0.000 C 
ATOM     10  N   UNL     1       2.762   5.212  18.404  0.00  0.00    +0.000 N 
ATOM     11  C   UNL     1       2.922   6.546  18.762  0.00  0.00    +0.000 A 
ATOM     12  C   UNL     1       3.836   7.093  17.866  0.00  0.00    +0.000 A 
ATOM     13  C   UNL     1       4.369   6.018  17.105  0.00  0.00    +0.000 A 
ATOM     14  S   UNL     1       5.568   5.738  15.890  0.00  0.00    +0.000 S 
ATOM     15  C   UNL     1       5.141   4.072  15.859  0.00  0.00    +0.000 A 
ATOM     16  C   UNL     1       4.131   3.733  16.733  0.00  0.00    +0.000 A 
ATOM     17  C   UNL     1       3.702   4.886  17.449  0.00  0.00    +0.000 A 
ENDBRANCH   1  11
BRANCH   6  18
ATOM     18  C   UNL     1       0.204  11.955  19.411  0.00  0.00    +0.000 C 
ATOM     19  O   UNL     1       1.227  12.326  18.828  0.00  0.00    +0.000 OA
ATOM     20  N   UNL     1      -0.443  12.802  20.297  0.00  0.00    +0.000 N 
ATOM     21  C   UNL     1      -1.692  12.555  21.015  0.00  0.00    +0.000 C 
ATOM     22  C   UNL     1      -2.742  13.609  20.648  0.00  0.00    +0.000 C 
ATOM     23  O   UNL     1      -2.244  14.938  20.863  0.00  0.00    +0.000 OA
ATOM     24  C   UNL     1      -1.062  15.172  20.080  0.00  0.00    +0.000 C 
ATOM     25  C   UNL     1       0.046  14.178  20.449  0.00  0.00    +0.000 C 
ENDBRANCH   6  18
TORSDOF 2
ENDMDL
MODEL 4
REMARK VINA RESULT:      -6.7      2.684      3.668
REMARK  Name = 
REMARK  3 active torsions:
REMARK  status: ('A' for Active; 'I' for Inactive)
REMARK    1  A    between atoms: C_1  and  N_2
REMARK    2  A    between atoms: C_3  and  C_4
REMARK    3  A    between atoms: C_9  and  C_10
REMARK                            x       y       z     vdW  Elec       q    Type
REMARK                         _______ _______ _______ _____ _____    ______ ____
ROOT
ATOM      1  C   UNL     1       2.304   7.991  18.563  0.00  0.00    +0.000 C 
ATOM      2  O   UNL     1       2.828   8.213  17.469  0.00  0.00    +0.000 OA
ATOM      3  N   UNL     1       1.517   8.985  19.162  0.00  0.00    +0.000 N 
ATOM      4  C   UNL     1       1.280  10.211  18.406  0.00  0.00    +0.000 C 
ATOM      5  C   UNL     1       1.534  11.437  19.274  0.00  0.00    +0.000 C 
ATOM      6  C   UNL     1       0.709  11.417  20.569  0.00  0.00    +0.000 C 
ATOM      7  C   UNL     1       0.927  10.065  21.285  0.00  0.00    +0.000 C 
ATOM      8  C   UNL     1       0.679   8.871  20.356  0.00  0.00    +0.000 C 
ENDROOT
BRANCH   1  11
ATOM      9  C   UNL     1       4.595   5.980  17.945  0.00  0.00    +0.000 C 
ATOM     10  N   UNL     1       3.520   5.815  18.894  0.00  0.00    +0.000 N 
ATOM     11  C   UNL     1       2.496   6.698  19.219  0.00  0.00    +0.000 A 
ATOM     12  C   UNL     1       1.826   6.150  20.309  0.00  0.00    +0.000 A 
ATOM     13  C   UNL     1       2.334   4.836  20.493  0.00  0.00    +0.000 A 
ATOM     14  S   UNL     1       2.052   3.448  21.486  0.00  0.00    +0.000 S 
ATOM     15  C   UNL     1       3.349   2.632  20.703  0.00  0.00    +0.000 A 
ATOM     16  C   UNL     1       3.976   3.376  19.727  0.00  0.00    +0.000 A 
ATOM     17  C   UNL     1       3.362   4.656  19.624  0.00  0.00    +0.000 A 
ENDBRANCH   1  11
BRANCH   6  18
ATOM     18  C   UNL     1      -0.794  11.686  20.386  0.00  0.00    +0.000 C 
ATOM     19  O   UNL     1      -1.465  10.969  19.638  0.00  0.00    +0.000 OA
ATOM     20  N   UNL     1      -1.397  12.707  21.104  0.00  0.00    +0.000 N 
ATOM     21  C   UNL     1      -0.773  13.600  22.079  0.00  0.00    +0.000 C 
ATOM     22  C   UNL     1      -1.450  13.460  23.447  0.00  0.00    +0.000 C 
ATOM     23  O   UNL     1      -2.867  13.664  23.351  0.00  0.00    +0.000 OA
ATOM     24  C   UNL     1      -3.458  12.717  22.445  0.00  0.00    +0.000 C 
ATOM     25  C   UNL     1      -2.856  12.852  21.041  0.00  0.00    +0.000 C 
ENDBRANCH   6  18
TORSDOF 2
ENDMDL
MODEL 5
REMARK VINA RESULT:      -6.7      5.424      8.033
REMARK  Name = 
REMARK  3 active torsions:
REMARK  status: ('A' for Active; 'I' for Inactive)
REMARK    1  A    between atoms: C_1  and  N_2
REMARK    2  A    between atoms: C_3  and  C_4
REMARK    3  A    between atoms: C_9  and  C_10
REMARK                            x       y       z     vdW  Elec       q    Type
REMARK                         _______ _______ _______ _____ _____    ______ ____
ROOT
ATOM      1  C   UNL     1      -2.535  11.232  18.128  0.00  0.00    +0.000 C 
ATOM      2  O   UNL     1      -2.537  10.383  17.232  0.00  0.00    +0.000 OA
ATOM      3  N   UNL     1      -3.736  11.541  18.784  0.00  0.00    +0.000 N 
ATOM      4  C   UNL     1      -4.922  10.767  18.432  0.00  0.00    +0.000 C 
ATOM      5  C   UNL     1      -6.108  11.686  18.172  0.00  0.00    +0.000 C 
ATOM      6  C   UNL     1      -6.391  12.624  19.354  0.00  0.00    +0.000 C 
ATOM      7  C   UNL     1      -5.085  13.352  19.743  0.00  0.00    +0.000 C 
ATOM      8  C   UNL     1      -3.922  12.378  19.969  0.00  0.00    +0.000 C 
ENDROOT
BRANCH   1  11
ATOM      9  C   UNL     1      -0.407  10.093  20.090  0.00  0.00    +0.000 C 
ATOM     10  N   UNL     1      -0.374  11.364  19.407  0.00  0.00    +0.000 N 
ATOM     11  C   UNL     1      -1.288  11.896  18.504  0.00  0.00    +0.000 A 
ATOM     12  C   UNL     1      -0.719  13.062  18.000  0.00  0.00    +0.000 A 
ATOM     13  C   UNL     1       0.449  13.322  18.766  0.00  0.00    +0.000 A 
ATOM     14  S   UNL     1       1.677  14.531  18.918  0.00  0.00    +0.000 S 
ATOM     15  C   UNL     1       2.442  13.593  20.139  0.00  0.00    +0.000 A 
ATOM     16  C   UNL     1       1.799  12.408  20.426  0.00  0.00    +0.000 A 
ATOM     17  C   UNL     1       0.638  12.278  19.613  0.00  0.00    +0.000 A 
ENDBRANCH   1  11
BRANCH   6  18
ATOM     18  C   UNL     1      -7.009  11.945  20.588  0.00  0.00    +0.000 C 
ATOM     19  O   UNL     1      -7.049  10.713  20.662  0.00  0.00    +0.000 OA
ATOM     20  N   UNL     1      -7.474  12.725  21.635  0.00  0.00    +0.000 N 
ATOM     21  C   UNL     1      -7.439  14.182  21.744  0.00  0.00    +0.000 C 
ATOM     22  C   UNL     1      -6.634  14.612  22.975  0.00  0.00    +0.000 C 
ATOM     23  O   UNL     1      -7.131  13.988  24.167  0.00  0.00    +0.000 OA
ATOM     24  C   UNL     1      -7.075  12.556  24.055  0.00  0.00    +0.000 C 
ATOM     25  C   UNL     1      -7.915  12.065  22.870  0.00  0.00    +0.000 C 
ENDBRANCH   6  18
TORSDOF 2
ENDMDL
MODEL 6
REMARK VINA RESULT:      -6.6      4.725      7.303
REMARK  Name = 
REMARK  3 active torsions:
REMARK  status: ('A' for Active; 'I' for Inactive)
REMARK    1  A    between atoms: C_1  and  N_2
REMARK    2  A    between atoms: C_3  and  C_4
REMARK    3  A    between atoms: C_9  and  C_10
REMARK                            x       y       z     vdW  Elec       q    Type
REMARK                         _______ _______ _______ _____ _____    ______ ____
ROOT
ATOM      1  C   UNL     1       0.602  12.237  20.441  0.00  0.00    +0.000 C 
ATOM      2  O   UNL     1       0.709  11.778  21.580  0.00  0.00    +0.000 OA
ATOM      3  N   UNL     1       1.528  13.191  19.994  0.00  0.00    +0.000 N 
ATOM      4  C   UNL     1       2.641  13.524  20.879  0.00  0.00    +0.000 C 
ATOM      5  C   UNL     1       2.803  15.033  20.994  0.00  0.00    +0.000 C 
ATOM      6  C   UNL     1       2.963  15.711  19.626  0.00  0.00    +0.000 C 
ATOM      7  C   UNL     1       1.811  15.257  18.702  0.00  0.00    +0.000 C 
ATOM      8  C   UNL     1       1.683  13.730  18.643  0.00  0.00    +0.000 C 
ENDROOT
BRANCH   1  11
ATOM      9  C   UNL     1       0.794   9.879  18.421  0.00  0.00    +0.000 C 
ATOM     10  N   UNL     1      -0.342  10.738  18.656  0.00  0.00    +0.000 N 
ATOM     11  C   UNL     1      -0.477  11.781  19.566  0.00  0.00    +0.000 A 
ATOM     12  C   UNL     1      -1.812  12.174  19.527  0.00  0.00    +0.000 A 
ATOM     13  C   UNL     1      -2.417  11.492  18.437  0.00  0.00    +0.000 A 
ATOM     14  S   UNL     1      -3.934  11.426  17.610  0.00  0.00    +0.000 S 
ATOM     15  C   UNL     1      -3.309  10.207  16.570  0.00  0.00    +0.000 A 
ATOM     16  C   UNL     1      -2.001   9.858  16.833  0.00  0.00    +0.000 A 
ATOM     17  C   UNL     1      -1.505  10.625  17.925  0.00  0.00    +0.000 A 
ENDBRANCH   1  11
BRANCH   6  18
ATOM     18  C   UNL     1       4.320  15.478  18.940  0.00  0.00    +0.000 C 
ATOM     19  O   UNL     1       4.376  14.861  17.873  0.00  0.00    +0.000 OA
ATOM     20  N   UNL     1       5.469  16.008  19.504  0.00  0.00    +0.000 N 
ATOM     21  C   UNL     1       5.575  16.820  20.716  0.00  0.00    +0.000 C 
ATOM     22  C   UNL     1       6.186  18.188  20.396  0.00  0.00    +0.000 C 
ATOM     23  O   UNL     1       7.445  18.052  19.720  0.00  0.00    +0.000 OA
ATOM     24  C   UNL     1       7.288  17.319  18.493  0.00  0.00    +0.000 C 
ATOM     25  C   UNL     1       6.732  15.915  18.761  0.00  0.00    +0.000 C 
ENDBRANCH   6  18
TORSDOF 2
ENDMDL
MODEL 7
REMARK VINA RESULT:      -6.6      7.756      8.702
REMARK  Name = 
REMARK  3 active torsions:
REMARK  status: ('A' for Active; 'I' for Inactive)
REMARK    1  A    between atoms: C_1  and  N_2
REMARK    2  A    between atoms: C_3  and  C_4
REMARK    3  A    between atoms: C_9  and  C_10
REMARK                            x       y       z     vdW  Elec       q    Type
REMARK                         _______ _______ _______ _____ _____    ______ ____
ROOT
ATOM      1  C   UNL     1       7.327  14.975  20.325  0.00  0.00    +0.000 C 
ATOM      2  O   UNL     1       7.473  15.149  21.537  0.00  0.00    +0.000 OA
ATOM      3  N   UNL     1       6.094  15.279  19.730  0.00  0.00    +0.000 N 
ATOM      4  C   UNL     1       5.065  15.882  20.571  0.00  0.00    +0.000 C 
ATOM      5  C   UNL     1       3.732  15.170  20.384  0.00  0.00    +0.000 C 
ATOM      6  C   UNL     1       3.291  15.129  18.914  0.00  0.00    +0.000 C 
ATOM      7  C   UNL     1       4.447  14.566  18.058  0.00  0.00    +0.000 C 
ATOM      8  C   UNL     1       5.766  15.307  18.305  0.00  0.00    +0.000 C 
ENDROOT
BRANCH   1  11
ATOM      9  C   UNL     1       9.257  16.711  18.610  0.00  0.00    +0.000 C 
ATOM     10  N   UNL     1       9.261  15.274  18.745  0.00  0.00    +0.000 N 
ATOM     11  C   UNL     1       8.437  14.466  19.520  0.00  0.00    +0.000 A 
ATOM     12  C   UNL     1       8.954  13.176  19.442  0.00  0.00    +0.000 A 
ATOM     13  C   UNL     1       9.970  13.193  18.448  0.00  0.00    +0.000 A 
ATOM     14  S   UNL     1      11.039  12.096  17.645  0.00  0.00    +0.000 S 
ATOM     15  C   UNL     1      11.712  13.408  16.759  0.00  0.00    +0.000 A 
ATOM     16  C   UNL     1      11.154  14.633  17.055  0.00  0.00    +0.000 A 
ATOM     17  C   UNL     1      10.139  14.478  18.040  0.00  0.00    +0.000 A 
ENDBRANCH   1  11
BRANCH   6  18
ATOM     18  C   UNL     1       2.811  16.474  18.343  0.00  0.00    +0.000 C 
ATOM     19  O   UNL     1       3.487  17.063  17.495  0.00  0.00    +0.000 OA
ATOM     20  N   UNL     1       1.592  16.992  18.750  0.00  0.00    +0.000 N 
ATOM     21  C   UNL     1       0.637  16.397  19.684  0.00  0.00    +0.000 C 
ATOM     22  C   UNL     1      -0.714  16.166  18.999  0.00  0.00    +0.000 C 
ATOM     23  O   UNL     1      -1.213  17.374  18.408  0.00  0.00    +0.000 OA
ATOM     24  C   UNL     1      -0.284  17.887  17.437  0.00  0.00    +0.000 C 
ATOM     25  C   UNL     1       1.072  18.192  18.083  0.00  0.00    +0.000 C 
ENDBRANCH   6  18
TORSDOF 2
ENDMDL
MODEL 8
REMARK VINA RESULT:      -6.5      2.615      3.411
REMARK  Name = 
REMARK  3 active torsions:
REMARK  status: ('A' for Active; 'I' for Inactive)
REMARK    1  A    between atoms: C_1  and  N_2
REMARK    2  A    between atoms: C_3  and  C_4
REMARK    3  A    between atoms: C_9  and  C_10
REMARK                            x       y       z     vdW  Elec       q    Type
REMARK                         _______ _______ _______ _____ _____    ______ ____
ROOT
ATOM      1  C   UNL     1       1.901   7.797  18.965  0.00  0.00    +0.000 C 
ATOM      2  O   UNL     1       1.948   8.211  17.804  0.00  0.00    +0.000 OA
ATOM      3  N   UNL     1       1.322   8.600  19.958  0.00  0.00    +0.000 N 
ATOM      4  C   UNL     1       0.714   9.861  19.544  0.00  0.00    +0.000 C 
ATOM      5  C   UNL     1       1.177  11.002  20.439  0.00  0.00    +0.000 C 
ATOM      6  C   UNL     1       0.914  10.723  21.926  0.00  0.00    +0.000 C 
ATOM      7  C   UNL     1       1.499   9.341  22.290  0.00  0.00    +0.000 C 
ATOM      8  C   UNL     1       1.015   8.237  21.342  0.00  0.00    +0.000 C 
ENDROOT
BRANCH   1  11
ATOM      9  C   UNL     1       4.527   6.581  17.825  0.00  0.00    +0.000 C 
ATOM     10  N   UNL     1       3.601   5.958  18.740  0.00  0.00    +0.000 N 
ATOM     11  C   UNL     1       2.435   6.476  19.293  0.00  0.00    +0.000 A 
ATOM     12  C   UNL     1       2.000   5.556  20.243  0.00  0.00    +0.000 A 
ATOM     13  C   UNL     1       2.806   4.395  20.099  0.00  0.00    +0.000 A 
ATOM     14  S   UNL     1       2.930   2.796  20.746  0.00  0.00    +0.000 S 
ATOM     15  C   UNL     1       4.307   2.508  19.757  0.00  0.00    +0.000 A 
ATOM     16  C   UNL     1       4.666   3.577  18.964  0.00  0.00    +0.000 A 
ATOM     17  C   UNL     1       3.771   4.663  19.182  0.00  0.00    +0.000 A 
ENDBRANCH   1  11
BRANCH   6  18
ATOM     18  C   UNL     1      -0.563  10.805  22.350  0.00  0.00    +0.000 C 
ATOM     19  O   UNL     1      -1.117   9.824  22.854  0.00  0.00    +0.000 OA
ATOM     20  N   UNL     1      -1.248  12.000  22.208  0.00  0.00    +0.000 N 
ATOM     21  C   UNL     1      -0.730  13.270  21.701  0.00  0.00    +0.000 C 
ATOM     22  C   UNL     1      -0.859  14.367  22.763  0.00  0.00    +0.000 C 
ATOM     23  O   UNL     1      -2.209  14.480  23.236  0.00  0.00    +0.000 OA
ATOM     24  C   UNL     1      -2.657  13.235  23.801  0.00  0.00    +0.000 C 
ATOM     25  C   UNL     1      -2.604  12.111  22.760  0.00  0.00    +0.000 C 
ENDBRANCH   6  18
TORSDOF 2
ENDMDL
MODEL 9
REMARK VINA RESULT:      -6.4      5.742      8.159
REMARK  Name = 
REMARK  3 active torsions:
REMARK  status: ('A' for Active; 'I' for Inactive)
REMARK    1  A    between atoms: C_1  and  N_2
REMARK    2  A    between atoms: C_3  and  C_4
REMARK    3  A    between atoms: C_9  and  C_10
REMARK                            x       y       z     vdW  Elec       q    Type
REMARK                         _______ _______ _______ _____ _____    ______ ____
ROOT
ATOM      1  C   UNL     1      -2.244  10.914  18.477  0.00  0.00    +0.000 C 
ATOM      2  O   UNL     1      -2.161   9.693  18.327  0.00  0.00    +0.000 OA
ATOM      3  N   UNL     1      -1.074  11.663  18.670  0.00  0.00    +0.000 N 
ATOM      4  C   UNL     1       0.203  10.962  18.590  0.00  0.00    +0.000 C 
ATOM      5  C   UNL     1       1.092  11.323  19.773  0.00  0.00    +0.000 C 
ATOM      6  C   UNL     1       1.300  12.838  19.907  0.00  0.00    +0.000 C 
ATOM      7  C   UNL     1      -0.077  13.538  19.899  0.00  0.00    +0.000 C 
ATOM      8  C   UNL     1      -0.934  13.119  18.698  0.00  0.00    +0.000 C 
ENDROOT
BRANCH   1  11
ATOM      9  C   UNL     1      -4.118  11.066  15.999  0.00  0.00    +0.000 C 
ATOM     10  N   UNL     1      -4.347  11.638  17.304  0.00  0.00    +0.000 N 
ATOM     11  C   UNL     1      -3.550  11.569  18.441  0.00  0.00    +0.000 A 
ATOM     12  C   UNL     1      -4.289  12.127  19.481  0.00  0.00    +0.000 A 
ATOM     13  C   UNL     1      -5.448  12.712  18.903  0.00  0.00    +0.000 A 
ATOM     14  S   UNL     1      -6.817  13.656  19.377  0.00  0.00    +0.000 S 
ATOM     15  C   UNL     1      -7.400  13.615  17.759  0.00  0.00    +0.000 A 
ATOM     16  C   UNL     1      -6.594  12.915  16.888  0.00  0.00    +0.000 A 
ATOM     17  C   UNL     1      -5.461  12.402  17.581  0.00  0.00    +0.000 A 
ENDBRANCH   1  11
BRANCH   6  18
ATOM     18  C   UNL     1       2.222  13.463  18.846  0.00  0.00    +0.000 C 
ATOM     19  O   UNL     1       2.410  12.885  17.772  0.00  0.00    +0.000 OA
ATOM     20  N   UNL     1       2.798  14.700  19.087  0.00  0.00    +0.000 N 
ATOM     21  C   UNL     1       2.627  15.550  20.264  0.00  0.00    +0.000 C 
ATOM     22  C   UNL     1       2.040  16.908  19.868  0.00  0.00    +0.000 C 
ATOM     23  O   UNL     1       2.830  17.541  18.851  0.00  0.00    +0.000 OA
ATOM     24  C   UNL     1       2.909  16.713  17.678  0.00  0.00    +0.000 C 
ATOM     25  C   UNL     1       3.545  15.357  18.007  0.00  0.00    +0.000 C 
ENDBRANCH   6  18
TORSDOF 2
ENDMDL
