MODEL 1
REMARK VINA RESULT:      -8.0      0.000      0.000
REMARK  Name = 
REMARK  12 active torsions:
REMARK  status: ('A' for Active; 'I' for Inactive)
REMARK    1  A    between atoms: C_1  and  C_2
REMARK    2  A    between atoms: C_6  and  C_7
REMARK    3  A    between atoms: C_7  and  O_8
REMARK    4  A    between atoms: C_7  and  C_9
REMARK    5  A    between atoms: C_9  and  C_10
REMARK    6  A    between atoms: C_10  and  C_11
REMARK    7  A    between atoms: C_10  and  C_12
REMARK    8  A    between atoms: C_13  and  C_14
REMARK    9  A    between atoms: C_14  and  C_15
REMARK   10  A    between atoms: C_15  and  C_16
REMARK   11  A    between atoms: C_24  and  C_25
REMARK   12  A    between atoms: C_25  and  O_27
REMARK                            x       y       z     vdW  Elec       q    Type
REMARK                         _______ _______ _______ _____ _____    ______ ____
ROOT
ATOM      1  C   UNL     1       1.462   9.572  18.692  0.00  0.00    +0.000 C 
ATOM      2  C   UNL     1       2.348   8.364  18.529  0.00  0.00    +0.000 A 
ATOM      3  C   UNL     1       3.139   8.313  17.361  0.00  0.00    +0.000 A 
ATOM      4  C   UNL     1       3.919   7.175  17.111  0.00  0.00    +0.000 A 
ATOM      5  N   UNL     1       4.723   6.871  16.038  0.00  0.00    +0.000 N 
ATOM      6  C   UNL     1       5.320   5.642  16.205  0.00  0.00    +0.000 A 
ATOM      7  C   UNL     1       4.857   5.118  17.407  0.00  0.00    +0.000 A 
ATOM      8  C   UNL     1       3.978   6.096  17.984  0.00  0.00    +0.000 A 
ATOM      9  C   UNL     1       3.214   6.165  19.166  0.00  0.00    +0.000 A 
ATOM     10  C   UNL     1       2.393   7.286  19.436  0.00  0.00    +0.000 A 
ATOM     11  H   UNL     1       4.865   7.488  15.251  0.00  0.00    +0.000 HD
ENDROOT
BRANCH  10  12
ATOM     12  C   UNL     1       1.552   7.149  20.662  0.00  0.00    +0.000 C 
ATOM     13  O   UNL     1       0.815   6.191  20.842  0.00  0.00    +0.000 OA
BRANCH  12  14
ATOM     14  O   UNL     1       1.702   8.111  21.594  0.00  0.00    +0.000 OA
ATOM     15  H   UNL     1       0.959   8.191  22.215  0.00  0.00    +0.000 HD
ENDBRANCH  12  14
ENDBRANCH  10  12
BRANCH   6  16
ATOM     16  C   UNL     1       6.278   5.058  15.208  0.00  0.00    +0.000 C 
BRANCH  16  17
ATOM     17  O   UNL     1       7.501   4.849  15.906  0.00  0.00    +0.000 OA
ATOM     18  H   UNL     1       7.851   3.983  15.643  0.00  0.00    +0.000 HD
ENDBRANCH  16  17
BRANCH  16  19
ATOM     19  C   UNL     1       5.846   3.741  14.557  0.00  0.00    +0.000 C 
BRANCH  19  20
ATOM     20  C   UNL     1       6.255   3.560  13.083  0.00  0.00    +0.000 C 
ATOM     21  C   UNL     1       5.054   3.469  12.141  0.00  0.00    +0.000 C 
ATOM     22  C   UNL     1       7.159   4.722  12.663  0.00  0.00    +0.000 C 
ENDBRANCH  19  20
ENDBRANCH  16  19
ENDBRANCH   6  16
BRANCH   7  23
ATOM     23  C   UNL     1       5.240   3.788  18.001  0.00  0.00    +0.000 C 
BRANCH  23  24
ATOM     24  C   UNL     1       4.187   2.693  17.806  0.00  0.00    +0.000 C 
BRANCH  24  25
ATOM     25  C   UNL     1       3.153   2.718  18.908  0.00  0.00    +0.000 A 
ATOM     26  C   UNL     1       1.788   2.803  18.596  0.00  0.00    +0.000 A 
ATOM     27  C   UNL     1       0.832   2.852  19.612  0.00  0.00    +0.000 A 
ATOM     28  C   UNL     1       1.229   2.819  20.947  0.00  0.00    +0.000 A 
ATOM     29  C   UNL     1       2.582   2.741  21.271  0.00  0.00    +0.000 A 
ATOM     30  C   UNL     1       3.541   2.695  20.253  0.00  0.00    +0.000 A 
ENDBRANCH  24  25
ENDBRANCH  23  24
ENDBRANCH   7  23
TORSDOF 9
ENDMDL
MODEL 2
REMARK VINA RESULT:      -7.8      1.881      2.727
REMARK  Name = 
REMARK  12 active torsions:
REMARK  status: ('A' for Active; 'I' for Inactive)
REMARK    1  A    between atoms: C_1  and  C_2
REMARK    2  A    between atoms: C_6  and  C_7
REMARK    3  A    between atoms: C_7  and  O_8
REMARK    4  A    between atoms: C_7  and  C_9
REMARK    5  A    between atoms: C_9  and  C_10
REMARK    6  A    between atoms: C_10  and  C_11
REMARK    7  A    between atoms: C_10  and  C_12
REMARK    8  A    between atoms: C_13  and  C_14
REMARK    9  A    between atoms: C_14  and  C_15
REMARK   10  A    between atoms: C_15  and  C_16
REMARK   11  A    between atoms: C_24  and  C_25
REMARK   12  A    between atoms: C_25  and  O_27
REMARK                            x       y       z     vdW  Elec       q    Type
REMARK                         _______ _______ _______ _____ _____    ______ ____
ROOT
ATOM      1  C   UNL     1       0.165  10.155  18.814  0.00  0.00    +0.000 C 
ATOM      2  C   UNL     1       1.233   9.098  18.924  0.00  0.00    +0.000 A 
ATOM      3  C   UNL     1       2.012   8.863  17.771  0.00  0.00    +0.000 A 
ATOM      4  C   UNL     1       2.963   7.833  17.785  0.00  0.00    +0.000 A 
ATOM      5  N   UNL     1       3.796   7.384  16.788  0.00  0.00    +0.000 N 
ATOM      6  C   UNL     1       4.586   6.350  17.237  0.00  0.00    +0.000 A 
ATOM      7  C   UNL     1       4.223   6.096  18.556  0.00  0.00    +0.000 A 
ATOM      8  C   UNL     1       3.203   7.045  18.904  0.00  0.00    +0.000 A 
ATOM      9  C   UNL     1       2.448   7.305  20.064  0.00  0.00    +0.000 A 
ATOM     10  C   UNL     1       1.459   8.317  20.076  0.00  0.00    +0.000 A 
ATOM     11  H   UNL     1       3.831   7.786  15.862  0.00  0.00    +0.000 HD
ENDROOT
BRANCH  10  12
ATOM     12  C   UNL     1       0.661   8.381  21.336  0.00  0.00    +0.000 C 
ATOM     13  O   UNL     1      -0.510   8.037  21.384  0.00  0.00    +0.000 OA
BRANCH  12  14
ATOM     14  O   UNL     1       1.326   8.776  22.440  0.00  0.00    +0.000 OA
ATOM     15  H   UNL     1       0.762   9.127  23.148  0.00  0.00    +0.000 HD
ENDBRANCH  12  14
ENDBRANCH  10  12
BRANCH   6  16
ATOM     16  C   UNL     1       5.616   5.678  16.378  0.00  0.00    +0.000 C 
BRANCH  16  17
ATOM     17  O   UNL     1       5.321   6.050  15.036  0.00  0.00    +0.000 OA
ATOM     18  H   UNL     1       4.600   5.483  14.720  0.00  0.00    +0.000 HD
ENDBRANCH  16  17
BRANCH  16  19
ATOM     19  C   UNL     1       7.075   6.032  16.682  0.00  0.00    +0.000 C 
BRANCH  19  20
ATOM     20  C   UNL     1       7.309   6.858  17.961  0.00  0.00    +0.000 C 
ATOM     21  C   UNL     1       8.129   6.106  19.011  0.00  0.00    +0.000 C 
ATOM     22  C   UNL     1       8.008   8.169  17.595  0.00  0.00    +0.000 C 
ENDBRANCH  19  20
ENDBRANCH  16  19
ENDBRANCH   6  16
BRANCH   7  23
ATOM     23  C   UNL     1       4.820   5.044  19.453  0.00  0.00    +0.000 C 
BRANCH  23  24
ATOM     24  C   UNL     1       4.472   3.609  19.048  0.00  0.00    +0.000 C 
BRANCH  24  25
ATOM     25  C   UNL     1       3.040   3.270  19.396  0.00  0.00    +0.000 A 
ATOM     26  C   UNL     1       2.141   2.879  18.392  0.00  0.00    +0.000 A 
ATOM     27  C   UNL     1       0.813   2.590  18.706  0.00  0.00    +0.000 A 
ATOM     28  C   UNL     1       0.368   2.688  20.022  0.00  0.00    +0.000 A 
ATOM     29  C   UNL     1       1.249   3.080  21.029  0.00  0.00    +0.000 A 
ATOM     30  C   UNL     1       2.580   3.374  20.715  0.00  0.00    +0.000 A 
ENDBRANCH  24  25
ENDBRANCH  23  24
ENDBRANCH   7  23
TORSDOF 9
ENDMDL
MODEL 3
REMARK VINA RESULT:      -7.7      1.908      2.927
REMARK  Name = 
REMARK  12 active torsions:
REMARK  status: ('A' for Active; 'I' for Inactive)
REMARK    1  A    between atoms: C_1  and  C_2
REMARK    2  A    between atoms: C_6  and  C_7
REMARK    3  A    between atoms: C_7  and  O_8
REMARK    4  A    between atoms: C_7  and  C_9
REMARK    5  A    between atoms: C_9  and  C_10
REMARK    6  A    between atoms: C_10  and  C_11
REMARK    7  A    between atoms: C_10  and  C_12
REMARK    8  A    between atoms: C_13  and  C_14
REMARK    9  A    between atoms: C_14  and  C_15
REMARK   10  A    between atoms: C_15  and  C_16
REMARK   11  A    between atoms: C_24  and  C_25
REMARK   12  A    between atoms: C_25  and  O_27
REMARK                            x       y       z     vdW  Elec       q    Type
REMARK                         _______ _______ _______ _____ _____    ______ ____
ROOT
ATOM      1  C   UNL     1       0.114  10.222  18.919  0.00  0.00    +0.000 C 
ATOM      2  C   UNL     1       1.181   9.161  18.998  0.00  0.00    +0.000 A 
ATOM      3  C   UNL     1       1.948   8.946  17.833  0.00  0.00    +0.000 A 
ATOM      4  C   UNL     1       2.898   7.914  17.818  0.00  0.00    +0.000 A 
ATOM      5  N   UNL     1       3.720   7.483  16.805  0.00  0.00    +0.000 N 
ATOM      6  C   UNL     1       4.511   6.439  17.226  0.00  0.00    +0.000 A 
ATOM      7  C   UNL     1       4.162   6.161  18.544  0.00  0.00    +0.000 A 
ATOM      8  C   UNL     1       3.147   7.105  18.919  0.00  0.00    +0.000 A 
ATOM      9  C   UNL     1       2.404   7.345  20.093  0.00  0.00    +0.000 A 
ATOM     10  C   UNL     1       1.418   8.359  20.133  0.00  0.00    +0.000 A 
ATOM     11  H   UNL     1       3.745   7.901  15.885  0.00  0.00    +0.000 HD
ENDROOT
BRANCH  10  12
ATOM     12  C   UNL     1       0.633   8.400  21.403  0.00  0.00    +0.000 C 
ATOM     13  O   UNL     1       1.025   9.002  22.391  0.00  0.00    +0.000 OA
BRANCH  12  14
ATOM     14  O   UNL     1      -0.570   7.793  21.376  0.00  0.00    +0.000 OA
ATOM     15  H   UNL     1      -1.305   8.338  21.703  0.00  0.00    +0.000 HD
ENDBRANCH  12  14
ENDBRANCH  10  12
BRANCH   6  16
ATOM     16  C   UNL     1       5.532   5.781  16.344  0.00  0.00    +0.000 C 
BRANCH  16  17
ATOM     17  O   UNL     1       5.347   6.329  15.043  0.00  0.00    +0.000 OA
ATOM     18  H   UNL     1       6.156   6.807  14.801  0.00  0.00    +0.000 HD
ENDBRANCH  16  17
BRANCH  16  19
ATOM     19  C   UNL     1       6.995   5.969  16.758  0.00  0.00    +0.000 C 
BRANCH  19  20
ATOM     20  C   UNL     1       7.233   6.891  17.968  0.00  0.00    +0.000 C 
ATOM     21  C   UNL     1       8.129   6.255  19.032  0.00  0.00    +0.000 C 
ATOM     22  C   UNL     1       7.850   8.207  17.487  0.00  0.00    +0.000 C 
ENDBRANCH  19  20
ENDBRANCH  16  19
ENDBRANCH   6  16
BRANCH   7  23
ATOM     23  C   UNL     1       4.767   5.092  19.415  0.00  0.00    +0.000 C 
BRANCH  23  24
ATOM     24  C   UNL     1       4.410   3.665  18.988  0.00  0.00    +0.000 C 
BRANCH  24  25
ATOM     25  C   UNL     1       2.974   3.332  19.324  0.00  0.00    +0.000 A 
ATOM     26  C   UNL     1       2.477   3.564  20.615  0.00  0.00    +0.000 A 
ATOM     27  C   UNL     1       1.159   3.234  20.935  0.00  0.00    +0.000 A 
ATOM     28  C   UNL     1       0.327   2.668  19.973  0.00  0.00    +0.000 A 
ATOM     29  C   UNL     1       0.809   2.426  18.688  0.00  0.00    +0.000 A 
ATOM     30  C   UNL     1       2.131   2.753  18.367  0.00  0.00    +0.000 A 
ENDBRANCH  24  25
ENDBRANCH  23  24
ENDBRANCH   7  23
TORSDOF 9
ENDMDL
MODEL 4
REMARK VINA RESULT:      -7.5      2.253      6.048
REMARK  Name = 
REMARK  12 active torsions:
REMARK  status: ('A' for Active; 'I' for Inactive)
REMARK    1  A    between atoms: C_1  and  C_2
REMARK    2  A    between atoms: C_6  and  C_7
REMARK    3  A    between atoms: C_7  and  O_8
REMARK    4  A    between atoms: C_7  and  C_9
REMARK    5  A    between atoms: C_9  and  C_10
REMARK    6  A    between atoms: C_10  and  C_11
REMARK    7  A    between atoms: C_10  and  C_12
REMARK    8  A    between atoms: C_13  and  C_14
REMARK    9  A    between atoms: C_14  and  C_15
REMARK   10  A    between atoms: C_15  and  C_16
REMARK   11  A    between atoms: C_24  and  C_25
REMARK   12  A    between atoms: C_25  and  O_27
REMARK                            x       y       z     vdW  Elec       q    Type
REMARK                         _______ _______ _______ _____ _____    ______ ____
ROOT
ATOM      1  C   UNL     1       7.749   4.598  11.728  0.00  0.00    +0.000 C 
ATOM      2  C   UNL     1       6.834   4.383  12.905  0.00  0.00    +0.000 A 
ATOM      3  C   UNL     1       7.283   4.869  14.152  0.00  0.00    +0.000 A 
ATOM      4  C   UNL     1       6.516   4.623  15.300  0.00  0.00    +0.000 A 
ATOM      5  N   UNL     1       6.760   4.946  16.613  0.00  0.00    +0.000 N 
ATOM      6  C   UNL     1       5.732   4.521  17.423  0.00  0.00    +0.000 A 
ATOM      7  C   UNL     1       4.810   3.868  16.611  0.00  0.00    +0.000 A 
ATOM      8  C   UNL     1       5.305   3.944  15.264  0.00  0.00    +0.000 A 
ATOM      9  C   UNL     1       4.843   3.489  14.013  0.00  0.00    +0.000 A 
ATOM     10  C   UNL     1       5.605   3.695  12.839  0.00  0.00    +0.000 A 
ATOM     11  H   UNL     1       7.579   5.450  16.925  0.00  0.00    +0.000 HD
ENDROOT
BRANCH  10  12
ATOM     12  C   UNL     1       5.042   3.043  11.620  0.00  0.00    +0.000 C 
ATOM     13  O   UNL     1       5.429   1.953  11.226  0.00  0.00    +0.000 OA
BRANCH  12  14
ATOM     14  O   UNL     1       4.030   3.694  11.013  0.00  0.00    +0.000 OA
ATOM     15  H   UNL     1       3.808   4.553  11.408  0.00  0.00    +0.000 HD
ENDBRANCH  12  14
ENDBRANCH  10  12
BRANCH   6  16
ATOM     16  C   UNL     1       5.705   4.761  18.904  0.00  0.00    +0.000 C 
BRANCH  16  17
ATOM     17  O   UNL     1       7.041   5.083  19.279  0.00  0.00    +0.000 OA
ATOM     18  H   UNL     1       7.523   5.339  18.477  0.00  0.00    +0.000 HD
ENDBRANCH  16  17
BRANCH  16  19
ATOM     19  C   UNL     1       4.772   5.876  19.385  0.00  0.00    +0.000 C 
BRANCH  19  20
ATOM     20  C   UNL     1       3.482   6.067  18.565  0.00  0.00    +0.000 C 
ATOM     21  C   UNL     1       2.240   6.231  19.442  0.00  0.00    +0.000 C 
ATOM     22  C   UNL     1       3.640   7.286  17.653  0.00  0.00    +0.000 C 
ENDBRANCH  19  20
ENDBRANCH  16  19
ENDBRANCH   6  16
BRANCH   7  23
ATOM     23  C   UNL     1       3.521   3.234  17.063  0.00  0.00    +0.000 C 
BRANCH  23  24
ATOM     24  C   UNL     1       3.697   2.179  18.160  0.00  0.00    +0.000 C 
BRANCH  24  25
ATOM     25  C   UNL     1       2.819   2.473  19.354  0.00  0.00    +0.000 A 
ATOM     26  C   UNL     1       3.362   2.477  20.648  0.00  0.00    +0.000 A 
ATOM     27  C   UNL     1       2.549   2.723  21.755  0.00  0.00    +0.000 A 
ATOM     28  C   UNL     1       1.188   2.966  21.583  0.00  0.00    +0.000 A 
ATOM     29  C   UNL     1       0.634   2.959  20.304  0.00  0.00    +0.000 A 
ATOM     30  C   UNL     1       1.448   2.709  19.194  0.00  0.00    +0.000 A 
ENDBRANCH  24  25
ENDBRANCH  23  24
ENDBRANCH   7  23
TORSDOF 9
ENDMDL
MODEL 5
REMARK VINA RESULT:      -7.5      2.464      6.910
REMARK  Name = 
REMARK  12 active torsions:
REMARK  status: ('A' for Active; 'I' for Inactive)
REMARK    1  A    between atoms: C_1  and  C_2
REMARK    2  A    between atoms: C_6  and  C_7
REMARK    3  A    between atoms: C_7  and  O_8
REMARK    4  A    between atoms: C_7  and  C_9
REMARK    5  A    between atoms: C_9  and  C_10
REMARK    6  A    between atoms: C_10  and  C_11
REMARK    7  A    between atoms: C_10  and  C_12
REMARK    8  A    between atoms: C_13  and  C_14
REMARK    9  A    between atoms: C_14  and  C_15
REMARK   10  A    between atoms: C_15  and  C_16
REMARK   11  A    between atoms: C_24  and  C_25
REMARK   12  A    between atoms: C_25  and  O_27
REMARK                            x       y       z     vdW  Elec       q    Type
REMARK                         _______ _______ _______ _____ _____    ______ ____
ROOT
ATOM      1  C   UNL     1       1.974   2.563  21.680  0.00  0.00    +0.000 C 
ATOM      2  C   UNL     1       2.363   3.692  20.760  0.00  0.00    +0.000 A 
ATOM      3  C   UNL     1       1.757   4.943  21.004  0.00  0.00    +0.000 A 
ATOM      4  C   UNL     1       2.013   6.010  20.130  0.00  0.00    +0.000 A 
ATOM      5  N   UNL     1       1.513   7.290  20.127  0.00  0.00    +0.000 N 
ATOM      6  C   UNL     1       2.041   8.021  19.087  0.00  0.00    +0.000 A 
ATOM      7  C   UNL     1       2.881   7.173  18.371  0.00  0.00    +0.000 A 
ATOM      8  C   UNL     1       2.869   5.902  19.042  0.00  0.00    +0.000 A 
ATOM      9  C   UNL     1       3.498   4.661  18.821  0.00  0.00    +0.000 A 
ATOM     10  C   UNL     1       3.241   3.556  19.666  0.00  0.00    +0.000 A 
ATOM     11  H   UNL     1       0.864   7.641  20.817  0.00  0.00    +0.000 HD
ENDROOT
BRANCH  10  12
ATOM     12  C   UNL     1       3.884   2.283  19.224  0.00  0.00    +0.000 C 
ATOM     13  O   UNL     1       3.440   1.616  18.301  0.00  0.00    +0.000 OA
BRANCH  12  14
ATOM     14  O   UNL     1       5.025   1.943  19.856  0.00  0.00    +0.000 OA
ATOM     15  H   UNL     1       5.808   1.905  19.283  0.00  0.00    +0.000 HD
ENDBRANCH  12  14
ENDBRANCH  10  12
BRANCH   6  16
ATOM     16  C   UNL     1       1.704   9.463  18.849  0.00  0.00    +0.000 C 
BRANCH  16  17
ATOM     17  O   UNL     1       1.845   9.679  17.448  0.00  0.00    +0.000 OA
ATOM     18  H   UNL     1       2.714  10.082  17.294  0.00  0.00    +0.000 HD
ENDBRANCH  16  17
BRANCH  16  19
ATOM     19  C   UNL     1       0.302   9.904  19.280  0.00  0.00    +0.000 C 
BRANCH  19  20
ATOM     20  C   UNL     1       0.246  10.882  20.468  0.00  0.00    +0.000 C 
ATOM     21  C   UNL     1       0.501  10.199  21.812  0.00  0.00    +0.000 C 
ATOM     22  C   UNL     1       1.269  12.000  20.250  0.00  0.00    +0.000 C 
ENDBRANCH  19  20
ENDBRANCH  16  19
ENDBRANCH   6  16
BRANCH   7  23
ATOM     23  C   UNL     1       3.676   7.538  17.146  0.00  0.00    +0.000 C 
BRANCH  23  24
ATOM     24  C   UNL     1       5.192   7.413  17.327  0.00  0.00    +0.000 C 
BRANCH  24  25
ATOM     25  C   UNL     1       5.738   6.213  16.587  0.00  0.00    +0.000 A 
ATOM     26  C   UNL     1       6.788   5.462  17.135  0.00  0.00    +0.000 A 
ATOM     27  C   UNL     1       7.312   4.369  16.444  0.00  0.00    +0.000 A 
ATOM     28  C   UNL     1       6.795   4.016  15.200  0.00  0.00    +0.000 A 
ATOM     29  C   UNL     1       5.755   4.757  14.640  0.00  0.00    +0.000 A 
ATOM     30  C   UNL     1       5.232   5.855  15.331  0.00  0.00    +0.000 A 
ENDBRANCH  24  25
ENDBRANCH  23  24
ENDBRANCH   7  23
TORSDOF 9
ENDMDL
MODEL 6
REMARK VINA RESULT:      -7.5      2.496      6.926
REMARK  Name = 
REMARK  12 active torsions:
REMARK  status: ('A' for Active; 'I' for Inactive)
REMARK    1  A    between atoms: C_1  and  C_2
REMARK    2  A    between atoms: C_6  and  C_7
REMARK    3  A    between atoms: C_7  and  O_8
REMARK    4  A    between atoms: C_7  and  C_9
REMARK    5  A    between atoms: C_9  and  C_10
REMARK    6  A    between atoms: C_10  and  C_11
REMARK    7  A    between atoms: C_10  and  C_12
REMARK    8  A    between atoms: C_13  and  C_14
REMARK    9  A    between atoms: C_14  and  C_15
REMARK   10  A    between atoms: C_15  and  C_16
REMARK   11  A    between atoms: C_24  and  C_25
REMARK   12  A    between atoms: C_25  and  O_27
REMARK                            x       y       z     vdW  Elec       q    Type
REMARK                         _______ _______ _______ _____ _____    ______ ____
ROOT
ATOM      1  C   UNL     1       1.971   2.549  21.690  0.00  0.00    +0.000 C 
ATOM      2  C   UNL     1       2.378   3.673  20.772  0.00  0.00    +0.000 A 
ATOM      3  C   UNL     1       1.781   4.930  21.008  0.00  0.00    +0.000 A 
ATOM      4  C   UNL     1       2.054   5.993  20.135  0.00  0.00    +0.000 A 
ATOM      5  N   UNL     1       1.565   7.278  20.125  0.00  0.00    +0.000 N 
ATOM      6  C   UNL     1       2.110   8.002  19.089  0.00  0.00    +0.000 A 
ATOM      7  C   UNL     1       2.950   7.146  18.384  0.00  0.00    +0.000 A 
ATOM      8  C   UNL     1       2.920   5.876  19.056  0.00  0.00    +0.000 A 
ATOM      9  C   UNL     1       3.541   4.630  18.843  0.00  0.00    +0.000 A 
ATOM     10  C   UNL     1       3.266   3.528  19.687  0.00  0.00    +0.000 A 
ATOM     11  H   UNL     1       0.912   7.635  20.807  0.00  0.00    +0.000 HD
ENDROOT
BRANCH  10  12
ATOM     12  C   UNL     1       3.902   2.249  19.254  0.00  0.00    +0.000 C 
ATOM     13  O   UNL     1       3.452   1.575  18.339  0.00  0.00    +0.000 OA
BRANCH  12  14
ATOM     14  O   UNL     1       5.046   1.912  19.884  0.00  0.00    +0.000 OA
ATOM     15  H   UNL     1       5.229   0.958  19.904  0.00  0.00    +0.000 HD
ENDBRANCH  12  14
ENDBRANCH  10  12
BRANCH   6  16
ATOM     16  C   UNL     1       1.788   9.447  18.845  0.00  0.00    +0.000 C 
BRANCH  16  17
ATOM     17  O   UNL     1       1.609   9.583  17.439  0.00  0.00    +0.000 OA
ATOM     18  H   UNL     1       2.442   9.338  17.006  0.00  0.00    +0.000 HD
ENDBRANCH  16  17
BRANCH  16  19
ATOM     19  C   UNL     1       0.544   9.985  19.558  0.00  0.00    +0.000 C 
BRANCH  19  20
ATOM     20  C   UNL     1       0.693  11.379  20.198  0.00  0.00    +0.000 C 
ATOM     21  C   UNL     1       0.218  12.507  19.281  0.00  0.00    +0.000 C 
ATOM     22  C   UNL     1      -0.086  11.415  21.515  0.00  0.00    +0.000 C 
ENDBRANCH  19  20
ENDBRANCH  16  19
ENDBRANCH   6  16
BRANCH   7  23
ATOM     23  C   UNL     1       3.760   7.503  17.166  0.00  0.00    +0.000 C 
BRANCH  23  24
ATOM     24  C   UNL     1       5.269   7.311  17.344  0.00  0.00    +0.000 C 
BRANCH  24  25
ATOM     25  C   UNL     1       5.779   6.149  16.522  0.00  0.00    +0.000 A 
ATOM     26  C   UNL     1       5.164   5.818  15.306  0.00  0.00    +0.000 A 
ATOM     27  C   UNL     1       5.617   4.730  14.557  0.00  0.00    +0.000 A 
ATOM     28  C   UNL     1       6.684   3.963  15.016  0.00  0.00    +0.000 A 
ATOM     29  C   UNL     1       7.301   4.276  16.226  0.00  0.00    +0.000 A 
ATOM     30  C   UNL     1       6.846   5.365  16.978  0.00  0.00    +0.000 A 
ENDBRANCH  24  25
ENDBRANCH  23  24
ENDBRANCH   7  23
TORSDOF 9
ENDMDL
MODEL 7
REMARK VINA RESULT:      -7.5      2.300      6.041
REMARK  Name = 
REMARK  12 active torsions:
REMARK  status: ('A' for Active; 'I' for Inactive)
REMARK    1  A    between atoms: C_1  and  C_2
REMARK    2  A    between atoms: C_6  and  C_7
REMARK    3  A    between atoms: C_7  and  O_8
REMARK    4  A    between atoms: C_7  and  C_9
REMARK    5  A    between atoms: C_9  and  C_10
REMARK    6  A    between atoms: C_10  and  C_11
REMARK    7  A    between atoms: C_10  and  C_12
REMARK    8  A    between atoms: C_13  and  C_14
REMARK    9  A    between atoms: C_14  and  C_15
REMARK   10  A    between atoms: C_15  and  C_16
REMARK   11  A    between atoms: C_24  and  C_25
REMARK   12  A    between atoms: C_25  and  O_27
REMARK                            x       y       z     vdW  Elec       q    Type
REMARK                         _______ _______ _______ _____ _____    ______ ____
ROOT
ATOM      1  C   UNL     1       7.597   5.009  11.683  0.00  0.00    +0.000 C 
ATOM      2  C   UNL     1       6.853   4.565  12.915  0.00  0.00    +0.000 A 
ATOM      3  C   UNL     1       7.178   5.223  14.121  0.00  0.00    +0.000 A 
ATOM      4  C   UNL     1       6.582   4.795  15.317  0.00  0.00    +0.000 A 
ATOM      5  N   UNL     1       6.768   5.235  16.605  0.00  0.00    +0.000 N 
ATOM      6  C   UNL     1       5.967   4.541  17.482  0.00  0.00    +0.000 A 
ATOM      7  C   UNL     1       5.268   3.593  16.741  0.00  0.00    +0.000 A 
ATOM      8  C   UNL     1       5.652   3.765  15.367  0.00  0.00    +0.000 A 
ATOM      9  C   UNL     1       5.304   3.133  14.157  0.00  0.00    +0.000 A 
ATOM     10  C   UNL     1       5.907   3.520  12.937  0.00  0.00    +0.000 A 
ATOM     11  H   UNL     1       7.396   5.986  16.857  0.00  0.00    +0.000 HD
ENDROOT
BRANCH  10  12
ATOM     12  C   UNL     1       5.528   2.670  11.769  0.00  0.00    +0.000 C 
ATOM     13  O   UNL     1       4.509   2.866  11.125  0.00  0.00    +0.000 OA
BRANCH  12  14
ATOM     14  O   UNL     1       6.412   1.714  11.420  0.00  0.00    +0.000 OA
ATOM     15  H   UNL     1       6.893   1.317  12.164  0.00  0.00    +0.000 HD
ENDBRANCH  12  14
ENDBRANCH  10  12
BRANCH   6  16
ATOM     16  C   UNL     1       5.932   4.824  18.955  0.00  0.00    +0.000 C 
BRANCH  16  17
ATOM     17  O   UNL     1       7.283   5.027  19.355  0.00  0.00    +0.000 OA
ATOM     18  H   UNL     1       7.437   4.512  20.162  0.00  0.00    +0.000 HD
ENDBRANCH  16  17
BRANCH  16  19
ATOM     19  C   UNL     1       5.100   6.036  19.385  0.00  0.00    +0.000 C 
BRANCH  19  20
ATOM     20  C   UNL     1       3.727   6.180  18.700  0.00  0.00    +0.000 C 
ATOM     21  C   UNL     1       2.615   6.569  19.675  0.00  0.00    +0.000 C 
ATOM     22  C   UNL     1       3.827   7.220  17.582  0.00  0.00    +0.000 C 
ENDBRANCH  19  20
ENDBRANCH  16  19
ENDBRANCH   6  16
BRANCH   7  23
ATOM     23  C   UNL     1       4.271   2.603  17.282  0.00  0.00    +0.000 C 
BRANCH  23  24
ATOM     24  C   UNL     1       2.849   3.156  17.409  0.00  0.00    +0.000 C 
BRANCH  24  25
ATOM     25  C   UNL     1       2.347   3.069  18.832  0.00  0.00    +0.000 A 
ATOM     26  C   UNL     1       1.001   3.331  19.126  0.00  0.00    +0.000 A 
ATOM     27  C   UNL     1       0.540   3.276  20.442  0.00  0.00    +0.000 A 
ATOM     28  C   UNL     1       1.417   2.961  21.477  0.00  0.00    +0.000 A 
ATOM     29  C   UNL     1       2.759   2.705  21.200  0.00  0.00    +0.000 A 
ATOM     30  C   UNL     1       3.223   2.763  19.881  0.00  0.00    +0.000 A 
ENDBRANCH  24  25
ENDBRANCH  23  24
ENDBRANCH   7  23
TORSDOF 9
ENDMDL
MODEL 8
REMARK VINA RESULT:      -7.4      2.680      5.566
REMARK  Name = 
REMARK  12 active torsions:
REMARK  status: ('A' for Active; 'I' for Inactive)
REMARK    1  A    between atoms: C_1  and  C_2
REMARK    2  A    between atoms: C_6  and  C_7
REMARK    3  A    between atoms: C_7  and  O_8
REMARK    4  A    between atoms: C_7  and  C_9
REMARK    5  A    between atoms: C_9  and  C_10
REMARK    6  A    between atoms: C_10  and  C_11
REMARK    7  A    between atoms: C_10  and  C_12
REMARK    8  A    between atoms: C_13  and  C_14
REMARK    9  A    between atoms: C_14  and  C_15
REMARK   10  A    between atoms: C_15  and  C_16
REMARK   11  A    between atoms: C_24  and  C_25
REMARK   12  A    between atoms: C_25  and  O_27
REMARK                            x       y       z     vdW  Elec       q    Type
REMARK                         _______ _______ _______ _____ _____    ______ ____
ROOT
ATOM      1  C   UNL     1      -0.327  11.484  22.007  0.00  0.00    +0.000 C 
ATOM      2  C   UNL     1       0.271  10.426  21.116  0.00  0.00    +0.000 A 
ATOM      3  C   UNL     1       0.548   9.178  21.715  0.00  0.00    +0.000 A 
ATOM      4  C   UNL     1       1.184   8.183  20.959  0.00  0.00    +0.000 A 
ATOM      5  N   UNL     1       1.596   6.923  21.324  0.00  0.00    +0.000 N 
ATOM      6  C   UNL     1       2.172   6.267  20.260  0.00  0.00    +0.000 A 
ATOM      7  C   UNL     1       2.166   7.146  19.181  0.00  0.00    +0.000 A 
ATOM      8  C   UNL     1       1.529   8.355  19.625  0.00  0.00    +0.000 A 
ATOM      9  C   UNL     1       1.220   9.590  19.021  0.00  0.00    +0.000 A 
ATOM     10  C   UNL     1       0.605  10.627  19.761  0.00  0.00    +0.000 A 
ATOM     11  H   UNL     1       1.467   6.535  22.248  0.00  0.00    +0.000 HD
ENDROOT
BRANCH  10  12
ATOM     12  C   UNL     1       0.462  11.912  19.015  0.00  0.00    +0.000 C 
ATOM     13  O   UNL     1      -0.554  12.198  18.400  0.00  0.00    +0.000 OA
BRANCH  12  14
ATOM     14  O   UNL     1       1.494  12.774  19.115  0.00  0.00    +0.000 OA
ATOM     15  H   UNL     1       1.702  13.051  20.022  0.00  0.00    +0.000 HD
ENDBRANCH  12  14
ENDBRANCH  10  12
BRANCH   6  16
ATOM     16  C   UNL     1       2.689   4.862  20.350  0.00  0.00    +0.000 C 
BRANCH  16  17
ATOM     17  O   UNL     1       2.259   4.359  21.610  0.00  0.00    +0.000 OA
ATOM     18  H   UNL     1       2.083   3.410  21.510  0.00  0.00    +0.000 HD
ENDBRANCH  16  17
BRANCH  16  19
ATOM     19  C   UNL     1       2.223   3.905  19.248  0.00  0.00    +0.000 C 
BRANCH  19  20
ATOM     20  C   UNL     1       3.140   2.696  18.982  0.00  0.00    +0.000 C 
ATOM     21  C   UNL     1       3.032   2.174  17.549  0.00  0.00    +0.000 C 
ATOM     22  C   UNL     1       4.589   3.086  19.287  0.00  0.00    +0.000 C 
ENDBRANCH  19  20
ENDBRANCH  16  19
ENDBRANCH   6  16
BRANCH   7  23
ATOM     23  C   UNL     1       2.697   6.861  17.802  0.00  0.00    +0.000 C 
BRANCH  23  24
ATOM     24  C   UNL     1       4.085   7.451  17.534  0.00  0.00    +0.000 C 
BRANCH  24  25
ATOM     25  C   UNL     1       5.098   6.368  17.239  0.00  0.00    +0.000 A 
ATOM     26  C   UNL     1       6.348   6.377  17.874  0.00  0.00    +0.000 A 
ATOM     27  C   UNL     1       7.295   5.393  17.585  0.00  0.00    +0.000 A 
ATOM     28  C   UNL     1       7.004   4.393  16.660  0.00  0.00    +0.000 A 
ATOM     29  C   UNL     1       5.767   4.376  16.017  0.00  0.00    +0.000 A 
ATOM     30  C   UNL     1       4.819   5.364  16.304  0.00  0.00    +0.000 A 
ENDBRANCH  24  25
ENDBRANCH  23  24
ENDBRANCH   7  23
TORSDOF 9
ENDMDL
MODEL 9
REMARK VINA RESULT:      -7.4      2.622      5.602
REMARK  Name = 
REMARK  12 active torsions:
REMARK  status: ('A' for Active; 'I' for Inactive)
REMARK    1  A    between atoms: C_1  and  C_2
REMARK    2  A    between atoms: C_6  and  C_7
REMARK    3  A    between atoms: C_7  and  O_8
REMARK    4  A    between atoms: C_7  and  C_9
REMARK    5  A    between atoms: C_9  and  C_10
REMARK    6  A    between atoms: C_10  and  C_11
REMARK    7  A    between atoms: C_10  and  C_12
REMARK    8  A    between atoms: C_13  and  C_14
REMARK    9  A    between atoms: C_14  and  C_15
REMARK   10  A    between atoms: C_15  and  C_16
REMARK   11  A    between atoms: C_24  and  C_25
REMARK   12  A    between atoms: C_25  and  O_27
REMARK                            x       y       z     vdW  Elec       q    Type
REMARK                         _______ _______ _______ _____ _____    ______ ____
ROOT
ATOM      1  C   UNL     1       0.032  11.954  21.452  0.00  0.00    +0.000 C 
ATOM      2  C   UNL     1       0.573  10.777  20.681  0.00  0.00    +0.000 A 
ATOM      3  C   UNL     1       0.652   9.550  21.373  0.00  0.00    +0.000 A 
ATOM      4  C   UNL     1       1.227   8.440  20.736  0.00  0.00    +0.000 A 
ATOM      5  N   UNL     1       1.458   7.170  21.209  0.00  0.00    +0.000 N 
ATOM      6  C   UNL     1       2.037   6.384  20.240  0.00  0.00    +0.000 A 
ATOM      7  C   UNL     1       2.222   7.182  19.116  0.00  0.00    +0.000 A 
ATOM      8  C   UNL     1       1.697   8.482  19.430  0.00  0.00    +0.000 A 
ATOM      9  C   UNL     1       1.585   9.700  18.730  0.00  0.00    +0.000 A 
ATOM     10  C   UNL     1       1.037  10.847  19.352  0.00  0.00    +0.000 A 
ATOM     11  H   UNL     1       1.208   6.863  22.139  0.00  0.00    +0.000 HD
ENDROOT
BRANCH  10  12
ATOM     12  C   UNL     1       1.107  12.086  18.522  0.00  0.00    +0.000 C 
ATOM     13  O   UNL     1       2.157  12.679  18.324  0.00  0.00    +0.000 OA
BRANCH  12  14
ATOM     14  O   UNL     1      -0.046  12.478  17.943  0.00  0.00    +0.000 OA
ATOM     15  H   UNL     1      -0.781  12.617  18.562  0.00  0.00    +0.000 HD
ENDBRANCH  12  14
ENDBRANCH  10  12
BRANCH   6  16
ATOM     16  C   UNL     1       2.377   4.939  20.457  0.00  0.00    +0.000 C 
BRANCH  16  17
ATOM     17  O   UNL     1       1.246   4.193  20.018  0.00  0.00    +0.000 OA
ATOM     18  H   UNL     1       1.170   4.303  19.057  0.00  0.00    +0.000 HD
ENDBRANCH  16  17
BRANCH  16  19
ATOM     19  C   UNL     1       3.622   4.426  19.727  0.00  0.00    +0.000 C 
BRANCH  19  20
ATOM     20  C   UNL     1       3.528   2.992  19.173  0.00  0.00    +0.000 C 
ATOM     21  C   UNL     1       3.893   2.903  17.691  0.00  0.00    +0.000 C 
ATOM     22  C   UNL     1       4.441   2.074  19.991  0.00  0.00    +0.000 C 
ENDBRANCH  19  20
ENDBRANCH  16  19
ENDBRANCH   6  16
BRANCH   7  23
ATOM     23  C   UNL     1       2.827   6.746  17.808  0.00  0.00    +0.000 C 
BRANCH  23  24
ATOM     24  C   UNL     1       4.163   7.422  17.484  0.00  0.00    +0.000 C 
BRANCH  24  25
ATOM     25  C   UNL     1       5.204   6.411  17.060  0.00  0.00    +0.000 A 
ATOM     26  C   UNL     1       5.134   5.810  15.795  0.00  0.00    +0.000 A 
ATOM     27  C   UNL     1       6.080   4.858  15.411  0.00  0.00    +0.000 A 
ATOM     28  C   UNL     1       7.101   4.496  16.284  0.00  0.00    +0.000 A 
ATOM     29  C   UNL     1       7.180   5.080  17.547  0.00  0.00    +0.000 A 
ATOM     30  C   UNL     1       6.231   6.032  17.935  0.00  0.00    +0.000 A 
ENDBRANCH  24  25
ENDBRANCH  23  24
ENDBRANCH   7  23
TORSDOF 9
ENDMDL
