MODEL 1
REMARK VINA RESULT:      -6.8      0.000      0.000
REMARK  Name = 
REMARK  5 active torsions:
REMARK  status: ('A' for Active; 'I' for Inactive)
REMARK    1  A    between atoms: C_1  and  C_2
REMARK    2  A    between atoms: C_3  and  C_4
REMARK    3  A    between atoms: C_4  and  O_5
REMARK    4  A    between atoms: N_12  and  C_13
REMARK    5  A    between atoms: C_13  and  C_14
REMARK                            x       y       z     vdW  Elec       q    Type
REMARK                         _______ _______ _______ _____ _____    ______ ____
ROOT
ATOM      1  C   UNL     1       5.007   7.174  17.041  0.00  0.00    +0.000 C 
ATOM      2  C   UNL     1       4.152   6.048  17.520  0.00  0.00    +0.000 A 
ATOM      3  C   UNL     1       2.993   6.093  18.286  0.00  0.00    +0.000 A 
ATOM      4  C   UNL     1       2.546   4.749  18.456  0.00  0.00    +0.000 A 
ATOM      5  C   UNL     1       1.442   4.185  19.133  0.00  0.00    +0.000 A 
ATOM      6  C   UNL     1       1.217   2.810  19.071  0.00  0.00    +0.000 A 
ATOM      7  C   UNL     1       2.071   1.998  18.335  0.00  0.00    +0.000 A 
ATOM      8  C   UNL     1       3.182   2.529  17.664  0.00  0.00    +0.000 A 
ATOM      9  C   UNL     1       3.417   3.914  17.747  0.00  0.00    +0.000 A 
ATOM     10  N   UNL     1       4.410   4.723  17.211  0.00  0.00    +0.000 N 
ENDROOT
BRANCH   3  11
ATOM     11  C   UNL     1       2.289   7.296  18.821  0.00  0.00    +0.000 C 
BRANCH  11  12
ATOM     12  O   UNL     1       2.358   7.352  20.240  0.00  0.00    +0.000 OA
ATOM     13  H   UNL     1       3.270   7.105  20.474  0.00  0.00    +0.000 HD
ENDBRANCH  11  12
ENDBRANCH   3  11
BRANCH  10  14
ATOM     14  C   UNL     1       5.475   4.268  16.314  0.00  0.00    +0.000 C 
BRANCH  14  15
ATOM     15  C   UNL     1       6.904   4.400  16.815  0.00  0.00    +0.000 C 
ATOM     16  N   UNL     1       7.176   4.241  18.134  0.00  0.00    +0.000 N 
ATOM     17  O   UNL     1       7.839   4.613  16.034  0.00  0.00    +0.000 OA
ATOM     18  H   UNL     1       6.454   4.236  18.849  0.00  0.00    +0.000 HD
ATOM     19  H   UNL     1       8.134   4.382  18.431  0.00  0.00    +0.000 HD
ENDBRANCH  14  15
ENDBRANCH  10  14
TORSDOF 4
ENDMDL
MODEL 2
REMARK VINA RESULT:      -6.6      1.263      1.389
REMARK  Name = 
REMARK  5 active torsions:
REMARK  status: ('A' for Active; 'I' for Inactive)
REMARK    1  A    between atoms: C_1  and  C_2
REMARK    2  A    between atoms: C_3  and  C_4
REMARK    3  A    between atoms: C_4  and  O_5
REMARK    4  A    between atoms: N_12  and  C_13
REMARK    5  A    between atoms: C_13  and  C_14
REMARK                            x       y       z     vdW  Elec       q    Type
REMARK                         _______ _______ _______ _____ _____    ______ ____
ROOT
ATOM      1  C   UNL     1       5.991   7.392  17.213  0.00  0.00    +0.000 C 
ATOM      2  C   UNL     1       4.978   6.318  17.435  0.00  0.00    +0.000 A 
ATOM      3  C   UNL     1       3.629   6.437  17.746  0.00  0.00    +0.000 A 
ATOM      4  C   UNL     1       3.097   5.118  17.835  0.00  0.00    +0.000 A 
ATOM      5  C   UNL     1       1.805   4.622  18.120  0.00  0.00    +0.000 A 
ATOM      6  C   UNL     1       1.560   3.251  18.072  0.00  0.00    +0.000 A 
ATOM      7  C   UNL     1       2.582   2.373  17.733  0.00  0.00    +0.000 A 
ATOM      8  C   UNL     1       3.877   2.835  17.458  0.00  0.00    +0.000 A 
ATOM      9  C   UNL     1       4.125   4.219  17.529  0.00  0.00    +0.000 A 
ATOM     10  N   UNL     1       5.274   4.970  17.321  0.00  0.00    +0.000 N 
ENDROOT
BRANCH   3  11
ATOM     11  C   UNL     1       2.832   7.688  17.924  0.00  0.00    +0.000 C 
BRANCH  11  12
ATOM     12  O   UNL     1       2.330   7.801  19.250  0.00  0.00    +0.000 OA
ATOM     13  H   UNL     1       1.368   7.670  19.184  0.00  0.00    +0.000 HD
ENDBRANCH  11  12
ENDBRANCH   3  11
BRANCH  10  14
ATOM     14  C   UNL     1       6.564   4.434  16.881  0.00  0.00    +0.000 C 
BRANCH  14  15
ATOM     15  C   UNL     1       6.855   4.468  15.390  0.00  0.00    +0.000 C 
ATOM     16  N   UNL     1       6.225   3.602  14.557  0.00  0.00    +0.000 N 
ATOM     17  O   UNL     1       7.633   5.300  14.908  0.00  0.00    +0.000 OA
ATOM     18  H   UNL     1       5.714   2.790  14.891  0.00  0.00    +0.000 HD
ATOM     19  H   UNL     1       6.483   3.629  13.578  0.00  0.00    +0.000 HD
ENDBRANCH  14  15
ENDBRANCH  10  14
TORSDOF 4
ENDMDL
MODEL 3
REMARK VINA RESULT:      -6.5      1.784      3.509
REMARK  Name = 
REMARK  5 active torsions:
REMARK  status: ('A' for Active; 'I' for Inactive)
REMARK    1  A    between atoms: C_1  and  C_2
REMARK    2  A    between atoms: C_3  and  C_4
REMARK    3  A    between atoms: C_4  and  O_5
REMARK    4  A    between atoms: N_12  and  C_13
REMARK    5  A    between atoms: C_13  and  C_14
REMARK                            x       y       z     vdW  Elec       q    Type
REMARK                         _______ _______ _______ _____ _____    ______ ____
ROOT
ATOM      1  C   UNL     1       3.457   1.595  18.416  0.00  0.00    +0.000 C 
ATOM      2  C   UNL     1       3.048   2.984  18.780  0.00  0.00    +0.000 A 
ATOM      3  C   UNL     1       2.317   3.422  19.877  0.00  0.00    +0.000 A 
ATOM      4  C   UNL     1       2.212   4.841  19.777  0.00  0.00    +0.000 A 
ATOM      5  C   UNL     1       1.591   5.816  20.590  0.00  0.00    +0.000 A 
ATOM      6  C   UNL     1       1.711   7.167  20.269  0.00  0.00    +0.000 A 
ATOM      7  C   UNL     1       2.450   7.555  19.158  0.00  0.00    +0.000 A 
ATOM      8  C   UNL     1       3.066   6.609  18.327  0.00  0.00    +0.000 A 
ATOM      9  C   UNL     1       2.924   5.245  18.643  0.00  0.00    +0.000 A 
ATOM     10  N   UNL     1       3.399   4.093  18.029  0.00  0.00    +0.000 N 
ENDROOT
BRANCH   3  11
ATOM     11  C   UNL     1       1.759   2.606  20.998  0.00  0.00    +0.000 C 
BRANCH  11  12
ATOM     12  O   UNL     1       2.542   2.737  22.177  0.00  0.00    +0.000 OA
ATOM     13  H   UNL     1       2.169   3.492  22.665  0.00  0.00    +0.000 HD
ENDBRANCH  11  12
ENDBRANCH   3  11
BRANCH  10  14
ATOM     14  C   UNL     1       4.278   4.063  16.859  0.00  0.00    +0.000 C 
BRANCH  14  15
ATOM     15  C   UNL     1       5.739   4.420  17.082  0.00  0.00    +0.000 C 
ATOM     16  N   UNL     1       6.353   4.064  18.238  0.00  0.00    +0.000 N 
ATOM     17  O   UNL     1       6.397   5.000  16.210  0.00  0.00    +0.000 OA
ATOM     18  H   UNL     1       5.844   3.746  19.057  0.00  0.00    +0.000 HD
ATOM     19  H   UNL     1       7.313   4.362  18.365  0.00  0.00    +0.000 HD
ENDBRANCH  14  15
ENDBRANCH  10  14
TORSDOF 4
ENDMDL
MODEL 4
REMARK VINA RESULT:      -6.5      2.143      3.849
REMARK  Name = 
REMARK  5 active torsions:
REMARK  status: ('A' for Active; 'I' for Inactive)
REMARK    1  A    between atoms: C_1  and  C_2
REMARK    2  A    between atoms: C_3  and  C_4
REMARK    3  A    between atoms: C_4  and  O_5
REMARK    4  A    between atoms: N_12  and  C_13
REMARK    5  A    between atoms: C_13  and  C_14
REMARK                            x       y       z     vdW  Elec       q    Type
REMARK                         _______ _______ _______ _____ _____    ______ ____
ROOT
ATOM      1  C   UNL     1       1.129   4.384  20.150  0.00  0.00    +0.000 C 
ATOM      2  C   UNL     1       2.111   4.837  19.122  0.00  0.00    +0.000 A 
ATOM      3  C   UNL     1       2.561   6.122  18.846  0.00  0.00    +0.000 A 
ATOM      4  C   UNL     1       3.509   6.021  17.786  0.00  0.00    +0.000 A 
ATOM      5  C   UNL     1       4.282   6.982  17.095  0.00  0.00    +0.000 A 
ATOM      6  C   UNL     1       5.194   6.573  16.124  0.00  0.00    +0.000 A 
ATOM      7  C   UNL     1       5.352   5.221  15.843  0.00  0.00    +0.000 A 
ATOM      8  C   UNL     1       4.589   4.247  16.503  0.00  0.00    +0.000 A 
ATOM      9  C   UNL     1       3.654   4.666  17.467  0.00  0.00    +0.000 A 
ATOM     10  N   UNL     1       2.767   3.962  18.271  0.00  0.00    +0.000 N 
ENDROOT
BRANCH   3  11
ATOM     11  C   UNL     1       2.184   7.396  19.529  0.00  0.00    +0.000 C 
BRANCH  11  12
ATOM     12  O   UNL     1       2.125   7.233  20.940  0.00  0.00    +0.000 OA
ATOM     13  H   UNL     1       3.018   7.433  21.270  0.00  0.00    +0.000 HD
ENDBRANCH  11  12
ENDBRANCH   3  11
BRANCH  10  14
ATOM     14  C   UNL     1       2.660   2.503  18.332  0.00  0.00    +0.000 C 
BRANCH  14  15
ATOM     15  C   UNL     1       3.762   1.759  19.068  0.00  0.00    +0.000 C 
ATOM     16  N   UNL     1       4.289   0.628  18.534  0.00  0.00    +0.000 N 
ATOM     17  O   UNL     1       4.222   2.186  20.134  0.00  0.00    +0.000 OA
ATOM     18  H   UNL     1       3.854   0.128  17.764  0.00  0.00    +0.000 HD
ATOM     19  H   UNL     1       4.988   0.139  19.080  0.00  0.00    +0.000 HD
ENDBRANCH  14  15
ENDBRANCH  10  14
TORSDOF 4
ENDMDL
MODEL 5
REMARK VINA RESULT:      -6.5      2.415      3.963
REMARK  Name = 
REMARK  5 active torsions:
REMARK  status: ('A' for Active; 'I' for Inactive)
REMARK    1  A    between atoms: C_1  and  C_2
REMARK    2  A    between atoms: C_3  and  C_4
REMARK    3  A    between atoms: C_4  and  O_5
REMARK    4  A    between atoms: N_12  and  C_13
REMARK    5  A    between atoms: C_13  and  C_14
REMARK                            x       y       z     vdW  Elec       q    Type
REMARK                         _______ _______ _______ _____ _____    ______ ____
ROOT
ATOM      1  C   UNL     1       1.400   5.026  20.362  0.00  0.00    +0.000 C 
ATOM      2  C   UNL     1       2.369   5.165  19.235  0.00  0.00    +0.000 A 
ATOM      3  C   UNL     1       2.809   6.318  18.596  0.00  0.00    +0.000 A 
ATOM      4  C   UNL     1       3.746   5.918  17.599  0.00  0.00    +0.000 A 
ATOM      5  C   UNL     1       4.507   6.640  16.652  0.00  0.00    +0.000 A 
ATOM      6  C   UNL     1       5.411   5.971  15.829  0.00  0.00    +0.000 A 
ATOM      7  C   UNL     1       5.573   4.595  15.947  0.00  0.00    +0.000 A 
ATOM      8  C   UNL     1       4.822   3.851  16.869  0.00  0.00    +0.000 A 
ATOM      9  C   UNL     1       3.895   4.528  17.682  0.00  0.00    +0.000 A 
ATOM     10  N   UNL     1       3.020   4.084  18.665  0.00  0.00    +0.000 N 
ENDROOT
BRANCH   3  11
ATOM     11  C   UNL     1       2.432   7.734  18.888  0.00  0.00    +0.000 C 
BRANCH  11  12
ATOM     12  O   UNL     1       1.731   8.320  17.799  0.00  0.00    +0.000 OA
ATOM     13  H   UNL     1       1.759   7.667  17.078  0.00  0.00    +0.000 HD
ENDBRANCH  11  12
ENDBRANCH   3  11
BRANCH  10  14
ATOM     14  C   UNL     1       2.922   2.704  19.144  0.00  0.00    +0.000 C 
BRANCH  14  15
ATOM     15  C   UNL     1       3.835   2.303  20.291  0.00  0.00    +0.000 C 
ATOM     16  N   UNL     1       5.100   1.886  20.035  0.00  0.00    +0.000 N 
ATOM     17  O   UNL     1       3.460   2.386  21.467  0.00  0.00    +0.000 OA
ATOM     18  H   UNL     1       5.418   1.631  19.105  0.00  0.00    +0.000 HD
ATOM     19  H   UNL     1       5.658   1.585  20.825  0.00  0.00    +0.000 HD
ENDBRANCH  14  15
ENDBRANCH  10  14
TORSDOF 4
ENDMDL
MODEL 6
REMARK VINA RESULT:      -6.5      2.510      5.312
REMARK  Name = 
REMARK  5 active torsions:
REMARK  status: ('A' for Active; 'I' for Inactive)
REMARK    1  A    between atoms: C_1  and  C_2
REMARK    2  A    between atoms: C_3  and  C_4
REMARK    3  A    between atoms: C_4  and  O_5
REMARK    4  A    between atoms: N_12  and  C_13
REMARK    5  A    between atoms: C_13  and  C_14
REMARK                            x       y       z     vdW  Elec       q    Type
REMARK                         _______ _______ _______ _____ _____    ______ ____
ROOT
ATOM      1  C   UNL     1       4.326   2.531  19.806  0.00  0.00    +0.000 C 
ATOM      2  C   UNL     1       3.953   3.917  19.396  0.00  0.00    +0.000 A 
ATOM      3  C   UNL     1       4.298   4.612  18.243  0.00  0.00    +0.000 A 
ATOM      4  C   UNL     1       3.675   5.893  18.318  0.00  0.00    +0.000 A 
ATOM      5  C   UNL     1       3.669   7.009  17.451  0.00  0.00    +0.000 A 
ATOM      6  C   UNL     1       2.898   8.127  17.763  0.00  0.00    +0.000 A 
ATOM      7  C   UNL     1       2.127   8.141  18.919  0.00  0.00    +0.000 A 
ATOM      8  C   UNL     1       2.124   7.054  19.804  0.00  0.00    +0.000 A 
ATOM      9  C   UNL     1       2.921   5.935  19.496  0.00  0.00    +0.000 A 
ATOM     10  N   UNL     1       3.131   4.732  20.157  0.00  0.00    +0.000 N 
ENDROOT
BRANCH   3  11
ATOM     11  C   UNL     1       5.129   4.138  17.095  0.00  0.00    +0.000 C 
BRANCH  11  12
ATOM     12  O   UNL     1       6.507   4.076  17.441  0.00  0.00    +0.000 OA
ATOM     13  H   UNL     1       6.541   3.697  18.337  0.00  0.00    +0.000 HD
ENDBRANCH  11  12
ENDBRANCH   3  11
BRANCH  10  14
ATOM     14  C   UNL     1       2.455   4.317  21.387  0.00  0.00    +0.000 C 
BRANCH  14  15
ATOM     15  C   UNL     1       1.399   3.231  21.264  0.00  0.00    +0.000 C 
ATOM     16  N   UNL     1       0.505   3.268  20.244  0.00  0.00    +0.000 N 
ATOM     17  O   UNL     1       1.359   2.283  22.058  0.00  0.00    +0.000 OA
ATOM     18  H   UNL     1       0.366   4.091  19.664  0.00  0.00    +0.000 HD
ATOM     19  H   UNL     1      -0.210   2.551  20.226  0.00  0.00    +0.000 HD
ENDBRANCH  14  15
ENDBRANCH  10  14
TORSDOF 4
ENDMDL
MODEL 7
REMARK VINA RESULT:      -6.5      1.715      1.740
REMARK  Name = 
REMARK  5 active torsions:
REMARK  status: ('A' for Active; 'I' for Inactive)
REMARK    1  A    between atoms: C_1  and  C_2
REMARK    2  A    between atoms: C_3  and  C_4
REMARK    3  A    between atoms: C_4  and  O_5
REMARK    4  A    between atoms: N_12  and  C_13
REMARK    5  A    between atoms: C_13  and  C_14
REMARK                            x       y       z     vdW  Elec       q    Type
REMARK                         _______ _______ _______ _____ _____    ______ ____
ROOT
ATOM      1  C   UNL     1       4.388   7.091  17.226  0.00  0.00    +0.000 C 
ATOM      2  C   UNL     1       3.930   6.126  18.268  0.00  0.00    +0.000 A 
ATOM      3  C   UNL     1       2.946   6.284  19.236  0.00  0.00    +0.000 A 
ATOM      4  C   UNL     1       2.877   5.065  19.974  0.00  0.00    +0.000 A 
ATOM      5  C   UNL     1       2.079   4.646  21.061  0.00  0.00    +0.000 A 
ATOM      6  C   UNL     1       2.190   3.343  21.544  0.00  0.00    +0.000 A 
ATOM      7  C   UNL     1       3.077   2.454  20.949  0.00  0.00    +0.000 A 
ATOM      8  C   UNL     1       3.891   2.846  19.877  0.00  0.00    +0.000 A 
ATOM      9  C   UNL     1       3.791   4.169  19.407  0.00  0.00    +0.000 A 
ATOM     10  N   UNL     1       4.448   4.847  18.389  0.00  0.00    +0.000 N 
ENDROOT
BRANCH   3  11
ATOM     11  C   UNL     1       2.071   7.471  19.476  0.00  0.00    +0.000 C 
BRANCH  11  12
ATOM     12  O   UNL     1       2.062   7.843  20.848  0.00  0.00    +0.000 OA
ATOM     13  H   UNL     1       2.583   8.663  20.907  0.00  0.00    +0.000 HD
ENDBRANCH  11  12
ENDBRANCH   3  11
BRANCH  10  14
ATOM     14  C   UNL     1       5.420   4.251  17.470  0.00  0.00    +0.000 C 
BRANCH  14  15
ATOM     15  C   UNL     1       6.889   4.524  17.746  0.00  0.00    +0.000 C 
ATOM     16  N   UNL     1       7.784   4.507  16.727  0.00  0.00    +0.000 N 
ATOM     17  O   UNL     1       7.287   4.801  18.884  0.00  0.00    +0.000 OA
ATOM     18  H   UNL     1       7.568   4.124  15.811  0.00  0.00    +0.000 HD
ATOM     19  H   UNL     1       8.759   4.648  16.962  0.00  0.00    +0.000 HD
ENDBRANCH  14  15
ENDBRANCH  10  14
TORSDOF 4
ENDMDL
MODEL 8
REMARK VINA RESULT:      -6.5      1.052      1.145
REMARK  Name = 
REMARK  5 active torsions:
REMARK  status: ('A' for Active; 'I' for Inactive)
REMARK    1  A    between atoms: C_1  and  C_2
REMARK    2  A    between atoms: C_3  and  C_4
REMARK    3  A    between atoms: C_4  and  O_5
REMARK    4  A    between atoms: N_12  and  C_13
REMARK    5  A    between atoms: C_13  and  C_14
REMARK                            x       y       z     vdW  Elec       q    Type
REMARK                         _______ _______ _______ _____ _____    ______ ____
ROOT
ATOM      1  C   UNL     1       4.145   7.304  17.317  0.00  0.00    +0.000 C 
ATOM      2  C   UNL     1       3.462   6.235  18.104  0.00  0.00    +0.000 A 
ATOM      3  C   UNL     1       2.523   6.361  19.121  0.00  0.00    +0.000 A 
ATOM      4  C   UNL     1       2.166   5.044  19.533  0.00  0.00    +0.000 A 
ATOM      5  C   UNL     1       1.274   4.554  20.514  0.00  0.00    +0.000 A 
ATOM      6  C   UNL     1       1.078   3.181  20.652  0.00  0.00    +0.000 A 
ATOM      7  C   UNL     1       1.749   2.295  19.818  0.00  0.00    +0.000 A 
ATOM      8  C   UNL     1       2.649   2.752  18.845  0.00  0.00    +0.000 A 
ATOM      9  C   UNL     1       2.861   4.138  18.724  0.00  0.00    +0.000 A 
ATOM     10  N   UNL     1       3.672   4.885  17.880  0.00  0.00    +0.000 N 
ENDROOT
BRANCH   3  11
ATOM     11  C   UNL     1       1.937   7.615  19.684  0.00  0.00    +0.000 C 
BRANCH  11  12
ATOM     12  O   UNL     1       2.075   7.664  21.098  0.00  0.00    +0.000 OA
ATOM     13  H   UNL     1       1.224   7.360  21.461  0.00  0.00    +0.000 HD
ENDBRANCH  11  12
ENDBRANCH   3  11
BRANCH  10  14
ATOM     14  C   UNL     1       4.499   4.337  16.803  0.00  0.00    +0.000 C 
BRANCH  14  15
ATOM     15  C   UNL     1       5.997   4.258  17.053  0.00  0.00    +0.000 C 
ATOM     16  N   UNL     1       6.467   4.145  18.320  0.00  0.00    +0.000 N 
ATOM     17  O   UNL     1       6.803   4.257  16.115  0.00  0.00    +0.000 OA
ATOM     18  H   UNL     1       5.888   4.312  19.139  0.00  0.00    +0.000 HD
ATOM     19  H   UNL     1       7.472   4.142  18.444  0.00  0.00    +0.000 HD
ENDBRANCH  14  15
ENDBRANCH  10  14
TORSDOF 4
ENDMDL
MODEL 9
REMARK VINA RESULT:      -6.4      1.913      3.481
REMARK  Name = 
REMARK  5 active torsions:
REMARK  status: ('A' for Active; 'I' for Inactive)
REMARK    1  A    between atoms: C_1  and  C_2
REMARK    2  A    between atoms: C_3  and  C_4
REMARK    3  A    between atoms: C_4  and  O_5
REMARK    4  A    between atoms: N_12  and  C_13
REMARK    5  A    between atoms: C_13  and  C_14
REMARK                            x       y       z     vdW  Elec       q    Type
REMARK                         _______ _______ _______ _____ _____    ______ ____
ROOT
ATOM      1  C   UNL     1       4.082   2.275  19.417  0.00  0.00    +0.000 C 
ATOM      2  C   UNL     1       3.630   3.685  19.220  0.00  0.00    +0.000 A 
ATOM      3  C   UNL     1       2.754   4.439  19.990  0.00  0.00    +0.000 A 
ATOM      4  C   UNL     1       2.669   5.731  19.393  0.00  0.00    +0.000 A 
ATOM      5  C   UNL     1       1.943   6.896  19.727  0.00  0.00    +0.000 A 
ATOM      6  C   UNL     1       2.112   8.059  18.977  0.00  0.00    +0.000 A 
ATOM      7  C   UNL     1       3.002   8.077  17.910  0.00  0.00    +0.000 A 
ATOM      8  C   UNL     1       3.726   6.931  17.548  0.00  0.00    +0.000 A 
ATOM      9  C   UNL     1       3.535   5.753  18.294  0.00  0.00    +0.000 A 
ATOM     10  N   UNL     1       4.088   4.484  18.185  0.00  0.00    +0.000 N 
ENDROOT
BRANCH   3  11
ATOM     11  C   UNL     1       2.040   4.033  21.239  0.00  0.00    +0.000 C 
BRANCH  11  12
ATOM     12  O   UNL     1       0.859   3.297  20.947  0.00  0.00    +0.000 OA
ATOM     13  H   UNL     1       1.141   2.373  20.828  0.00  0.00    +0.000 HD
ENDBRANCH  11  12
ENDBRANCH   3  11
BRANCH  10  14
ATOM     14  C   UNL     1       5.123   4.094  17.227  0.00  0.00    +0.000 C 
BRANCH  14  15
ATOM     15  C   UNL     1       6.558   4.456  17.574  0.00  0.00    +0.000 C 
ATOM     16  N   UNL     1       7.466   4.651  16.584  0.00  0.00    +0.000 N 
ATOM     17  O   UNL     1       6.913   4.615  18.748  0.00  0.00    +0.000 OA
ATOM     18  H   UNL     1       7.298   4.374  15.621  0.00  0.00    +0.000 HD
ATOM     19  H   UNL     1       8.420   4.844  16.861  0.00  0.00    +0.000 HD
ENDBRANCH  14  15
ENDBRANCH  10  14
TORSDOF 4
ENDMDL
