MODEL 1
REMARK VINA RESULT:      -9.1      0.000      0.000
REMARK  Name = 
REMARK  9 active torsions:
REMARK  status: ('A' for Active; 'I' for Inactive)
REMARK    1  A    between atoms: C_1  and  C_2
REMARK    2  A    between atoms: C_7  and  C_8
REMARK    3  A    between atoms: N_16  and  C_17
REMARK    4  A    between atoms: C_17  and  C_18
REMARK    5  A    between atoms: C_18  and  C_19
REMARK    6  A    between atoms: N_21  and  C_22
REMARK    7  A    between atoms: C_27  and  C_28
REMARK    8  A    between atoms: C_29  and  C_30
REMARK    9  A    between atoms: C_29  and  C_31
REMARK                            x       y       z     vdW  Elec       q    Type
REMARK                         _______ _______ _______ _____ _____    ______ ____
ROOT
ATOM      1  C   UNL     1      -1.173  11.679  20.082  0.00  0.00    +0.000 A 
ATOM      2  N   UNL     1      -2.388  12.036  19.721  0.00  0.00    +0.000 NA
ATOM      3  C   UNL     1      -2.645  11.403  18.534  0.00  0.00    +0.000 A 
ATOM      4  C   UNL     1      -3.772  11.494  17.706  0.00  0.00    +0.000 A 
ATOM      5  C   UNL     1      -3.815  10.729  16.535  0.00  0.00    +0.000 A 
ATOM      6  C   UNL     1      -2.756   9.887  16.203  0.00  0.00    +0.000 A 
ATOM      7  C   UNL     1      -1.614   9.797  17.013  0.00  0.00    +0.000 A 
ATOM      8  C   UNL     1      -1.576  10.586  18.173  0.00  0.00    +0.000 A 
ATOM      9  N   UNL     1      -0.622  10.814  19.145  0.00  0.00    +0.000 N 
ENDROOT
BRANCH   1  16
ATOM     10  C   UNL     1      -3.892  15.089  24.134  0.00  0.00    +0.000 C 
ATOM     11  C   UNL     1      -3.443  13.649  24.167  0.00  0.00    +0.000 C 
ATOM     12  O   UNL     1      -3.944  12.879  24.989  0.00  0.00    +0.000 OA
ATOM     13  N   UNL     1      -2.473  13.242  23.247  0.00  0.00    +0.000 N 
ATOM     14  C   UNL     1      -2.285  11.799  23.109  0.00  0.00    +0.000 C 
ATOM     15  C   UNL     1      -0.905  11.414  22.582  0.00  0.00    +0.000 C 
ATOM     16  C   UNL     1      -0.483  12.185  21.327  0.00  0.00    +0.000 C 
ATOM     17  C   UNL     1      -0.710  13.689  21.551  0.00  0.00    +0.000 C 
ATOM     18  C   UNL     1      -2.103  14.038  22.079  0.00  0.00    +0.000 C 
ENDBRANCH   1  16
BRANCH   9  19
ATOM     19  C   UNL     1       0.770  10.386  19.045  0.00  0.00    +0.000 C 
BRANCH  19  20
ATOM     20  C   UNL     1       1.027   8.938  19.442  0.00  0.00    +0.000 C 
BRANCH  20  21
ATOM     21  C   UNL     1       2.044   8.268  18.527  0.00  0.00    +0.000 C 
ATOM     22  O   UNL     1       2.402   8.731  17.452  0.00  0.00    +0.000 OA
ATOM     23  N   UNL     1       2.515   7.087  19.060  0.00  0.00    +0.000 N 
ATOM     24  H   UNL     1       1.970   6.712  19.825  0.00  0.00    +0.000 HD
BRANCH  23  25
ATOM     25  C   UNL     1       3.408   6.155  18.375  0.00  0.00    +0.000 C 
ATOM     26  C   UNL     1       4.694   5.783  19.163  0.00  0.00    +0.000 C 
ATOM     27  C   UNL     1       4.626   4.233  19.256  0.00  0.00    +0.000 C 
ATOM     28  C   UNL     1       4.915   3.681  17.845  0.00  0.00    +0.000 C 
ATOM     29  C   UNL     1       3.635   4.034  17.075  0.00  0.00    +0.000 C 
ATOM     30  C   UNL     1       2.756   4.741  18.152  0.00  0.00    +0.000 C 
ATOM     31  C   UNL     1       1.291   4.746  17.743  0.00  0.00    +0.000 C 
ATOM     32  C   UNL     1       3.116   3.955  19.454  0.00  0.00    +0.000 C 
ATOM     33  C   UNL     1       2.725   2.462  19.439  0.00  0.00    +0.000 C 
ATOM     34  C   UNL     1       2.562   4.515  20.779  0.00  0.00    +0.000 C 
ENDBRANCH  23  25
ENDBRANCH  20  21
ENDBRANCH  19  20
ENDBRANCH   9  19
TORSDOF 5
ENDMDL
MODEL 2
REMARK VINA RESULT:      -8.6      2.600      3.452
REMARK  Name = 
REMARK  9 active torsions:
REMARK  status: ('A' for Active; 'I' for Inactive)
REMARK    1  A    between atoms: C_1  and  C_2
REMARK    2  A    between atoms: C_7  and  C_8
REMARK    3  A    between atoms: N_16  and  C_17
REMARK    4  A    between atoms: C_17  and  C_18
REMARK    5  A    between atoms: C_18  and  C_19
REMARK    6  A    between atoms: N_21  and  C_22
REMARK    7  A    between atoms: C_27  and  C_28
REMARK    8  A    between atoms: C_29  and  C_30
REMARK    9  A    between atoms: C_29  and  C_31
REMARK                            x       y       z     vdW  Elec       q    Type
REMARK                         _______ _______ _______ _____ _____    ______ ____
ROOT
ATOM      1  C   UNL     1      -0.103  12.144  19.618  0.00  0.00    +0.000 A 
ATOM      2  N   UNL     1      -1.326  12.631  19.632  0.00  0.00    +0.000 NA
ATOM      3  C   UNL     1      -2.085  11.807  18.842  0.00  0.00    +0.000 A 
ATOM      4  C   UNL     1      -3.434  11.918  18.483  0.00  0.00    +0.000 A 
ATOM      5  C   UNL     1      -4.001  10.932  17.668  0.00  0.00    +0.000 A 
ATOM      6  C   UNL     1      -3.235   9.854  17.228  0.00  0.00    +0.000 A 
ATOM      7  C   UNL     1      -1.879   9.737  17.566  0.00  0.00    +0.000 A 
ATOM      8  C   UNL     1      -1.319  10.745  18.366  0.00  0.00    +0.000 A 
ATOM      9  N   UNL     1      -0.043  11.004  18.828  0.00  0.00    +0.000 N 
ENDROOT
BRANCH   1  16
ATOM     10  C   UNL     1       2.930  16.773  17.424  0.00  0.00    +0.000 C 
ATOM     11  C   UNL     1       1.958  16.659  18.573  0.00  0.00    +0.000 C 
ATOM     12  O   UNL     1       1.393  17.672  18.990  0.00  0.00    +0.000 OA
ATOM     13  N   UNL     1       1.728  15.391  19.114  0.00  0.00    +0.000 N 
ATOM     14  C   UNL     1       0.576  15.275  20.007  0.00  0.00    +0.000 C 
ATOM     15  C   UNL     1       0.687  14.114  20.992  0.00  0.00    +0.000 C 
ATOM     16  C   UNL     1       1.063  12.779  20.339  0.00  0.00    +0.000 C 
ATOM     17  C   UNL     1       2.277  12.985  19.419  0.00  0.00    +0.000 C 
ATOM     18  C   UNL     1       2.131  14.156  18.445  0.00  0.00    +0.000 C 
ENDBRANCH   1  16
BRANCH   9  19
ATOM     19  C   UNL     1       1.154  10.311  18.360  0.00  0.00    +0.000 C 
BRANCH  19  20
ATOM     20  C   UNL     1       1.443   8.987  19.053  0.00  0.00    +0.000 C 
BRANCH  20  21
ATOM     21  C   UNL     1       2.398   8.117  18.246  0.00  0.00    +0.000 C 
ATOM     22  O   UNL     1       2.848   8.434  17.152  0.00  0.00    +0.000 OA
ATOM     23  N   UNL     1       2.699   6.941  18.899  0.00  0.00    +0.000 N 
ATOM     24  H   UNL     1       2.085   6.706  19.668  0.00  0.00    +0.000 HD
BRANCH  23  25
ATOM     25  C   UNL     1       3.491   5.849  18.337  0.00  0.00    +0.000 C 
ATOM     26  C   UNL     1       4.667   5.367  19.229  0.00  0.00    +0.000 C 
ATOM     27  C   UNL     1       4.380   3.853  19.422  0.00  0.00    +0.000 C 
ATOM     28  C   UNL     1       4.667   3.161  18.074  0.00  0.00    +0.000 C 
ATOM     29  C   UNL     1       3.492   3.624  17.201  0.00  0.00    +0.000 C 
ATOM     30  C   UNL     1       2.662   4.522  18.168  0.00  0.00    +0.000 C 
ATOM     31  C   UNL     1       1.236   4.693  17.666  0.00  0.00    +0.000 C 
ATOM     32  C   UNL     1       2.838   3.795  19.541  0.00  0.00    +0.000 C 
ATOM     33  C   UNL     1       2.246   2.371  19.602  0.00  0.00    +0.000 C 
ATOM     34  C   UNL     1       2.295   4.523  20.786  0.00  0.00    +0.000 C 
ENDBRANCH  23  25
ENDBRANCH  20  21
ENDBRANCH  19  20
ENDBRANCH   9  19
TORSDOF 5
ENDMDL
MODEL 3
REMARK VINA RESULT:      -8.5      0.872      1.474
REMARK  Name = 
REMARK  9 active torsions:
REMARK  status: ('A' for Active; 'I' for Inactive)
REMARK    1  A    between atoms: C_1  and  C_2
REMARK    2  A    between atoms: C_7  and  C_8
REMARK    3  A    between atoms: N_16  and  C_17
REMARK    4  A    between atoms: C_17  and  C_18
REMARK    5  A    between atoms: C_18  and  C_19
REMARK    6  A    between atoms: N_21  and  C_22
REMARK    7  A    between atoms: C_27  and  C_28
REMARK    8  A    between atoms: C_29  and  C_30
REMARK    9  A    between atoms: C_29  and  C_31
REMARK                            x       y       z     vdW  Elec       q    Type
REMARK                         _______ _______ _______ _____ _____    ______ ____
ROOT
ATOM      1  C   UNL     1      -1.243  11.939  20.137  0.00  0.00    +0.000 A 
ATOM      2  N   UNL     1      -2.448  12.238  19.697  0.00  0.00    +0.000 NA
ATOM      3  C   UNL     1      -2.633  11.522  18.543  0.00  0.00    +0.000 A 
ATOM      4  C   UNL     1      -3.721  11.528  17.661  0.00  0.00    +0.000 A 
ATOM      5  C   UNL     1      -3.689  10.689  16.542  0.00  0.00    +0.000 A 
ATOM      6  C   UNL     1      -2.594   9.857  16.314  0.00  0.00    +0.000 A 
ATOM      7  C   UNL     1      -1.491   9.852  17.180  0.00  0.00    +0.000 A 
ATOM      8  C   UNL     1      -1.528  10.714  18.287  0.00  0.00    +0.000 A 
ATOM      9  N   UNL     1      -0.627  11.031  19.285  0.00  0.00    +0.000 N 
ENDROOT
BRANCH   1  16
ATOM     10  C   UNL     1      -4.396  14.967  24.178  0.00  0.00    +0.000 C 
ATOM     11  C   UNL     1      -3.752  13.603  24.218  0.00  0.00    +0.000 C 
ATOM     12  O   UNL     1      -4.141  12.776  25.045  0.00  0.00    +0.000 OA
ATOM     13  N   UNL     1      -2.739  13.327  23.296  0.00  0.00    +0.000 N 
ATOM     14  C   UNL     1      -2.354  11.923  23.167  0.00  0.00    +0.000 C 
ATOM     15  C   UNL     1      -0.936  11.729  22.637  0.00  0.00    +0.000 C 
ATOM     16  C   UNL     1      -0.626  12.543  21.376  0.00  0.00    +0.000 C 
ATOM     17  C   UNL     1      -1.058  14.003  21.592  0.00  0.00    +0.000 C 
ATOM     18  C   UNL     1      -2.485  14.160  22.122  0.00  0.00    +0.000 C 
ENDBRANCH   1  16
BRANCH   9  19
ATOM     19  C   UNL     1       0.778  10.636  19.277  0.00  0.00    +0.000 C 
BRANCH  19  20
ATOM     20  C   UNL     1       1.070   9.311  18.585  0.00  0.00    +0.000 C 
BRANCH  20  21
ATOM     21  C   UNL     1       1.708   8.302  19.530  0.00  0.00    +0.000 C 
ATOM     22  O   UNL     1       1.684   8.402  20.750  0.00  0.00    +0.000 OA
ATOM     23  N   UNL     1       2.301   7.262  18.848  0.00  0.00    +0.000 N 
ATOM     24  H   UNL     1       2.450   7.424  17.860  0.00  0.00    +0.000 HD
BRANCH  23  25
ATOM     25  C   UNL     1       3.094   6.200  19.462  0.00  0.00    +0.000 C 
ATOM     26  C   UNL     1       2.280   5.178  20.302  0.00  0.00    +0.000 C 
ATOM     27  C   UNL     1       2.623   3.812  19.645  0.00  0.00    +0.000 C 
ATOM     28  C   UNL     1       4.082   3.482  20.022  0.00  0.00    +0.000 C 
ATOM     29  C   UNL     1       4.884   4.480  19.176  0.00  0.00    +0.000 C 
ATOM     30  C   UNL     1       3.777   5.260  18.402  0.00  0.00    +0.000 C 
ATOM     31  C   UNL     1       4.354   5.955  17.178  0.00  0.00    +0.000 C 
ATOM     32  C   UNL     1       2.705   4.154  18.138  0.00  0.00    +0.000 C 
ATOM     33  C   UNL     1       3.177   2.994  17.236  0.00  0.00    +0.000 C 
ATOM     34  C   UNL     1       1.360   4.619  17.544  0.00  0.00    +0.000 C 
ENDBRANCH  23  25
ENDBRANCH  20  21
ENDBRANCH  19  20
ENDBRANCH   9  19
TORSDOF 5
ENDMDL
MODEL 4
REMARK VINA RESULT:      -8.5      1.274      1.827
REMARK  Name = 
REMARK  9 active torsions:
REMARK  status: ('A' for Active; 'I' for Inactive)
REMARK    1  A    between atoms: C_1  and  C_2
REMARK    2  A    between atoms: C_7  and  C_8
REMARK    3  A    between atoms: N_16  and  C_17
REMARK    4  A    between atoms: C_17  and  C_18
REMARK    5  A    between atoms: C_18  and  C_19
REMARK    6  A    between atoms: N_21  and  C_22
REMARK    7  A    between atoms: C_27  and  C_28
REMARK    8  A    between atoms: C_29  and  C_30
REMARK    9  A    between atoms: C_29  and  C_31
REMARK                            x       y       z     vdW  Elec       q    Type
REMARK                         _______ _______ _______ _____ _____    ______ ____
ROOT
ATOM      1  C   UNL     1      -0.617  11.094  20.027  0.00  0.00    +0.000 A 
ATOM      2  N   UNL     1      -1.900  11.388  19.969  0.00  0.00    +0.000 NA
ATOM      3  C   UNL     1      -2.333  11.007  18.726  0.00  0.00    +0.000 A 
ATOM      4  C   UNL     1      -3.599  11.155  18.144  0.00  0.00    +0.000 A 
ATOM      5  C   UNL     1      -3.810  10.666  16.850  0.00  0.00    +0.000 A 
ATOM      6  C   UNL     1      -2.778  10.036  16.156  0.00  0.00    +0.000 A 
ATOM      7  C   UNL     1      -1.502   9.895  16.719  0.00  0.00    +0.000 A 
ATOM      8  C   UNL     1      -1.299  10.409  18.009  0.00  0.00    +0.000 A 
ATOM      9  N   UNL     1      -0.196  10.521  18.834  0.00  0.00    +0.000 N 
ENDROOT
BRANCH   1  16
ATOM     10  C   UNL     1      -1.101  16.071  23.258  0.00  0.00    +0.000 C 
ATOM     11  C   UNL     1      -1.461  14.636  23.557  0.00  0.00    +0.000 C 
ATOM     12  O   UNL     1      -2.273  14.391  24.452  0.00  0.00    +0.000 OA
ATOM     13  N   UNL     1      -0.860  13.634  22.790  0.00  0.00    +0.000 N 
ATOM     14  C   UNL     1      -1.449  12.301  22.902  0.00  0.00    +0.000 C 
ATOM     15  C   UNL     1      -0.477  11.178  22.550  0.00  0.00    +0.000 C 
ATOM     16  C   UNL     1       0.259  11.387  21.221  0.00  0.00    +0.000 C 
ATOM     17  C   UNL     1       0.847  12.807  21.182  0.00  0.00    +0.000 C 
ATOM     18  C   UNL     1      -0.154  13.907  21.540  0.00  0.00    +0.000 C 
ENDBRANCH   1  16
BRANCH   9  19
ATOM     19  C   UNL     1       1.177  10.277  18.403  0.00  0.00    +0.000 C 
BRANCH  19  20
ATOM     20  C   UNL     1       1.458   8.862  17.916  0.00  0.00    +0.000 C 
BRANCH  20  21
ATOM     21  C   UNL     1       1.921   7.951  19.045  0.00  0.00    +0.000 C 
ATOM     22  O   UNL     1       1.926   8.278  20.225  0.00  0.00    +0.000 OA
ATOM     23  N   UNL     1       2.321   6.717  18.578  0.00  0.00    +0.000 N 
ATOM     24  H   UNL     1       2.485   6.666  17.582  0.00  0.00    +0.000 HD
BRANCH  23  25
ATOM     25  C   UNL     1       2.925   5.667  19.395  0.00  0.00    +0.000 C 
ATOM     26  C   UNL     1       1.928   4.874  20.283  0.00  0.00    +0.000 C 
ATOM     27  C   UNL     1       2.144   3.399  19.843  0.00  0.00    +0.000 C 
ATOM     28  C   UNL     1       3.517   2.959  20.391  0.00  0.00    +0.000 C 
ATOM     29  C   UNL     1       4.500   3.730  19.499  0.00  0.00    +0.000 C 
ATOM     30  C   UNL     1       3.561   4.516  18.532  0.00  0.00    +0.000 C 
ATOM     31  C   UNL     1       4.311   4.962  17.286  0.00  0.00    +0.000 C 
ATOM     32  C   UNL     1       2.381   3.515  18.318  0.00  0.00    +0.000 C 
ATOM     33  C   UNL     1       2.769   2.194  17.621  0.00  0.00    +0.000 C 
ATOM     34  C   UNL     1       1.153   4.044  17.549  0.00  0.00    +0.000 C 
ENDBRANCH  23  25
ENDBRANCH  20  21
ENDBRANCH  19  20
ENDBRANCH   9  19
TORSDOF 5
ENDMDL
MODEL 5
REMARK VINA RESULT:      -8.5      1.709      2.246
REMARK  Name = 
REMARK  9 active torsions:
REMARK  status: ('A' for Active; 'I' for Inactive)
REMARK    1  A    between atoms: C_1  and  C_2
REMARK    2  A    between atoms: C_7  and  C_8
REMARK    3  A    between atoms: N_16  and  C_17
REMARK    4  A    between atoms: C_17  and  C_18
REMARK    5  A    between atoms: C_18  and  C_19
REMARK    6  A    between atoms: N_21  and  C_22
REMARK    7  A    between atoms: C_27  and  C_28
REMARK    8  A    between atoms: C_29  and  C_30
REMARK    9  A    between atoms: C_29  and  C_31
REMARK                            x       y       z     vdW  Elec       q    Type
REMARK                         _______ _______ _______ _____ _____    ______ ____
ROOT
ATOM      1  C   UNL     1      -0.766  11.488  19.834  0.00  0.00    +0.000 A 
ATOM      2  N   UNL     1      -1.990  11.968  19.770  0.00  0.00    +0.000 NA
ATOM      3  C   UNL     1      -2.554  11.455  18.631  0.00  0.00    +0.000 A 
ATOM      4  C   UNL     1      -3.816  11.701  18.078  0.00  0.00    +0.000 A 
ATOM      5  C   UNL     1      -4.180  11.040  16.900  0.00  0.00    +0.000 A 
ATOM      6  C   UNL     1      -3.301  10.145  16.293  0.00  0.00    +0.000 A 
ATOM      7  C   UNL     1      -2.027   9.900  16.825  0.00  0.00    +0.000 A 
ATOM      8  C   UNL     1      -1.668  10.587  17.996  0.00  0.00    +0.000 A 
ATOM      9  N   UNL     1      -0.512  10.660  18.747  0.00  0.00    +0.000 N 
ENDROOT
BRANCH   1  16
ATOM     10  C   UNL     1       1.506  16.946  20.528  0.00  0.00    +0.000 C 
ATOM     11  C   UNL     1       0.502  16.163  21.337  0.00  0.00    +0.000 C 
ATOM     12  O   UNL     1      -0.262  16.762  22.096  0.00  0.00    +0.000 OA
ATOM     13  N   UNL     1       0.472  14.774  21.181  0.00  0.00    +0.000 N 
ATOM     14  C   UNL     1      -0.692  14.090  21.741  0.00  0.00    +0.000 C 
ATOM     15  C   UNL     1      -0.434  12.622  22.069  0.00  0.00    +0.000 C 
ATOM     16  C   UNL     1       0.218  11.836  20.926  0.00  0.00    +0.000 C 
ATOM     17  C   UNL     1       1.430  12.618  20.394  0.00  0.00    +0.000 C 
ATOM     18  C   UNL     1       1.135  14.085  20.075  0.00  0.00    +0.000 C 
ENDBRANCH   1  16
BRANCH   9  19
ATOM     19  C   UNL     1       0.780  10.132  18.318  0.00  0.00    +0.000 C 
BRANCH  19  20
ATOM     20  C   UNL     1       1.279   8.932  19.111  0.00  0.00    +0.000 C 
BRANCH  20  21
ATOM     21  C   UNL     1       2.303   8.118  18.330  0.00  0.00    +0.000 C 
ATOM     22  O   UNL     1       2.822   8.497  17.288  0.00  0.00    +0.000 OA
ATOM     23  N   UNL     1       2.580   6.915  18.944  0.00  0.00    +0.000 N 
ATOM     24  H   UNL     1       1.919   6.633  19.656  0.00  0.00    +0.000 HD
BRANCH  23  25
ATOM     25  C   UNL     1       3.428   5.865  18.385  0.00  0.00    +0.000 C 
ATOM     26  C   UNL     1       4.579   5.390  19.314  0.00  0.00    +0.000 C 
ATOM     27  C   UNL     1       4.331   3.862  19.448  0.00  0.00    +0.000 C 
ATOM     28  C   UNL     1       4.696   3.222  18.093  0.00  0.00    +0.000 C 
ATOM     29  C   UNL     1       3.547   3.677  17.184  0.00  0.00    +0.000 C 
ATOM     30  C   UNL     1       2.648   4.520  18.140  0.00  0.00    +0.000 C 
ATOM     31  C   UNL     1       1.241   4.665  17.580  0.00  0.00    +0.000 C 
ATOM     32  C   UNL     1       2.787   3.756  19.496  0.00  0.00    +0.000 C 
ATOM     33  C   UNL     1       2.237   2.315  19.488  0.00  0.00    +0.000 C 
ATOM     34  C   UNL     1       2.168   4.429  20.738  0.00  0.00    +0.000 C 
ENDBRANCH  23  25
ENDBRANCH  20  21
ENDBRANCH  19  20
ENDBRANCH   9  19
TORSDOF 5
ENDMDL
MODEL 6
REMARK VINA RESULT:      -8.3      3.161      4.180
REMARK  Name = 
REMARK  9 active torsions:
REMARK  status: ('A' for Active; 'I' for Inactive)
REMARK    1  A    between atoms: C_1  and  C_2
REMARK    2  A    between atoms: C_7  and  C_8
REMARK    3  A    between atoms: N_16  and  C_17
REMARK    4  A    between atoms: C_17  and  C_18
REMARK    5  A    between atoms: C_18  and  C_19
REMARK    6  A    between atoms: N_21  and  C_22
REMARK    7  A    between atoms: C_27  and  C_28
REMARK    8  A    between atoms: C_29  and  C_30
REMARK    9  A    between atoms: C_29  and  C_31
REMARK                            x       y       z     vdW  Elec       q    Type
REMARK                         _______ _______ _______ _____ _____    ______ ____
ROOT
ATOM      1  C   UNL     1       0.634  12.191  19.411  0.00  0.00    +0.000 A 
ATOM      2  N   UNL     1      -0.099  12.310  20.499  0.00  0.00    +0.000 NA
ATOM      3  C   UNL     1      -0.030  11.106  21.150  0.00  0.00    +0.000 A 
ATOM      4  C   UNL     1      -0.678  10.694  22.322  0.00  0.00    +0.000 A 
ATOM      5  C   UNL     1      -0.437   9.405  22.811  0.00  0.00    +0.000 A 
ATOM      6  C   UNL     1       0.439   8.549  22.144  0.00  0.00    +0.000 A 
ATOM      7  C   UNL     1       1.081   8.942  20.961  0.00  0.00    +0.000 A 
ATOM      8  C   UNL     1       0.813  10.230  20.471  0.00  0.00    +0.000 A 
ATOM      9  N   UNL     1       1.188  10.920  19.335  0.00  0.00    +0.000 N 
ENDROOT
BRANCH   1  16
ATOM     10  C   UNL     1       1.682  17.865  20.877  0.00  0.00    +0.000 C 
ATOM     11  C   UNL     1       2.560  16.806  20.256  0.00  0.00    +0.000 C 
ATOM     12  O   UNL     1       3.785  16.930  20.308  0.00  0.00    +0.000 OA
ATOM     13  N   UNL     1       1.938  15.711  19.650  0.00  0.00    +0.000 N 
ATOM     14  C   UNL     1       2.805  14.578  19.331  0.00  0.00    +0.000 C 
ATOM     15  C   UNL     1       2.266  13.699  18.205  0.00  0.00    +0.000 C 
ATOM     16  C   UNL     1       0.800  13.288  18.386  0.00  0.00    +0.000 C 
ATOM     17  C   UNL     1      -0.042  14.530  18.717  0.00  0.00    +0.000 C 
ATOM     18  C   UNL     1       0.528  15.387  19.850  0.00  0.00    +0.000 C 
ENDBRANCH   1  16
BRANCH   9  19
ATOM     19  C   UNL     1       1.853  10.310  18.188  0.00  0.00    +0.000 C 
BRANCH  19  20
ATOM     20  C   UNL     1       1.436   8.876  17.889  0.00  0.00    +0.000 C 
BRANCH  20  21
ATOM     21  C   UNL     1       2.629   7.929  17.861  0.00  0.00    +0.000 C 
ATOM     22  O   UNL     1       3.758   8.266  17.527  0.00  0.00    +0.000 OA
ATOM     23  N   UNL     1       2.285   6.657  18.265  0.00  0.00    +0.000 N 
ATOM     24  H   UNL     1       1.292   6.465  18.284  0.00  0.00    +0.000 HD
BRANCH  23  25
ATOM     25  C   UNL     1       3.175   5.499  18.236  0.00  0.00    +0.000 C 
ATOM     26  C   UNL     1       4.128   5.375  19.456  0.00  0.00    +0.000 C 
ATOM     27  C   UNL     1       3.800   3.970  20.031  0.00  0.00    +0.000 C 
ATOM     28  C   UNL     1       4.369   2.930  19.044  0.00  0.00    +0.000 C 
ATOM     29  C   UNL     1       3.414   3.042  17.848  0.00  0.00    +0.000 C 
ATOM     30  C   UNL     1       2.397   4.133  18.305  0.00  0.00    +0.000 C 
ATOM     31  C   UNL     1       1.115   4.061  17.490  0.00  0.00    +0.000 C 
ATOM     32  C   UNL     1       2.269   3.855  19.838  0.00  0.00    +0.000 C 
ATOM     33  C   UNL     1       1.671   2.479  20.200  0.00  0.00    +0.000 C 
ATOM     34  C   UNL     1       1.471   4.883  20.665  0.00  0.00    +0.000 C 
ENDBRANCH  23  25
ENDBRANCH  20  21
ENDBRANCH  19  20
ENDBRANCH   9  19
TORSDOF 5
ENDMDL
MODEL 7
REMARK VINA RESULT:      -8.1      1.076      1.258
REMARK  Name = 
REMARK  9 active torsions:
REMARK  status: ('A' for Active; 'I' for Inactive)
REMARK    1  A    between atoms: C_1  and  C_2
REMARK    2  A    between atoms: C_7  and  C_8
REMARK    3  A    between atoms: N_16  and  C_17
REMARK    4  A    between atoms: C_17  and  C_18
REMARK    5  A    between atoms: C_18  and  C_19
REMARK    6  A    between atoms: N_21  and  C_22
REMARK    7  A    between atoms: C_27  and  C_28
REMARK    8  A    between atoms: C_29  and  C_30
REMARK    9  A    between atoms: C_29  and  C_31
REMARK                            x       y       z     vdW  Elec       q    Type
REMARK                         _______ _______ _______ _____ _____    ______ ____
ROOT
ATOM      1  C   UNL     1      -1.114  11.705  20.084  0.00  0.00    +0.000 A 
ATOM      2  N   UNL     1      -2.351  12.107  19.880  0.00  0.00    +0.000 NA
ATOM      3  C   UNL     1      -2.746  11.567  18.684  0.00  0.00    +0.000 A 
ATOM      4  C   UNL     1      -3.950  11.737  17.989  0.00  0.00    +0.000 A 
ATOM      5  C   UNL     1      -4.134  11.061  16.778  0.00  0.00    +0.000 A 
ATOM      6  C   UNL     1      -3.135  10.229  16.276  0.00  0.00    +0.000 A 
ATOM      7  C   UNL     1      -1.917  10.061  16.952  0.00  0.00    +0.000 A 
ATOM      8  C   UNL     1      -1.740  10.762  18.155  0.00  0.00    +0.000 A 
ATOM      9  N   UNL     1      -0.685  10.903  19.035  0.00  0.00    +0.000 N 
ENDROOT
BRANCH   1  16
ATOM     10  C   UNL     1      -1.235  17.182  22.414  0.00  0.00    +0.000 C 
ATOM     11  C   UNL     1      -1.772  15.863  22.913  0.00  0.00    +0.000 C 
ATOM     12  O   UNL     1      -2.660  15.856  23.768  0.00  0.00    +0.000 OA
ATOM     13  N   UNL     1      -1.241  14.690  22.370  0.00  0.00    +0.000 N 
ATOM     14  C   UNL     1      -1.981  13.461  22.649  0.00  0.00    +0.000 C 
ATOM     15  C   UNL     1      -1.122  12.202  22.563  0.00  0.00    +0.000 C 
ATOM     16  C   UNL     1      -0.286  12.107  21.282  0.00  0.00    +0.000 C 
ATOM     17  C   UNL     1       0.459  13.433  21.059  0.00  0.00    +0.000 C 
ATOM     18  C   UNL     1      -0.433  14.674  21.152  0.00  0.00    +0.000 C 
ENDBRANCH   1  16
BRANCH   9  19
ATOM     19  C   UNL     1       0.679  10.461  18.758  0.00  0.00    +0.000 C 
BRANCH  19  20
ATOM     20  C   UNL     1       1.058   9.120  19.372  0.00  0.00    +0.000 C 
BRANCH  20  21
ATOM     21  C   UNL     1       2.136   8.407  18.567  0.00  0.00    +0.000 C 
ATOM     22  O   UNL     1       2.718   8.909  17.614  0.00  0.00    +0.000 OA
ATOM     23  N   UNL     1       2.382   7.139  19.047  0.00  0.00    +0.000 N 
ATOM     24  H   UNL     1       1.680   6.772  19.675  0.00  0.00    +0.000 HD
BRANCH  23  25
ATOM     25  C   UNL     1       3.273   6.164  18.422  0.00  0.00    +0.000 C 
ATOM     26  C   UNL     1       4.438   5.669  19.323  0.00  0.00    +0.000 C 
ATOM     27  C   UNL     1       4.248   4.127  19.347  0.00  0.00    +0.000 C 
ATOM     28  C   UNL     1       4.644   3.600  17.953  0.00  0.00    +0.000 C 
ATOM     29  C   UNL     1       3.482   4.074  17.069  0.00  0.00    +0.000 C 
ATOM     30  C   UNL     1       2.547   4.812  18.076  0.00  0.00    +0.000 C 
ATOM     31  C   UNL     1       1.138   4.942  17.518  0.00  0.00    +0.000 C 
ATOM     32  C   UNL     1       2.710   3.959  19.376  0.00  0.00    +0.000 C 
ATOM     33  C   UNL     1       2.215   2.502  19.262  0.00  0.00    +0.000 C 
ATOM     34  C   UNL     1       2.059   4.518  20.657  0.00  0.00    +0.000 C 
ENDBRANCH  23  25
ENDBRANCH  20  21
ENDBRANCH  19  20
ENDBRANCH   9  19
TORSDOF 5
ENDMDL
MODEL 8
REMARK VINA RESULT:      -8.1      2.256      3.096
REMARK  Name = 
REMARK  9 active torsions:
REMARK  status: ('A' for Active; 'I' for Inactive)
REMARK    1  A    between atoms: C_1  and  C_2
REMARK    2  A    between atoms: C_7  and  C_8
REMARK    3  A    between atoms: N_16  and  C_17
REMARK    4  A    between atoms: C_17  and  C_18
REMARK    5  A    between atoms: C_18  and  C_19
REMARK    6  A    between atoms: N_21  and  C_22
REMARK    7  A    between atoms: C_27  and  C_28
REMARK    8  A    between atoms: C_29  and  C_30
REMARK    9  A    between atoms: C_29  and  C_31
REMARK                            x       y       z     vdW  Elec       q    Type
REMARK                         _______ _______ _______ _____ _____    ______ ____
ROOT
ATOM      1  C   UNL     1      -0.186  11.850  19.882  0.00  0.00    +0.000 A 
ATOM      2  N   UNL     1      -1.456  12.196  19.841  0.00  0.00    +0.000 NA
ATOM      3  C   UNL     1      -2.021  11.493  18.809  0.00  0.00    +0.000 A 
ATOM      4  C   UNL     1      -3.329  11.544  18.313  0.00  0.00    +0.000 A 
ATOM      5  C   UNL     1      -3.683  10.710  17.247  0.00  0.00    +0.000 A 
ATOM      6  C   UNL     1      -2.746   9.838  16.693  0.00  0.00    +0.000 A 
ATOM      7  C   UNL     1      -1.428   9.787  17.168  0.00  0.00    +0.000 A 
ATOM      8  C   UNL     1      -1.083  10.645  18.224  0.00  0.00    +0.000 A 
ATOM      9  N   UNL     1       0.096  10.923  18.886  0.00  0.00    +0.000 N 
ENDROOT
BRANCH   1  16
ATOM     10  C   UNL     1       1.969  17.381  19.435  0.00  0.00    +0.000 C 
ATOM     11  C   UNL     1       1.000  16.752  20.406  0.00  0.00    +0.000 C 
ATOM     12  O   UNL     1       0.238  17.475  21.052  0.00  0.00    +0.000 OA
ATOM     13  N   UNL     1       1.000  15.360  20.526  0.00  0.00    +0.000 N 
ATOM     14  C   UNL     1      -0.136  14.778  21.238  0.00  0.00    +0.000 C 
ATOM     15  C   UNL     1       0.164  13.408  21.842  0.00  0.00    +0.000 C 
ATOM     16  C   UNL     1       0.811  12.425  20.860  0.00  0.00    +0.000 C 
ATOM     17  C   UNL     1       1.993  13.110  20.155  0.00  0.00    +0.000 C 
ATOM     18  C   UNL     1       1.656  14.480  19.562  0.00  0.00    +0.000 C 
ENDBRANCH   1  16
BRANCH   9  19
ATOM     19  C   UNL     1       1.413  10.475  18.440  0.00  0.00    +0.000 C 
BRANCH  19  20
ATOM     20  C   UNL     1       1.472   9.031  17.962  0.00  0.00    +0.000 C 
BRANCH  20  21
ATOM     21  C   UNL     1       1.899   8.079  19.073  0.00  0.00    +0.000 C 
ATOM     22  O   UNL     1       1.814   8.343  20.265  0.00  0.00    +0.000 OA
ATOM     23  N   UNL     1       2.379   6.888  18.573  0.00  0.00    +0.000 N 
ATOM     24  H   UNL     1       2.610   6.896  17.588  0.00  0.00    +0.000 HD
BRANCH  23  25
ATOM     25  C   UNL     1       2.972   5.820  19.375  0.00  0.00    +0.000 C 
ATOM     26  C   UNL     1       1.963   5.010  20.234  0.00  0.00    +0.000 C 
ATOM     27  C   UNL     1       2.183   3.544  19.765  0.00  0.00    +0.000 C 
ATOM     28  C   UNL     1       3.549   3.091  20.321  0.00  0.00    +0.000 C 
ATOM     29  C   UNL     1       4.543   3.879  19.457  0.00  0.00    +0.000 C 
ATOM     30  C   UNL     1       3.618   4.687  18.496  0.00  0.00    +0.000 C 
ATOM     31  C   UNL     1       4.383   5.157  17.269  0.00  0.00    +0.000 C 
ATOM     32  C   UNL     1       2.438   3.692  18.246  0.00  0.00    +0.000 C 
ATOM     33  C   UNL     1       2.833   2.385  17.526  0.00  0.00    +0.000 C 
ATOM     34  C   UNL     1       1.221   4.238  17.474  0.00  0.00    +0.000 C 
ENDBRANCH  23  25
ENDBRANCH  20  21
ENDBRANCH  19  20
ENDBRANCH   9  19
TORSDOF 5
ENDMDL
MODEL 9
REMARK VINA RESULT:      -8.1      2.908      4.077
REMARK  Name = 
REMARK  9 active torsions:
REMARK  status: ('A' for Active; 'I' for Inactive)
REMARK    1  A    between atoms: C_1  and  C_2
REMARK    2  A    between atoms: C_7  and  C_8
REMARK    3  A    between atoms: N_16  and  C_17
REMARK    4  A    between atoms: C_17  and  C_18
REMARK    5  A    between atoms: C_18  and  C_19
REMARK    6  A    between atoms: N_21  and  C_22
REMARK    7  A    between atoms: C_27  and  C_28
REMARK    8  A    between atoms: C_29  and  C_30
REMARK    9  A    between atoms: C_29  and  C_31
REMARK                            x       y       z     vdW  Elec       q    Type
REMARK                         _______ _______ _______ _____ _____    ______ ____
ROOT
ATOM      1  C   UNL     1       0.495  11.603  19.007  0.00  0.00    +0.000 A 
ATOM      2  N   UNL     1      -0.555  12.386  19.150  0.00  0.00    +0.000 NA
ATOM      3  C   UNL     1      -1.630  11.691  18.659  0.00  0.00    +0.000 A 
ATOM      4  C   UNL     1      -2.963  12.099  18.527  0.00  0.00    +0.000 A 
ATOM      5  C   UNL     1      -3.898  11.198  18.006  0.00  0.00    +0.000 A 
ATOM      6  C   UNL     1      -3.508   9.914  17.631  0.00  0.00    +0.000 A 
ATOM      7  C   UNL     1      -2.174   9.496  17.742  0.00  0.00    +0.000 A 
ATOM      8  C   UNL     1      -1.243  10.418  18.247  0.00  0.00    +0.000 A 
ATOM      9  N   UNL     1       0.126  10.397  18.427  0.00  0.00    +0.000 N 
ENDROOT
BRANCH   1  16
ATOM     10  C   UNL     1       2.927  16.809  17.448  0.00  0.00    +0.000 C 
ATOM     11  C   UNL     1       2.443  16.280  18.776  0.00  0.00    +0.000 C 
ATOM     12  O   UNL     1       2.172  17.074  19.679  0.00  0.00    +0.000 OA
ATOM     13  N   UNL     1       2.310  14.897  18.923  0.00  0.00    +0.000 N 
ATOM     14  C   UNL     1       1.565  14.446  20.098  0.00  0.00    +0.000 C 
ATOM     15  C   UNL     1       1.921  13.027  20.534  0.00  0.00    +0.000 C 
ATOM     16  C   UNL     1       1.899  12.003  19.393  0.00  0.00    +0.000 C 
ATOM     17  C   UNL     1       2.701  12.549  18.201  0.00  0.00    +0.000 C 
ATOM     18  C   UNL     1       2.317  13.973  17.791  0.00  0.00    +0.000 C 
ENDBRANCH   1  16
BRANCH   9  19
ATOM     19  C   UNL     1       1.008   9.368  17.883  0.00  0.00    +0.000 C 
BRANCH  19  20
ATOM     20  C   UNL     1       2.170   8.974  18.786  0.00  0.00    +0.000 C 
BRANCH  20  21
ATOM     21  C   UNL     1       1.778   7.886  19.778  0.00  0.00    +0.000 C 
ATOM     22  O   UNL     1       1.040   8.072  20.736  0.00  0.00    +0.000 OA
ATOM     23  N   UNL     1       2.345   6.671  19.457  0.00  0.00    +0.000 N 
ATOM     24  H   UNL     1       3.106   6.713  18.792  0.00  0.00    +0.000 HD
BRANCH  23  25
ATOM     25  C   UNL     1       2.257   5.463  20.275  0.00  0.00    +0.000 C 
ATOM     26  C   UNL     1       0.829   4.866  20.408  0.00  0.00    +0.000 C 
ATOM     27  C   UNL     1       0.995   3.411  19.889  0.00  0.00    +0.000 C 
ATOM     28  C   UNL     1       1.792   2.636  20.958  0.00  0.00    +0.000 C 
ATOM     29  C   UNL     1       3.206   3.215  20.810  0.00  0.00    +0.000 C 
ATOM     30  C   UNL     1       3.048   4.252  19.656  0.00  0.00    +0.000 C 
ATOM     31  C   UNL     1       4.395   4.590  19.036  0.00  0.00    +0.000 C 
ATOM     32  C   UNL     1       2.001   3.562  18.722  0.00  0.00    +0.000 C 
ATOM     33  C   UNL     1       2.469   2.232  18.094  0.00  0.00    +0.000 C 
ATOM     34  C   UNL     1       1.455   4.404  17.551  0.00  0.00    +0.000 C 
ENDBRANCH  23  25
ENDBRANCH  20  21
ENDBRANCH  19  20
ENDBRANCH   9  19
TORSDOF 5
ENDMDL
