MODEL 1
REMARK VINA RESULT:      -8.6      0.000      0.000
REMARK  Name = 
REMARK  4 active torsions:
REMARK  status: ('A' for Active; 'I' for Inactive)
REMARK    1  A    between atoms: C_5  and  C_6
REMARK    2  A    between atoms: N_17  and  C_18
REMARK    3  A    between atoms: C_23  and  C_24
REMARK    4  A    between atoms: C_24  and  N_25
REMARK                            x       y       z     vdW  Elec       q    Type
REMARK                         _______ _______ _______ _____ _____    ______ ____
ROOT
ATOM      1  O   UNL     1       1.238  10.548  21.722  0.00  0.00    +0.000 OA
ATOM      2  C   UNL     1       0.348  10.784  20.907  0.00  0.00    +0.000 A 
ATOM      3  C   UNL     1      -0.685  11.752  21.113  0.00  0.00    +0.000 A 
ATOM      4  S   UNL     1      -0.798  12.718  22.486  0.00  0.00    +0.000 S 
ATOM      5  C   UNL     1      -2.259  13.443  21.926  0.00  0.00    +0.000 A 
ATOM      6  C   UNL     1      -2.604  12.967  20.663  0.00  0.00    +0.000 A 
ATOM      7  C   UNL     1      -1.671  12.006  20.209  0.00  0.00    +0.000 A 
ATOM      8  N   UNL     1      -1.745  11.365  18.969  0.00  0.00    +0.000 NA
ATOM      9  C   UNL     1      -0.794  10.504  18.779  0.00  0.00    +0.000 A 
ATOM     10  N   UNL     1       0.233  10.172  19.658  0.00  0.00    +0.000 N 
ENDROOT
BRANCH  10  11
ATOM     11  C   UNL     1       1.175   9.187  19.275  0.00  0.00    +0.000 A 
ATOM     12  C   UNL     1       1.919   9.386  18.114  0.00  0.00    +0.000 A 
ATOM     13  C   UNL     1       2.756   8.388  17.635  0.00  0.00    +0.000 A 
ATOM     14  C   UNL     1       2.830   7.183  18.348  0.00  0.00    +0.000 A 
ATOM     15  S   UNL     1       3.618   5.758  17.839  0.00  0.00    +0.000 S 
ATOM     16  C   UNL     1       3.533   5.072  19.402  0.00  0.00    +0.000 A 
ATOM     17  C   UNL     1       2.629   5.765  20.187  0.00  0.00    +0.000 A 
ATOM     18  C   UNL     1       2.208   7.001  19.583  0.00  0.00    +0.000 A 
ATOM     19  C   UNL     1       1.348   8.022  20.044  0.00  0.00    +0.000 A 
BRANCH  16  20
ATOM     20  C   UNL     1       4.344   3.849  19.729  0.00  0.00    +0.000 C 
BRANCH  20  21
ATOM     21  N   UNL     1       3.633   2.559  19.684  0.00  0.00    +0.000 NA
ATOM     22  C   UNL     1       3.633   1.893  18.381  0.00  0.00    +0.000 C 
ATOM     23  C   UNL     1       2.300   2.230  17.741  0.00  0.00    +0.000 C 
ATOM     24  C   UNL     1       1.351   2.371  18.918  0.00  0.00    +0.000 C 
ATOM     25  C   UNL     1       2.240   2.579  20.142  0.00  0.00    +0.000 C 
ENDBRANCH  20  21
ENDBRANCH  16  20
ENDBRANCH  10  11
BRANCH   5  26
ATOM     26  C   UNL     1      -2.932  14.448  22.758  0.00  0.00    +0.000 A 
ATOM     27  C   UNL     1      -2.198  15.486  23.353  0.00  0.00    +0.000 A 
ATOM     28  C   UNL     1      -2.832  16.431  24.164  0.00  0.00    +0.000 A 
ATOM     29  C   UNL     1      -4.205  16.346  24.386  0.00  0.00    +0.000 A 
ATOM     30 CL   UNL     1      -4.985  17.501  25.392  0.00  0.00    +0.000 Cl
ATOM     31  C   UNL     1      -4.951  15.331  23.798  0.00  0.00    +0.000 A 
ATOM     32  C   UNL     1      -4.321  14.392  22.983  0.00  0.00    +0.000 A 
ENDBRANCH   5  26
TORSDOF 4
ENDMDL
MODEL 2
REMARK VINA RESULT:      -8.5      2.414      3.354
REMARK  Name = 
REMARK  4 active torsions:
REMARK  status: ('A' for Active; 'I' for Inactive)
REMARK    1  A    between atoms: C_5  and  C_6
REMARK    2  A    between atoms: N_17  and  C_18
REMARK    3  A    between atoms: C_23  and  C_24
REMARK    4  A    between atoms: C_24  and  N_25
REMARK                            x       y       z     vdW  Elec       q    Type
REMARK                         _______ _______ _______ _____ _____    ______ ____
ROOT
ATOM      1  O   UNL     1      -0.380  10.065  19.183  0.00  0.00    +0.000 OA
ATOM      2  C   UNL     1      -0.265  10.102  20.406  0.00  0.00    +0.000 A 
ATOM      3  C   UNL     1      -0.921  11.061  21.239  0.00  0.00    +0.000 A 
ATOM      4  S   UNL     1      -1.965  12.245  20.656  0.00  0.00    +0.000 S 
ATOM      5  C   UNL     1      -2.184  12.911  22.232  0.00  0.00    +0.000 A 
ATOM      6  C   UNL     1      -1.492  12.172  23.189  0.00  0.00    +0.000 A 
ATOM      7  C   UNL     1      -0.787  11.101  22.594  0.00  0.00    +0.000 A 
ATOM      8  N   UNL     1      -0.016  10.177  23.306  0.00  0.00    +0.000 NA
ATOM      9  C   UNL     1       0.560   9.297  22.547  0.00  0.00    +0.000 A 
ATOM     10  N   UNL     1       0.491   9.203  21.160  0.00  0.00    +0.000 N 
ENDROOT
BRANCH  10  11
ATOM     11  C   UNL     1       1.208   8.174  20.504  0.00  0.00    +0.000 A 
ATOM     12  C   UNL     1       1.137   6.878  21.009  0.00  0.00    +0.000 A 
ATOM     13  C   UNL     1       1.927   5.870  20.474  0.00  0.00    +0.000 A 
ATOM     14  C   UNL     1       2.792   6.191  19.420  0.00  0.00    +0.000 A 
ATOM     15  S   UNL     1       3.992   5.176  18.757  0.00  0.00    +0.000 S 
ATOM     16  C   UNL     1       4.190   6.188  17.393  0.00  0.00    +0.000 A 
ATOM     17  C   UNL     1       3.610   7.423  17.618  0.00  0.00    +0.000 A 
ATOM     18  C   UNL     1       2.790   7.440  18.800  0.00  0.00    +0.000 A 
ATOM     19  C   UNL     1       1.991   8.456  19.370  0.00  0.00    +0.000 A 
BRANCH  16  20
ATOM     20  C   UNL     1       4.959   5.695  16.199  0.00  0.00    +0.000 C 
BRANCH  20  21
ATOM     21  N   UNL     1       6.413   5.929  16.213  0.00  0.00    +0.000 NA
ATOM     22  C   UNL     1       7.237   4.728  16.356  0.00  0.00    +0.000 C 
ATOM     23  C   UNL     1       7.608   4.650  17.825  0.00  0.00    +0.000 C 
ATOM     24  C   UNL     1       7.672   6.101  18.267  0.00  0.00    +0.000 C 
ATOM     25  C   UNL     1       6.898   6.888  17.211  0.00  0.00    +0.000 C 
ENDBRANCH  20  21
ENDBRANCH  16  20
ENDBRANCH  10  11
BRANCH   5  26
ATOM     26  C   UNL     1      -3.047  14.086  22.406  0.00  0.00    +0.000 A 
ATOM     27  C   UNL     1      -3.004  14.829  23.597  0.00  0.00    +0.000 A 
ATOM     28  C   UNL     1      -3.840  15.935  23.774  0.00  0.00    +0.000 A 
ATOM     29  C   UNL     1      -4.725  16.306  22.764  0.00  0.00    +0.000 A 
ATOM     30 CL   UNL     1      -5.762  17.659  22.986  0.00  0.00    +0.000 Cl
ATOM     31  C   UNL     1      -4.775  15.589  21.574  0.00  0.00    +0.000 A 
ATOM     32  C   UNL     1      -3.937  14.490  21.393  0.00  0.00    +0.000 A 
ENDBRANCH   5  26
TORSDOF 4
ENDMDL
MODEL 3
REMARK VINA RESULT:      -8.4      3.402      4.236
REMARK  Name = 
REMARK  4 active torsions:
REMARK  status: ('A' for Active; 'I' for Inactive)
REMARK    1  A    between atoms: C_5  and  C_6
REMARK    2  A    between atoms: N_17  and  C_18
REMARK    3  A    between atoms: C_23  and  C_24
REMARK    4  A    between atoms: C_24  and  N_25
REMARK                            x       y       z     vdW  Elec       q    Type
REMARK                         _______ _______ _______ _____ _____    ______ ____
ROOT
ATOM      1  O   UNL     1       1.448   7.479  21.036  0.00  0.00    +0.000 OA
ATOM      2  C   UNL     1       1.383   8.424  20.252  0.00  0.00    +0.000 A 
ATOM      3  C   UNL     1       0.775   9.680  20.567  0.00  0.00    +0.000 A 
ATOM      4  S   UNL     1       0.098  10.039  22.065  0.00  0.00    +0.000 S 
ATOM      5  C   UNL     1      -0.406  11.599  21.528  0.00  0.00    +0.000 A 
ATOM      6  C   UNL     1       0.008  11.836  20.219  0.00  0.00    +0.000 A 
ATOM      7  C   UNL     1       0.701  10.722  19.693  0.00  0.00    +0.000 A 
ATOM      8  N   UNL     1       1.250  10.673  18.408  0.00  0.00    +0.000 NA
ATOM      9  C   UNL     1       1.819   9.539  18.136  0.00  0.00    +0.000 A 
ATOM     10  N   UNL     1       1.915   8.423  18.962  0.00  0.00    +0.000 N 
ENDROOT
BRANCH  10  11
ATOM     11  C   UNL     1       2.565   7.263  18.477  0.00  0.00    +0.000 A 
ATOM     12  C   UNL     1       2.267   6.033  19.059  0.00  0.00    +0.000 A 
ATOM     13  C   UNL     1       2.976   4.895  18.701  0.00  0.00    +0.000 A 
ATOM     14  C   UNL     1       3.992   5.018  17.744  0.00  0.00    +0.000 A 
ATOM     15  S   UNL     1       5.120   3.813  17.311  0.00  0.00    +0.000 S 
ATOM     16  C   UNL     1       5.605   4.672  15.916  0.00  0.00    +0.000 A 
ATOM     17  C   UNL     1       5.168   5.984  15.978  0.00  0.00    +0.000 A 
ATOM     18  C   UNL     1       4.225   6.200  17.043  0.00  0.00    +0.000 A 
ATOM     19  C   UNL     1       3.504   7.351  17.434  0.00  0.00    +0.000 A 
BRANCH  16  20
ATOM     20  C   UNL     1       6.438   3.989  14.867  0.00  0.00    +0.000 C 
BRANCH  20  21
ATOM     21  N   UNL     1       6.179   4.377  13.469  0.00  0.00    +0.000 NA
ATOM     22  C   UNL     1       5.117   3.625  12.800  0.00  0.00    +0.000 C 
ATOM     23  C   UNL     1       5.816   2.554  11.985  0.00  0.00    +0.000 C 
ATOM     24  C   UNL     1       7.141   3.188  11.601  0.00  0.00    +0.000 C 
ATOM     25  C   UNL     1       7.338   4.351  12.572  0.00  0.00    +0.000 C 
ENDBRANCH  20  21
ENDBRANCH  16  20
ENDBRANCH  10  11
BRANCH   5  26
ATOM     26  C   UNL     1      -1.137  12.479  22.448  0.00  0.00    +0.000 A 
ATOM     27  C   UNL     1      -0.652  13.764  22.739  0.00  0.00    +0.000 A 
ATOM     28  C   UNL     1      -1.334  14.595  23.632  0.00  0.00    +0.000 A 
ATOM     29  C   UNL     1      -2.506  14.149  24.239  0.00  0.00    +0.000 A 
ATOM     30 CL   UNL     1      -3.340  15.166  25.346  0.00  0.00    +0.000 Cl
ATOM     31  C   UNL     1      -3.007  12.884  23.956  0.00  0.00    +0.000 A 
ATOM     32  C   UNL     1      -2.332  12.056  23.061  0.00  0.00    +0.000 A 
ENDBRANCH   5  26
TORSDOF 4
ENDMDL
MODEL 4
REMARK VINA RESULT:      -8.2      2.042      2.893
REMARK  Name = 
REMARK  4 active torsions:
REMARK  status: ('A' for Active; 'I' for Inactive)
REMARK    1  A    between atoms: C_5  and  C_6
REMARK    2  A    between atoms: N_17  and  C_18
REMARK    3  A    between atoms: C_23  and  C_24
REMARK    4  A    between atoms: C_24  and  N_25
REMARK                            x       y       z     vdW  Elec       q    Type
REMARK                         _______ _______ _______ _____ _____    ______ ____
ROOT
ATOM      1  O   UNL     1       0.754   9.967  22.364  0.00  0.00    +0.000 OA
ATOM      2  C   UNL     1       0.084  10.389  21.425  0.00  0.00    +0.000 A 
ATOM      3  C   UNL     1      -0.806  11.505  21.518  0.00  0.00    +0.000 A 
ATOM      4  S   UNL     1      -1.026  12.408  22.921  0.00  0.00    +0.000 S 
ATOM      5  C   UNL     1      -2.223  13.394  22.168  0.00  0.00    +0.000 A 
ATOM      6  C   UNL     1      -2.391  13.046  20.829  0.00  0.00    +0.000 A 
ATOM      7  C   UNL     1      -1.550  11.966  20.475  0.00  0.00    +0.000 A 
ATOM      8  N   UNL     1      -1.485  11.408  19.194  0.00  0.00    +0.000 NA
ATOM      9  C   UNL     1      -0.661  10.411  19.110  0.00  0.00    +0.000 A 
ATOM     10  N   UNL     1       0.115   9.867  20.131  0.00  0.00    +0.000 N 
ENDROOT
BRANCH  10  11
ATOM     11  C   UNL     1       0.948   8.759  19.845  0.00  0.00    +0.000 A 
ATOM     12  C   UNL     1       0.995   7.703  20.752  0.00  0.00    +0.000 A 
ATOM     13  C   UNL     1       1.894   6.662  20.573  0.00  0.00    +0.000 A 
ATOM     14  C   UNL     1       2.748   6.703  19.463  0.00  0.00    +0.000 A 
ATOM     15  S   UNL     1       4.060   5.656  19.161  0.00  0.00    +0.000 S 
ATOM     16  C   UNL     1       4.189   6.174  17.537  0.00  0.00    +0.000 A 
ATOM     17  C   UNL     1       3.483   7.348  17.346  0.00  0.00    +0.000 A 
ATOM     18  C   UNL     1       2.637   7.670  18.465  0.00  0.00    +0.000 A 
ATOM     19  C   UNL     1       1.726   8.730  18.674  0.00  0.00    +0.000 A 
BRANCH  16  20
ATOM     20  C   UNL     1       5.033   5.396  16.566  0.00  0.00    +0.000 C 
BRANCH  20  21
ATOM     21  N   UNL     1       6.461   5.752  16.506  0.00  0.00    +0.000 NA
ATOM     22  C   UNL     1       7.384   4.704  16.943  0.00  0.00    +0.000 C 
ATOM     23  C   UNL     1       7.741   5.036  18.380  0.00  0.00    +0.000 C 
ATOM     24  C   UNL     1       7.673   6.552  18.436  0.00  0.00    +0.000 C 
ATOM     25  C   UNL     1       6.847   6.973  17.222  0.00  0.00    +0.000 C 
ENDBRANCH  20  21
ENDBRANCH  16  20
ENDBRANCH  10  11
BRANCH   5  26
ATOM     26  C   UNL     1      -2.878  14.455  22.943  0.00  0.00    +0.000 A 
ATOM     27  C   UNL     1      -2.634  14.583  24.320  0.00  0.00    +0.000 A 
ATOM     28  C   UNL     1      -3.273  15.579  25.065  0.00  0.00    +0.000 A 
ATOM     29  C   UNL     1      -4.159  16.453  24.439  0.00  0.00    +0.000 A 
ATOM     30 CL   UNL     1      -4.954  17.671  25.356  0.00  0.00    +0.000 Cl
ATOM     31  C   UNL     1      -4.406  16.349  23.075  0.00  0.00    +0.000 A 
ATOM     32  C   UNL     1      -3.764  15.361  22.330  0.00  0.00    +0.000 A 
ENDBRANCH   5  26
TORSDOF 4
ENDMDL
MODEL 5
REMARK VINA RESULT:      -8.1      4.340     11.410
REMARK  Name = 
REMARK  4 active torsions:
REMARK  status: ('A' for Active; 'I' for Inactive)
REMARK    1  A    between atoms: C_5  and  C_6
REMARK    2  A    between atoms: N_17  and  C_18
REMARK    3  A    between atoms: C_23  and  C_24
REMARK    4  A    between atoms: C_24  and  N_25
REMARK                            x       y       z     vdW  Elec       q    Type
REMARK                         _______ _______ _______ _____ _____    ______ ____
ROOT
ATOM      1  O   UNL     1       0.549  11.362  18.467  0.00  0.00    +0.000 OA
ATOM      2  C   UNL     1       0.626  10.529  19.368  0.00  0.00    +0.000 A 
ATOM      3  C   UNL     1       1.353   9.302  19.259  0.00  0.00    +0.000 A 
ATOM      4  S   UNL     1       2.228   8.854  17.893  0.00  0.00    +0.000 S 
ATOM      5  C   UNL     1       2.656   7.337  18.594  0.00  0.00    +0.000 A 
ATOM      6  C   UNL     1       2.162   7.227  19.893  0.00  0.00    +0.000 A 
ATOM      7  C   UNL     1       1.430   8.380  20.259  0.00  0.00    +0.000 A 
ATOM      8  N   UNL     1       0.830   8.566  21.508  0.00  0.00    +0.000 NA
ATOM      9  C   UNL     1       0.190   9.690  21.608  0.00  0.00    +0.000 A 
ATOM     10  N   UNL     1       0.046  10.669  20.629  0.00  0.00    +0.000 N 
ENDROOT
BRANCH  10  11
ATOM     11  C   UNL     1      -0.710  11.829  20.924  0.00  0.00    +0.000 A 
ATOM     12  C   UNL     1      -2.000  11.939  20.409  0.00  0.00    +0.000 A 
ATOM     13  C   UNL     1      -2.722  13.113  20.567  0.00  0.00    +0.000 A 
ATOM     14  C   UNL     1      -2.121  14.177  21.253  0.00  0.00    +0.000 A 
ATOM     15  S   UNL     1      -2.731  15.766  21.380  0.00  0.00    +0.000 S 
ATOM     16  C   UNL     1      -1.635  16.158  22.633  0.00  0.00    +0.000 A 
ATOM     17  C   UNL     1      -0.621  15.219  22.700  0.00  0.00    +0.000 A 
ATOM     18  C   UNL     1      -0.891  14.057  21.898  0.00  0.00    +0.000 A 
ATOM     19  C   UNL     1      -0.165  12.859  21.711  0.00  0.00    +0.000 A 
BRANCH  16  20
ATOM     20  C   UNL     1      -1.836  17.411  23.439  0.00  0.00    +0.000 C 
BRANCH  20  21
ATOM     21  N   UNL     1      -2.446  17.244  24.770  0.00  0.00    +0.000 NA
ATOM     22  C   UNL     1      -1.502  17.202  25.887  0.00  0.00    +0.000 C 
ATOM     23  C   UNL     1      -1.297  15.733  26.205  0.00  0.00    +0.000 C 
ATOM     24  C   UNL     1      -2.624  15.089  25.846  0.00  0.00    +0.000 C 
ATOM     25  C   UNL     1      -3.331  16.085  24.927  0.00  0.00    +0.000 C 
ENDBRANCH  20  21
ENDBRANCH  16  20
ENDBRANCH  10  11
BRANCH   5  26
ATOM     26  C   UNL     1       3.472   6.390  17.825  0.00  0.00    +0.000 A 
ATOM     27  C   UNL     1       4.520   6.851  17.013  0.00  0.00    +0.000 A 
ATOM     28  C   UNL     1       5.285   5.953  16.262  0.00  0.00    +0.000 A 
ATOM     29  C   UNL     1       5.007   4.589  16.317  0.00  0.00    +0.000 A 
ATOM     30 CL   UNL     1       5.939   3.486  15.386  0.00  0.00    +0.000 Cl
ATOM     31  C   UNL     1       3.980   4.112  17.124  0.00  0.00    +0.000 A 
ATOM     32  C   UNL     1       3.222   5.006  17.879  0.00  0.00    +0.000 A 
ENDBRANCH   5  26
TORSDOF 4
ENDMDL
MODEL 6
REMARK VINA RESULT:      -8.1      0.802      1.230
REMARK  Name = 
REMARK  4 active torsions:
REMARK  status: ('A' for Active; 'I' for Inactive)
REMARK    1  A    between atoms: C_5  and  C_6
REMARK    2  A    between atoms: N_17  and  C_18
REMARK    3  A    between atoms: C_23  and  C_24
REMARK    4  A    between atoms: C_24  and  N_25
REMARK                            x       y       z     vdW  Elec       q    Type
REMARK                         _______ _______ _______ _____ _____    ______ ____
ROOT
ATOM      1  O   UNL     1       0.783  11.023  22.053  0.00  0.00    +0.000 OA
ATOM      2  C   UNL     1      -0.033  11.393  21.212  0.00  0.00    +0.000 A 
ATOM      3  C   UNL     1      -1.014  12.408  21.444  0.00  0.00    +0.000 A 
ATOM      4  S   UNL     1      -1.156  13.254  22.892  0.00  0.00    +0.000 S 
ATOM      5  C   UNL     1      -2.527  14.126  22.314  0.00  0.00    +0.000 A 
ATOM      6  C   UNL     1      -2.817  13.789  20.994  0.00  0.00    +0.000 A 
ATOM      7  C   UNL     1      -1.920  12.810  20.510  0.00  0.00    +0.000 A 
ATOM      8  N   UNL     1      -1.951  12.288  19.213  0.00  0.00    +0.000 NA
ATOM      9  C   UNL     1      -1.046  11.383  19.002  0.00  0.00    +0.000 A 
ATOM     10  N   UNL     1      -0.104  10.903  19.907  0.00  0.00    +0.000 N 
ENDROOT
BRANCH  10  11
ATOM     11  C   UNL     1       0.796   9.893  19.491  0.00  0.00    +0.000 A 
ATOM     12  C   UNL     1       1.464  10.046  18.278  0.00  0.00    +0.000 A 
ATOM     13  C   UNL     1       2.253   9.022  17.775  0.00  0.00    +0.000 A 
ATOM     14  C   UNL     1       2.358   7.837  18.517  0.00  0.00    +0.000 A 
ATOM     15  S   UNL     1       3.090   6.386  17.999  0.00  0.00    +0.000 S 
ATOM     16  C   UNL     1       3.101   5.746  19.584  0.00  0.00    +0.000 A 
ATOM     17  C   UNL     1       2.260   6.476  20.406  0.00  0.00    +0.000 A 
ATOM     18  C   UNL     1       1.818   7.701  19.794  0.00  0.00    +0.000 A 
ATOM     19  C   UNL     1       1.005   8.749  20.281  0.00  0.00    +0.000 A 
BRANCH  16  20
ATOM     20  C   UNL     1       3.915   4.521  19.893  0.00  0.00    +0.000 C 
BRANCH  20  21
ATOM     21  N   UNL     1       3.182   3.244  19.947  0.00  0.00    +0.000 NA
ATOM     22  C   UNL     1       3.934   2.074  19.491  0.00  0.00    +0.000 C 
ATOM     23  C   UNL     1       3.502   1.836  18.056  0.00  0.00    +0.000 C 
ATOM     24  C   UNL     1       2.062   2.316  18.019  0.00  0.00    +0.000 C 
ATOM     25  C   UNL     1       1.895   3.213  19.245  0.00  0.00    +0.000 C 
ENDBRANCH  20  21
ENDBRANCH  16  20
ENDBRANCH  10  11
BRANCH   5  26
ATOM     26  C   UNL     1      -3.189  15.097  23.194  0.00  0.00    +0.000 A 
ATOM     27  C   UNL     1      -4.590  15.154  23.264  0.00  0.00    +0.000 A 
ATOM     28  C   UNL     1      -5.222  16.093  24.085  0.00  0.00    +0.000 A 
ATOM     29  C   UNL     1      -4.459  16.981  24.840  0.00  0.00    +0.000 A 
ATOM     30 CL   UNL     1      -5.236  18.144  25.840  0.00  0.00    +0.000 Cl
ATOM     31  C   UNL     1      -3.071  16.934  24.792  0.00  0.00    +0.000 A 
ATOM     32  C   UNL     1      -2.439  15.993  23.980  0.00  0.00    +0.000 A 
ENDBRANCH   5  26
TORSDOF 4
ENDMDL
MODEL 7
REMARK VINA RESULT:      -8.1      3.675      4.698
REMARK  Name = 
REMARK  4 active torsions:
REMARK  status: ('A' for Active; 'I' for Inactive)
REMARK    1  A    between atoms: C_5  and  C_6
REMARK    2  A    between atoms: N_17  and  C_18
REMARK    3  A    between atoms: C_23  and  C_24
REMARK    4  A    between atoms: C_24  and  N_25
REMARK                            x       y       z     vdW  Elec       q    Type
REMARK                         _______ _______ _______ _____ _____    ______ ____
ROOT
ATOM      1  O   UNL     1       1.754   9.302  17.424  0.00  0.00    +0.000 OA
ATOM      2  C   UNL     1       1.604   9.063  18.621  0.00  0.00    +0.000 A 
ATOM      3  C   UNL     1       0.980   9.962  19.541  0.00  0.00    +0.000 A 
ATOM      4  S   UNL     1       0.337  11.454  19.098  0.00  0.00    +0.000 S 
ATOM      5  C   UNL     1      -0.087  11.819  20.729  0.00  0.00    +0.000 A 
ATOM      6  C   UNL     1       0.223  10.759  21.579  0.00  0.00    +0.000 A 
ATOM      7  C   UNL     1       0.820   9.694  20.867  0.00  0.00    +0.000 A 
ATOM      8  N   UNL     1       1.224   8.489  21.449  0.00  0.00    +0.000 NA
ATOM      9  C   UNL     1       1.770   7.669  20.605  0.00  0.00    +0.000 A 
ATOM     10  N   UNL     1       1.989   7.877  19.247  0.00  0.00    +0.000 N 
ENDROOT
BRANCH  10  11
ATOM     11  C   UNL     1       2.620   6.861  18.489  0.00  0.00    +0.000 A 
ATOM     12  C   UNL     1       2.089   5.573  18.517  0.00  0.00    +0.000 A 
ATOM     13  C   UNL     1       2.751   4.525  17.894  0.00  0.00    +0.000 A 
ATOM     14  C   UNL     1       3.961   4.797  17.242  0.00  0.00    +0.000 A 
ATOM     15  S   UNL     1       5.040   3.643  16.599  0.00  0.00    +0.000 S 
ATOM     16  C   UNL     1       5.900   4.834  15.724  0.00  0.00    +0.000 A 
ATOM     17  C   UNL     1       5.583   6.098  16.187  0.00  0.00    +0.000 A 
ATOM     18  C   UNL     1       4.452   6.092  17.076  0.00  0.00    +0.000 A 
ATOM     19  C   UNL     1       3.771   7.142  17.731  0.00  0.00    +0.000 A 
BRANCH  16  20
ATOM     20  C   UNL     1       6.877   4.422  14.658  0.00  0.00    +0.000 C 
BRANCH  20  21
ATOM     21  N   UNL     1       6.454   4.635  13.263  0.00  0.00    +0.000 NA
ATOM     22  C   UNL     1       5.267   3.886  12.850  0.00  0.00    +0.000 C 
ATOM     23  C   UNL     1       5.782   2.660  12.118  0.00  0.00    +0.000 C 
ATOM     24  C   UNL     1       7.078   3.128  11.481  0.00  0.00    +0.000 C 
ATOM     25  C   UNL     1       7.477   4.393  12.240  0.00  0.00    +0.000 C 
ENDBRANCH  20  21
ENDBRANCH  16  20
ENDBRANCH  10  11
BRANCH   5  26
ATOM     26  C   UNL     1      -0.724  13.105  21.039  0.00  0.00    +0.000 A 
ATOM     27  C   UNL     1      -1.258  13.345  22.315  0.00  0.00    +0.000 A 
ATOM     28  C   UNL     1      -1.885  14.561  22.606  0.00  0.00    +0.000 A 
ATOM     29  C   UNL     1      -1.981  15.544  21.625  0.00  0.00    +0.000 A 
ATOM     30 CL   UNL     1      -2.761  17.035  21.977  0.00  0.00    +0.000 Cl
ATOM     31  C   UNL     1      -1.450  15.330  20.358  0.00  0.00    +0.000 A 
ATOM     32  C   UNL     1      -0.818  14.121  20.069  0.00  0.00    +0.000 A 
ENDBRANCH   5  26
TORSDOF 4
ENDMDL
MODEL 8
REMARK VINA RESULT:      -8.1      2.039      2.957
REMARK  Name = 
REMARK  4 active torsions:
REMARK  status: ('A' for Active; 'I' for Inactive)
REMARK    1  A    between atoms: C_5  and  C_6
REMARK    2  A    between atoms: N_17  and  C_18
REMARK    3  A    between atoms: C_23  and  C_24
REMARK    4  A    between atoms: C_24  and  N_25
REMARK                            x       y       z     vdW  Elec       q    Type
REMARK                         _______ _______ _______ _____ _____    ______ ____
ROOT
ATOM      1  O   UNL     1      -0.577  10.550  18.863  0.00  0.00    +0.000 OA
ATOM      2  C   UNL     1      -0.403  10.485  20.078  0.00  0.00    +0.000 A 
ATOM      3  C   UNL     1      -1.166  11.226  21.034  0.00  0.00    +0.000 A 
ATOM      4  S   UNL     1      -2.427  12.261  20.620  0.00  0.00    +0.000 S 
ATOM      5  C   UNL     1      -2.669  12.716  22.266  0.00  0.00    +0.000 A 
ATOM      6  C   UNL     1      -1.810  12.019  23.112  0.00  0.00    +0.000 A 
ATOM      7  C   UNL     1      -0.966  11.153  22.379  0.00  0.00    +0.000 A 
ATOM      8  N   UNL     1      -0.011  10.312  22.958  0.00  0.00    +0.000 NA
ATOM      9  C   UNL     1       0.664   9.626  22.087  0.00  0.00    +0.000 A 
ATOM     10  N   UNL     1       0.536   9.661  20.702  0.00  0.00    +0.000 N 
ENDROOT
BRANCH  10  11
ATOM     11  C   UNL     1       1.381   8.845  19.912  0.00  0.00    +0.000 A 
ATOM     12  C   UNL     1       1.666   9.237  18.606  0.00  0.00    +0.000 A 
ATOM     13  C   UNL     1       2.382   8.402  17.761  0.00  0.00    +0.000 A 
ATOM     14  C   UNL     1       2.807   7.161  18.255  0.00  0.00    +0.000 A 
ATOM     15  S   UNL     1       3.507   5.901  17.344  0.00  0.00    +0.000 S 
ATOM     16  C   UNL     1       4.022   5.078  18.751  0.00  0.00    +0.000 A 
ATOM     17  C   UNL     1       3.375   5.576  19.867  0.00  0.00    +0.000 A 
ATOM     18  C   UNL     1       2.660   6.794  19.592  0.00  0.00    +0.000 A 
ATOM     19  C   UNL     1       1.914   7.651  20.431  0.00  0.00    +0.000 A 
BRANCH  16  20
ATOM     20  C   UNL     1       5.007   3.948  18.640  0.00  0.00    +0.000 C 
BRANCH  20  21
ATOM     21  N   UNL     1       6.428   4.325  18.548  0.00  0.00    +0.000 NA
ATOM     22  C   UNL     1       6.787   5.574  19.219  0.00  0.00    +0.000 C 
ATOM     23  C   UNL     1       6.817   6.636  18.136  0.00  0.00    +0.000 C 
ATOM     24  C   UNL     1       7.245   5.880  16.890  0.00  0.00    +0.000 C 
ATOM     25  C   UNL     1       6.982   4.405  17.192  0.00  0.00    +0.000 C 
ENDBRANCH  20  21
ENDBRANCH  16  20
ENDBRANCH  10  11
BRANCH   5  26
ATOM     26  C   UNL     1      -3.709  13.698  22.598  0.00  0.00    +0.000 A 
ATOM     27  C   UNL     1      -4.913  13.730  21.877  0.00  0.00    +0.000 A 
ATOM     28  C   UNL     1      -5.895  14.678  22.177  0.00  0.00    +0.000 A 
ATOM     29  C   UNL     1      -5.682  15.601  23.199  0.00  0.00    +0.000 A 
ATOM     30 CL   UNL     1      -6.884  16.775  23.561  0.00  0.00    +0.000 Cl
ATOM     31  C   UNL     1      -4.500  15.579  23.931  0.00  0.00    +0.000 A 
ATOM     32  C   UNL     1      -3.523  14.629  23.638  0.00  0.00    +0.000 A 
ENDBRANCH   5  26
TORSDOF 4
ENDMDL
MODEL 9
REMARK VINA RESULT:      -7.9      4.316     11.475
REMARK  Name = 
REMARK  4 active torsions:
REMARK  status: ('A' for Active; 'I' for Inactive)
REMARK    1  A    between atoms: C_5  and  C_6
REMARK    2  A    between atoms: N_17  and  C_18
REMARK    3  A    between atoms: C_23  and  C_24
REMARK    4  A    between atoms: C_24  and  N_25
REMARK                            x       y       z     vdW  Elec       q    Type
REMARK                         _______ _______ _______ _____ _____    ______ ____
ROOT
ATOM      1  O   UNL     1      -0.680  11.959  19.830  0.00  0.00    +0.000 OA
ATOM      2  C   UNL     1      -0.444  11.146  20.721  0.00  0.00    +0.000 A 
ATOM      3  C   UNL     1       0.348   9.970  20.537  0.00  0.00    +0.000 A 
ATOM      4  S   UNL     1       1.089   9.562  19.082  0.00  0.00    +0.000 S 
ATOM      5  C   UNL     1       1.698   8.088  19.739  0.00  0.00    +0.000 A 
ATOM      6  C   UNL     1       1.366   7.964  21.086  0.00  0.00    +0.000 A 
ATOM      7  C   UNL     1       0.603   9.070  21.527  0.00  0.00    +0.000 A 
ATOM      8  N   UNL     1       0.139   9.233  22.836  0.00  0.00    +0.000 NA
ATOM      9  C   UNL     1      -0.561  10.312  23.002  0.00  0.00    +0.000 A 
ATOM     10  N   UNL     1      -0.883  11.265  22.041  0.00  0.00    +0.000 N 
ENDROOT
BRANCH  10  11
ATOM     11  C   UNL     1      -1.678  12.376  22.414  0.00  0.00    +0.000 A 
ATOM     12  C   UNL     1      -1.081  13.427  23.105  0.00  0.00    +0.000 A 
ATOM     13  C   UNL     1      -1.851  14.470  23.601  0.00  0.00    +0.000 A 
ATOM     14  C   UNL     1      -3.236  14.435  23.388  0.00  0.00    +0.000 A 
ATOM     15  S   UNL     1      -4.388  15.485  24.080  0.00  0.00    +0.000 S 
ATOM     16  C   UNL     1      -5.605  14.975  22.993  0.00  0.00    +0.000 A 
ATOM     17  C   UNL     1      -5.231  13.801  22.363  0.00  0.00    +0.000 A 
ATOM     18  C   UNL     1      -3.848  13.473  22.586  0.00  0.00    +0.000 A 
ATOM     19  C   UNL     1      -3.050  12.411  22.104  0.00  0.00    +0.000 A 
BRANCH  16  20
ATOM     20  C   UNL     1      -6.883  15.759  22.877  0.00  0.00    +0.000 C 
BRANCH  20  21
ATOM     21  N   UNL     1      -6.980  16.688  21.738  0.00  0.00    +0.000 NA
ATOM     22  C   UNL     1      -7.824  16.234  20.633  0.00  0.00    +0.000 C 
ATOM     23  C   UNL     1      -6.879  15.651  19.599  0.00  0.00    +0.000 C 
ATOM     24  C   UNL     1      -5.605  16.460  19.765  0.00  0.00    +0.000 C 
ATOM     25  C   UNL     1      -5.707  17.110  21.145  0.00  0.00    +0.000 C 
ENDBRANCH  20  21
ENDBRANCH  16  20
ENDBRANCH  10  11
BRANCH   5  26
ATOM     26  C   UNL     1       2.483   7.187  18.886  0.00  0.00    +0.000 A 
ATOM     27  C   UNL     1       2.365   5.795  19.024  0.00  0.00    +0.000 A 
ATOM     28  C   UNL     1       3.128   4.935  18.229  0.00  0.00    +0.000 A 
ATOM     29  C   UNL     1       4.014   5.460  17.291  0.00  0.00    +0.000 A 
ATOM     30 CL   UNL     1       4.961   4.404  16.320  0.00  0.00    +0.000 Cl
ATOM     31  C   UNL     1       4.138   6.835  17.132  0.00  0.00    +0.000 A 
ATOM     32  C   UNL     1       3.372   7.694  17.919  0.00  0.00    +0.000 A 
ENDBRANCH   5  26
TORSDOF 4
ENDMDL
