MODEL 1
REMARK VINA RESULT:      -8.1      0.000      0.000
REMARK  Name = 
REMARK  11 active torsions:
REMARK  status: ('A' for Active; 'I' for Inactive)
REMARK    1  A    between atoms: C_1  and  C_2
REMARK    2  A    between atoms: C_2  and  O_3
REMARK    3  A    between atoms: O_3  and  C_4
REMARK    4  A    between atoms: C_7  and  N_8
REMARK    5  A    between atoms: N_8  and  C_9
REMARK    6  A    between atoms: C_17  and  S_18
REMARK    7  A    between atoms: S_18  and  N_21
REMARK    8  A    between atoms: N_21  and  C_22
REMARK    9  A    between atoms: C_25  and  O_26
REMARK   10  A    between atoms: O_26  and  C_27
REMARK   11  A    between atoms: C_27  and  C_28
REMARK                            x       y       z     vdW  Elec       q    Type
REMARK                         _______ _______ _______ _____ _____    ______ ____
ROOT
ATOM      1  C   UNL     1       2.568   5.517  20.003  0.00  0.00    +0.000 A 
ATOM      2  C   UNL     1       1.338   4.946  20.470  0.00  0.00    +0.000 A 
ATOM      3  C   UNL     1       0.969   3.601  20.307  0.00  0.00    +0.000 A 
ATOM      4  C   UNL     1       1.918   2.825  19.629  0.00  0.00    +0.000 A 
ATOM      5  N   UNL     1       1.855   1.528  19.309  0.00  0.00    +0.000 NA
ATOM      6  O   UNL     1       3.028   1.248  18.643  0.00  0.00    +0.000 OA
ATOM      7  N   UNL     1       3.830   2.362  18.541  0.00  0.00    +0.000 NA
ATOM      8  C   UNL     1       3.180   3.365  19.145  0.00  0.00    +0.000 A 
ATOM      9  C   UNL     1       3.534   4.720  19.328  0.00  0.00    +0.000 A 
ENDROOT
BRANCH   9  10
ATOM     10  S   UNL     1       5.077   5.322  18.741  0.00  0.00    +0.000 S 
ATOM     11  O   UNL     1       4.784   6.397  17.807  0.00  0.00    +0.000 OA
ATOM     12  O   UNL     1       5.944   5.587  19.862  0.00  0.00    +0.000 OA
BRANCH  10  13
ATOM     13  N   UNL     1       5.731   4.081  17.816  0.00  0.00    +0.000 N 
ATOM     14  H   UNL     1       6.326   3.443  18.342  0.00  0.00    +0.000 HD
BRANCH  13  15
ATOM     15  C   UNL     1       5.980   4.237  16.428  0.00  0.00    +0.000 A 
ATOM     16  C   UNL     1       7.217   4.720  16.009  0.00  0.00    +0.000 A 
ATOM     17  C   UNL     1       7.514   4.788  14.646  0.00  0.00    +0.000 A 
ATOM     18  C   UNL     1       6.595   4.336  13.697  0.00  0.00    +0.000 A 
ATOM     19  C   UNL     1       5.338   3.899  14.113  0.00  0.00    +0.000 A 
ATOM     20  C   UNL     1       5.027   3.854  15.483  0.00  0.00    +0.000 A 
BRANCH  18  21
ATOM     21  O   UNL     1       7.036   4.380  12.404  0.00  0.00    +0.000 OA
BRANCH  21  22
ATOM     22  C   UNL     1       6.394   3.488  11.490  0.00  0.00    +0.000 C 
ATOM     23  C   UNL     1       7.220   2.213  11.419  0.00  0.00    +0.000 C 
ENDBRANCH  21  22
ENDBRANCH  18  21
ENDBRANCH  13  15
ENDBRANCH  10  13
ENDBRANCH   9  10
BRANCH   1  24
ATOM     24  N   UNL     1       2.738   6.906  20.226  0.00  0.00    +0.000 N 
ATOM     25  H   UNL     1       3.500   7.152  20.860  0.00  0.00    +0.000 HD
BRANCH  24  29
ATOM     26  C   UNL     1       0.277  10.073  18.875  0.00  0.00    +0.000 A 
ATOM     27  C   UNL     1       1.150   9.432  17.999  0.00  0.00    +0.000 A 
ATOM     28  C   UNL     1       1.972   8.389  18.450  0.00  0.00    +0.000 A 
ATOM     29  C   UNL     1       1.940   7.983  19.789  0.00  0.00    +0.000 A 
ATOM     30  C   UNL     1       1.133   8.709  20.677  0.00  0.00    +0.000 A 
ATOM     31  C   UNL     1       0.309   9.746  20.228  0.00  0.00    +0.000 A 
BRANCH  26  32
ATOM     32  O   UNL     1      -0.569  10.994  18.318  0.00  0.00    +0.000 OA
BRANCH  32  34
ATOM     33  C   UNL     1      -0.456  13.372  18.611  0.00  0.00    +0.000 C 
ATOM     34  C   UNL     1      -0.959  12.061  19.189  0.00  0.00    +0.000 C 
ENDBRANCH  32  34
ENDBRANCH  26  32
ENDBRANCH  24  29
ENDBRANCH   1  24
TORSDOF 9
ENDMDL
MODEL 2
REMARK VINA RESULT:      -7.9      0.439      1.041
REMARK  Name = 
REMARK  11 active torsions:
REMARK  status: ('A' for Active; 'I' for Inactive)
REMARK    1  A    between atoms: C_1  and  C_2
REMARK    2  A    between atoms: C_2  and  O_3
REMARK    3  A    between atoms: O_3  and  C_4
REMARK    4  A    between atoms: C_7  and  N_8
REMARK    5  A    between atoms: N_8  and  C_9
REMARK    6  A    between atoms: C_17  and  S_18
REMARK    7  A    between atoms: S_18  and  N_21
REMARK    8  A    between atoms: N_21  and  C_22
REMARK    9  A    between atoms: C_25  and  O_26
REMARK   10  A    between atoms: O_26  and  C_27
REMARK   11  A    between atoms: C_27  and  C_28
REMARK                            x       y       z     vdW  Elec       q    Type
REMARK                         _______ _______ _______ _____ _____    ______ ____
ROOT
ATOM      1  C   UNL     1       2.552   5.515  20.047  0.00  0.00    +0.000 A 
ATOM      2  C   UNL     1       1.324   4.929  20.499  0.00  0.00    +0.000 A 
ATOM      3  C   UNL     1       0.967   3.582  20.318  0.00  0.00    +0.000 A 
ATOM      4  C   UNL     1       1.927   2.823  19.638  0.00  0.00    +0.000 A 
ATOM      5  N   UNL     1       1.876   1.529  19.303  0.00  0.00    +0.000 NA
ATOM      6  O   UNL     1       3.056   1.266  18.641  0.00  0.00    +0.000 OA
ATOM      7  N   UNL     1       3.849   2.388  18.557  0.00  0.00    +0.000 NA
ATOM      8  C   UNL     1       3.187   3.378  19.168  0.00  0.00    +0.000 A 
ATOM      9  C   UNL     1       3.529   4.734  19.369  0.00  0.00    +0.000 A 
ENDROOT
BRANCH   9  10
ATOM     10  S   UNL     1       5.070   5.356  18.799  0.00  0.00    +0.000 S 
ATOM     11  O   UNL     1       4.775   6.433  17.869  0.00  0.00    +0.000 OA
ATOM     12  O   UNL     1       5.925   5.623  19.929  0.00  0.00    +0.000 OA
BRANCH  10  13
ATOM     13  N   UNL     1       5.745   4.127  17.872  0.00  0.00    +0.000 N 
ATOM     14  H   UNL     1       6.375   3.516  18.391  0.00  0.00    +0.000 HD
BRANCH  13  15
ATOM     15  C   UNL     1       5.955   4.275  16.477  0.00  0.00    +0.000 A 
ATOM     16  C   UNL     1       7.183   4.749  16.021  0.00  0.00    +0.000 A 
ATOM     17  C   UNL     1       7.441   4.809  14.650  0.00  0.00    +0.000 A 
ATOM     18  C   UNL     1       6.494   4.357  13.730  0.00  0.00    +0.000 A 
ATOM     19  C   UNL     1       5.246   3.929  14.184  0.00  0.00    +0.000 A 
ATOM     20  C   UNL     1       4.974   3.892  15.562  0.00  0.00    +0.000 A 
BRANCH  18  21
ATOM     21  O   UNL     1       6.898   4.392  12.424  0.00  0.00    +0.000 OA
BRANCH  21  22
ATOM     22  C   UNL     1       6.934   3.136  11.743  0.00  0.00    +0.000 C 
ATOM     23  C   UNL     1       5.507   2.626  11.624  0.00  0.00    +0.000 C 
ENDBRANCH  21  22
ENDBRANCH  18  21
ENDBRANCH  13  15
ENDBRANCH  10  13
ENDBRANCH   9  10
BRANCH   1  24
ATOM     24  N   UNL     1       2.709   6.903  20.287  0.00  0.00    +0.000 N 
ATOM     25  H   UNL     1       3.420   7.144  20.980  0.00  0.00    +0.000 HD
BRANCH  24  29
ATOM     26  C   UNL     1       0.501  10.215  18.849  0.00  0.00    +0.000 A 
ATOM     27  C   UNL     1       0.349   9.780  20.163  0.00  0.00    +0.000 A 
ATOM     28  C   UNL     1       1.074   8.677  20.635  0.00  0.00    +0.000 A 
ATOM     29  C   UNL     1       1.952   7.985  19.793  0.00  0.00    +0.000 A 
ATOM     30  C   UNL     1       2.012   8.372  18.447  0.00  0.00    +0.000 A 
ATOM     31  C   UNL     1       1.294   9.476  17.975  0.00  0.00    +0.000 A 
BRANCH  26  32
ATOM     32  O   UNL     1      -0.154  11.370  18.515  0.00  0.00    +0.000 OA
BRANCH  32  34
ATOM     33  C   UNL     1      -2.530  11.670  18.646  0.00  0.00    +0.000 C 
ATOM     34  C   UNL     1      -1.215  11.741  19.402  0.00  0.00    +0.000 C 
ENDBRANCH  32  34
ENDBRANCH  26  32
ENDBRANCH  24  29
ENDBRANCH   1  24
TORSDOF 9
ENDMDL
MODEL 3
REMARK VINA RESULT:      -7.9      1.395      1.788
REMARK  Name = 
REMARK  11 active torsions:
REMARK  status: ('A' for Active; 'I' for Inactive)
REMARK    1  A    between atoms: C_1  and  C_2
REMARK    2  A    between atoms: C_2  and  O_3
REMARK    3  A    between atoms: O_3  and  C_4
REMARK    4  A    between atoms: C_7  and  N_8
REMARK    5  A    between atoms: N_8  and  C_9
REMARK    6  A    between atoms: C_17  and  S_18
REMARK    7  A    between atoms: S_18  and  N_21
REMARK    8  A    between atoms: N_21  and  C_22
REMARK    9  A    between atoms: C_25  and  O_26
REMARK   10  A    between atoms: O_26  and  C_27
REMARK   11  A    between atoms: C_27  and  C_28
REMARK                            x       y       z     vdW  Elec       q    Type
REMARK                         _______ _______ _______ _____ _____    ______ ____
ROOT
ATOM      1  C   UNL     1       2.909   5.462  18.183  0.00  0.00    +0.000 A 
ATOM      2  C   UNL     1       1.636   4.802  18.200  0.00  0.00    +0.000 A 
ATOM      3  C   UNL     1       1.448   3.434  18.456  0.00  0.00    +0.000 A 
ATOM      4  C   UNL     1       2.633   2.730  18.702  0.00  0.00    +0.000 A 
ATOM      5  N   UNL     1       2.785   1.427  18.962  0.00  0.00    +0.000 NA
ATOM      6  O   UNL     1       4.140   1.231  19.118  0.00  0.00    +0.000 OA
ATOM      7  N   UNL     1       4.843   2.404  18.955  0.00  0.00    +0.000 NA
ATOM      8  C   UNL     1       3.943   3.363  18.700  0.00  0.00    +0.000 A 
ATOM      9  C   UNL     1       4.108   4.742  18.447  0.00  0.00    +0.000 A 
ENDROOT
BRANCH   9  10
ATOM     10  S   UNL     1       5.709   5.466  18.473  0.00  0.00    +0.000 S 
ATOM     11  O   UNL     1       5.645   6.666  17.655  0.00  0.00    +0.000 OA
ATOM     12  O   UNL     1       6.163   5.573  19.837  0.00  0.00    +0.000 OA
BRANCH  10  13
ATOM     13  N   UNL     1       6.706   4.400  17.640  0.00  0.00    +0.000 N 
ATOM     14  H   UNL     1       7.602   4.230  18.096  0.00  0.00    +0.000 HD
BRANCH  13  15
ATOM     15  C   UNL     1       6.636   4.260  16.230  0.00  0.00    +0.000 A 
ATOM     16  C   UNL     1       5.642   3.456  15.676  0.00  0.00    +0.000 A 
ATOM     17  C   UNL     1       5.497   3.383  14.289  0.00  0.00    +0.000 A 
ATOM     18  C   UNL     1       6.314   4.142  13.450  0.00  0.00    +0.000 A 
ATOM     19  C   UNL     1       7.341   4.909  14.002  0.00  0.00    +0.000 A 
ATOM     20  C   UNL     1       7.506   4.964  15.396  0.00  0.00    +0.000 A 
BRANCH  18  21
ATOM     21  O   UNL     1       6.019   4.046  12.119  0.00  0.00    +0.000 OA
BRANCH  21  22
ATOM     22  C   UNL     1       5.341   2.857  11.709  0.00  0.00    +0.000 C 
ATOM     23  C   UNL     1       4.016   3.264  11.083  0.00  0.00    +0.000 C 
ENDBRANCH  21  22
ENDBRANCH  18  21
ENDBRANCH  13  15
ENDBRANCH  10  13
ENDBRANCH   9  10
BRANCH   1  24
ATOM     24  N   UNL     1       2.896   6.841  17.860  0.00  0.00    +0.000 N 
ATOM     25  H   UNL     1       3.542   7.117  17.118  0.00  0.00    +0.000 HD
BRANCH  24  29
ATOM     26  C   UNL     1       0.738   9.980  19.705  0.00  0.00    +0.000 A 
ATOM     27  C   UNL     1       1.114  10.070  18.366  0.00  0.00    +0.000 A 
ATOM     28  C   UNL     1       1.837   9.034  17.759  0.00  0.00    +0.000 A 
ATOM     29  C   UNL     1       2.206   7.898  18.489  0.00  0.00    +0.000 A 
ATOM     30  C   UNL     1       1.910   7.872  19.859  0.00  0.00    +0.000 A 
ATOM     31  C   UNL     1       1.185   8.902  20.465  0.00  0.00    +0.000 A 
BRANCH  26  32
ATOM     32  O   UNL     1      -0.067  10.982  20.175  0.00  0.00    +0.000 OA
BRANCH  32  34
ATOM     33  C   UNL     1      -0.919  11.305  22.394  0.00  0.00    +0.000 C 
ATOM     34  C   UNL     1       0.277  11.474  21.475  0.00  0.00    +0.000 C 
ENDBRANCH  32  34
ENDBRANCH  26  32
ENDBRANCH  24  29
ENDBRANCH   1  24
TORSDOF 9
ENDMDL
MODEL 4
REMARK VINA RESULT:      -7.8      0.823      1.546
REMARK  Name = 
REMARK  11 active torsions:
REMARK  status: ('A' for Active; 'I' for Inactive)
REMARK    1  A    between atoms: C_1  and  C_2
REMARK    2  A    between atoms: C_2  and  O_3
REMARK    3  A    between atoms: O_3  and  C_4
REMARK    4  A    between atoms: C_7  and  N_8
REMARK    5  A    between atoms: N_8  and  C_9
REMARK    6  A    between atoms: C_17  and  S_18
REMARK    7  A    between atoms: S_18  and  N_21
REMARK    8  A    between atoms: N_21  and  C_22
REMARK    9  A    between atoms: C_25  and  O_26
REMARK   10  A    between atoms: O_26  and  C_27
REMARK   11  A    between atoms: C_27  and  C_28
REMARK                            x       y       z     vdW  Elec       q    Type
REMARK                         _______ _______ _______ _____ _____    ______ ____
ROOT
ATOM      1  C   UNL     1       2.686   5.291  19.888  0.00  0.00    +0.000 A 
ATOM      2  C   UNL     1       1.404   4.760  20.249  0.00  0.00    +0.000 A 
ATOM      3  C   UNL     1       0.998   3.433  20.030  0.00  0.00    +0.000 A 
ATOM      4  C   UNL     1       1.966   2.634  19.410  0.00  0.00    +0.000 A 
ATOM      5  N   UNL     1       1.879   1.346  19.059  0.00  0.00    +0.000 NA
ATOM      6  O   UNL     1       3.088   1.032  18.478  0.00  0.00    +0.000 OA
ATOM      7  N   UNL     1       3.937   2.116  18.460  0.00  0.00    +0.000 NA
ATOM      8  C   UNL     1       3.281   3.132  19.034  0.00  0.00    +0.000 A 
ATOM      9  C   UNL     1       3.670   4.469  19.271  0.00  0.00    +0.000 A 
ENDROOT
BRANCH   9  10
ATOM     10  S   UNL     1       5.275   5.021  18.815  0.00  0.00    +0.000 S 
ATOM     11  O   UNL     1       5.636   6.083  19.740  0.00  0.00    +0.000 OA
ATOM     12  O   UNL     1       6.151   3.884  18.680  0.00  0.00    +0.000 OA
BRANCH  10  13
ATOM     13  N   UNL     1       5.096   5.763  17.318  0.00  0.00    +0.000 N 
ATOM     14  H   UNL     1       4.279   6.369  17.252  0.00  0.00    +0.000 HD
BRANCH  13  15
ATOM     15  C   UNL     1       5.584   5.167  16.127  0.00  0.00    +0.000 A 
ATOM     16  C   UNL     1       4.732   4.370  15.366  0.00  0.00    +0.000 A 
ATOM     17  C   UNL     1       5.165   3.855  14.143  0.00  0.00    +0.000 A 
ATOM     18  C   UNL     1       6.435   4.166  13.653  0.00  0.00    +0.000 A 
ATOM     19  C   UNL     1       7.306   4.923  14.437  0.00  0.00    +0.000 A 
ATOM     20  C   UNL     1       6.882   5.421  15.680  0.00  0.00    +0.000 A 
BRANCH  18  21
ATOM     21  O   UNL     1       6.709   3.669  12.409  0.00  0.00    +0.000 OA
BRANCH  21  22
ATOM     22  C   UNL     1       5.801   2.684  11.911  0.00  0.00    +0.000 C 
ATOM     23  C   UNL     1       6.610   1.634  11.166  0.00  0.00    +0.000 C 
ENDBRANCH  21  22
ENDBRANCH  18  21
ENDBRANCH  13  15
ENDBRANCH  10  13
ENDBRANCH   9  10
BRANCH   1  24
ATOM     24  N   UNL     1       2.891   6.668  20.152  0.00  0.00    +0.000 N 
ATOM     25  H   UNL     1       3.635   6.874  20.822  0.00  0.00    +0.000 HD
BRANCH  24  29
ATOM     26  C   UNL     1       0.721  10.070  18.877  0.00  0.00    +0.000 A 
ATOM     27  C   UNL     1       0.585   9.591  20.178  0.00  0.00    +0.000 A 
ATOM     28  C   UNL     1       1.297   8.457  20.596  0.00  0.00    +0.000 A 
ATOM     29  C   UNL     1       2.145   7.780  19.712  0.00  0.00    +0.000 A 
ATOM     30  C   UNL     1       2.188   8.216  18.380  0.00  0.00    +0.000 A 
ATOM     31  C   UNL     1       1.482   9.348  17.962  0.00  0.00    +0.000 A 
BRANCH  26  32
ATOM     32  O   UNL     1       0.081  11.248  18.598  0.00  0.00    +0.000 OA
BRANCH  32  34
ATOM     33  C   UNL     1      -2.097  10.850  17.676  0.00  0.00    +0.000 C 
ATOM     34  C   UNL     1      -1.316  11.266  18.910  0.00  0.00    +0.000 C 
ENDBRANCH  32  34
ENDBRANCH  26  32
ENDBRANCH  24  29
ENDBRANCH   1  24
TORSDOF 9
ENDMDL
MODEL 5
REMARK VINA RESULT:      -7.8      1.198      1.458
REMARK  Name = 
REMARK  11 active torsions:
REMARK  status: ('A' for Active; 'I' for Inactive)
REMARK    1  A    between atoms: C_1  and  C_2
REMARK    2  A    between atoms: C_2  and  O_3
REMARK    3  A    between atoms: O_3  and  C_4
REMARK    4  A    between atoms: C_7  and  N_8
REMARK    5  A    between atoms: N_8  and  C_9
REMARK    6  A    between atoms: C_17  and  S_18
REMARK    7  A    between atoms: S_18  and  N_21
REMARK    8  A    between atoms: N_21  and  C_22
REMARK    9  A    between atoms: C_25  and  O_26
REMARK   10  A    between atoms: O_26  and  C_27
REMARK   11  A    between atoms: C_27  and  C_28
REMARK                            x       y       z     vdW  Elec       q    Type
REMARK                         _______ _______ _______ _____ _____    ______ ____
ROOT
ATOM      1  C   UNL     1       3.131   5.583  18.598  0.00  0.00    +0.000 A 
ATOM      2  C   UNL     1       1.829   4.995  18.716  0.00  0.00    +0.000 A 
ATOM      3  C   UNL     1       1.586   3.631  18.947  0.00  0.00    +0.000 A 
ATOM      4  C   UNL     1       2.745   2.854  19.056  0.00  0.00    +0.000 A 
ATOM      5  N   UNL     1       2.845   1.535  19.260  0.00  0.00    +0.000 NA
ATOM      6  O   UNL     1       4.194   1.259  19.278  0.00  0.00    +0.000 OA
ATOM      7  N   UNL     1       4.946   2.397  19.085  0.00  0.00    +0.000 NA
ATOM      8  C   UNL     1       4.085   3.413  18.948  0.00  0.00    +0.000 A 
ATOM      9  C   UNL     1       4.305   4.789  18.724  0.00  0.00    +0.000 A 
ENDROOT
BRANCH   9  10
ATOM     10  S   UNL     1       5.942   5.421  18.618  0.00  0.00    +0.000 S 
ATOM     11  O   UNL     1       5.866   6.672  17.880  0.00  0.00    +0.000 OA
ATOM     12  O   UNL     1       6.541   5.418  19.929  0.00  0.00    +0.000 OA
BRANCH  10  13
ATOM     13  N   UNL     1       6.780   4.357  17.624  0.00  0.00    +0.000 N 
ATOM     14  H   UNL     1       7.714   4.126  17.960  0.00  0.00    +0.000 HD
BRANCH  13  15
ATOM     15  C   UNL     1       6.536   4.289  16.228  0.00  0.00    +0.000 A 
ATOM     16  C   UNL     1       7.442   4.881  15.350  0.00  0.00    +0.000 A 
ATOM     17  C   UNL     1       7.269   4.741  13.972  0.00  0.00    +0.000 A 
ATOM     18  C   UNL     1       6.217   3.978  13.463  0.00  0.00    +0.000 A 
ATOM     19  C   UNL     1       5.282   3.428  14.340  0.00  0.00    +0.000 A 
ATOM     20  C   UNL     1       5.439   3.588  15.727  0.00  0.00    +0.000 A 
BRANCH  18  21
ATOM     21  O   UNL     1       6.205   3.851  12.102  0.00  0.00    +0.000 OA
BRANCH  21  22
ATOM     22  C   UNL     1       5.432   2.769  11.578  0.00  0.00    +0.000 C 
ATOM     23  C   UNL     1       6.385   1.634  11.237  0.00  0.00    +0.000 C 
ENDBRANCH  21  22
ENDBRANCH  18  21
ENDBRANCH  13  15
ENDBRANCH  10  13
ENDBRANCH   9  10
BRANCH   1  24
ATOM     24  N   UNL     1       3.169   6.972  18.321  0.00  0.00    +0.000 N 
ATOM     25  H   UNL     1       4.012   7.295  17.841  0.00  0.00    +0.000 HD
BRANCH  24  29
ATOM     26  C   UNL     1       0.543  10.063  19.530  0.00  0.00    +0.000 A 
ATOM     27  C   UNL     1       0.986   9.112  20.446  0.00  0.00    +0.000 A 
ATOM     28  C   UNL     1       1.848   8.083  20.042  0.00  0.00    +0.000 A 
ATOM     29  C   UNL     1       2.268   7.984  18.710  0.00  0.00    +0.000 A 
ATOM     30  C   UNL     1       1.729   8.887  17.784  0.00  0.00    +0.000 A 
ATOM     31  C   UNL     1       0.873   9.918  18.185  0.00  0.00    +0.000 A 
BRANCH  26  32
ATOM     32  O   UNL     1      -0.196  11.096  20.041  0.00  0.00    +0.000 OA
BRANCH  32  34
ATOM     33  C   UNL     1       1.475  12.780  20.391  0.00  0.00    +0.000 C 
ATOM     34  C   UNL     1       0.460  11.866  21.054  0.00  0.00    +0.000 C 
ENDBRANCH  32  34
ENDBRANCH  26  32
ENDBRANCH  24  29
ENDBRANCH   1  24
TORSDOF 9
ENDMDL
MODEL 6
REMARK VINA RESULT:      -7.7      0.432      1.018
REMARK  Name = 
REMARK  11 active torsions:
REMARK  status: ('A' for Active; 'I' for Inactive)
REMARK    1  A    between atoms: C_1  and  C_2
REMARK    2  A    between atoms: C_2  and  O_3
REMARK    3  A    between atoms: O_3  and  C_4
REMARK    4  A    between atoms: C_7  and  N_8
REMARK    5  A    between atoms: N_8  and  C_9
REMARK    6  A    between atoms: C_17  and  S_18
REMARK    7  A    between atoms: S_18  and  N_21
REMARK    8  A    between atoms: N_21  and  C_22
REMARK    9  A    between atoms: C_25  and  O_26
REMARK   10  A    between atoms: O_26  and  C_27
REMARK   11  A    between atoms: C_27  and  C_28
REMARK                            x       y       z     vdW  Elec       q    Type
REMARK                         _______ _______ _______ _____ _____    ______ ____
ROOT
ATOM      1  C   UNL     1       2.607   5.630  19.981  0.00  0.00    +0.000 A 
ATOM      2  C   UNL     1       1.385   5.067  20.475  0.00  0.00    +0.000 A 
ATOM      3  C   UNL     1       1.030   3.712  20.372  0.00  0.00    +0.000 A 
ATOM      4  C   UNL     1       1.985   2.918  19.727  0.00  0.00    +0.000 A 
ATOM      5  N   UNL     1       1.935   1.607  19.466  0.00  0.00    +0.000 NA
ATOM      6  O   UNL     1       3.110   1.310  18.810  0.00  0.00    +0.000 OA
ATOM      7  N   UNL     1       3.900   2.427  18.656  0.00  0.00    +0.000 NA
ATOM      8  C   UNL     1       3.241   3.449  19.217  0.00  0.00    +0.000 A 
ATOM      9  C   UNL     1       3.580   4.814  19.339  0.00  0.00    +0.000 A 
ENDROOT
BRANCH   9  10
ATOM     10  S   UNL     1       5.115   5.406  18.722  0.00  0.00    +0.000 S 
ATOM     11  O   UNL     1       4.810   6.338  17.648  0.00  0.00    +0.000 OA
ATOM     12  O   UNL     1       5.932   5.852  19.822  0.00  0.00    +0.000 OA
BRANCH  10  13
ATOM     13  N   UNL     1       5.852   4.088  17.984  0.00  0.00    +0.000 N 
ATOM     14  H   UNL     1       6.472   3.564  18.599  0.00  0.00    +0.000 HD
BRANCH  13  15
ATOM     15  C   UNL     1       6.114   4.064  16.590  0.00  0.00    +0.000 A 
ATOM     16  C   UNL     1       5.277   3.329  15.754  0.00  0.00    +0.000 A 
ATOM     17  C   UNL     1       5.462   3.371  14.371  0.00  0.00    +0.000 A 
ATOM     18  C   UNL     1       6.455   4.179  13.812  0.00  0.00    +0.000 A 
ATOM     19  C   UNL     1       7.325   4.876  14.651  0.00  0.00    +0.000 A 
ATOM     20  C   UNL     1       7.157   4.814  16.045  0.00  0.00    +0.000 A 
BRANCH  18  21
ATOM     21  O   UNL     1       6.481   4.197  12.446  0.00  0.00    +0.000 OA
BRANCH  21  22
ATOM     22  C   UNL     1       5.956   3.039  11.791  0.00  0.00    +0.000 C 
ATOM     23  C   UNL     1       4.509   3.325  11.421  0.00  0.00    +0.000 C 
ENDBRANCH  21  22
ENDBRANCH  18  21
ENDBRANCH  13  15
ENDBRANCH  10  13
ENDBRANCH   9  10
BRANCH   1  24
ATOM     24  N   UNL     1       2.763   7.029  20.141  0.00  0.00    +0.000 N 
ATOM     25  H   UNL     1       3.544   7.312  20.735  0.00  0.00    +0.000 HD
BRANCH  24  29
ATOM     26  C   UNL     1       0.203  10.103  18.757  0.00  0.00    +0.000 A 
ATOM     27  C   UNL     1       1.097   9.482  17.888  0.00  0.00    +0.000 A 
ATOM     28  C   UNL     1       1.951   8.470  18.351  0.00  0.00    +0.000 A 
ATOM     29  C   UNL     1       1.931   8.076  19.693  0.00  0.00    +0.000 A 
ATOM     30  C   UNL     1       1.100   8.784  20.573  0.00  0.00    +0.000 A 
ATOM     31  C   UNL     1       0.243   9.790  20.113  0.00  0.00    +0.000 A 
BRANCH  26  32
ATOM     32  O   UNL     1      -0.672  10.991  18.191  0.00  0.00    +0.000 OA
BRANCH  32  34
ATOM     33  C   UNL     1      -0.537  13.321  18.739  0.00  0.00    +0.000 C 
ATOM     34  C   UNL     1      -1.180  11.990  19.081  0.00  0.00    +0.000 C 
ENDBRANCH  32  34
ENDBRANCH  26  32
ENDBRANCH  24  29
ENDBRANCH   1  24
TORSDOF 9
ENDMDL
MODEL 7
REMARK VINA RESULT:      -7.7      1.643      7.983
REMARK  Name = 
REMARK  11 active torsions:
REMARK  status: ('A' for Active; 'I' for Inactive)
REMARK    1  A    between atoms: C_1  and  C_2
REMARK    2  A    between atoms: C_2  and  O_3
REMARK    3  A    between atoms: O_3  and  C_4
REMARK    4  A    between atoms: C_7  and  N_8
REMARK    5  A    between atoms: N_8  and  C_9
REMARK    6  A    between atoms: C_17  and  S_18
REMARK    7  A    between atoms: S_18  and  N_21
REMARK    8  A    between atoms: N_21  and  C_22
REMARK    9  A    between atoms: C_25  and  O_26
REMARK   10  A    between atoms: O_26  and  C_27
REMARK   11  A    between atoms: C_27  and  C_28
REMARK                            x       y       z     vdW  Elec       q    Type
REMARK                         _______ _______ _______ _____ _____    ______ ____
ROOT
ATOM      1  C   UNL     1       4.749   4.090  19.104  0.00  0.00    +0.000 A 
ATOM      2  C   UNL     1       5.097   2.826  19.685  0.00  0.00    +0.000 A 
ATOM      3  C   UNL     1       4.289   2.109  20.582  0.00  0.00    +0.000 A 
ATOM      4  C   UNL     1       3.075   2.737  20.885  0.00  0.00    +0.000 A 
ATOM      5  N   UNL     1       2.106   2.318  21.707  0.00  0.00    +0.000 NA
ATOM      6  O   UNL     1       1.132   3.292  21.667  0.00  0.00    +0.000 OA
ATOM      7  N   UNL     1       1.482   4.323  20.823  0.00  0.00    +0.000 NA
ATOM      8  C   UNL     1       2.681   4.016  20.312  0.00  0.00    +0.000 A 
ATOM      9  C   UNL     1       3.507   4.715  19.405  0.00  0.00    +0.000 A 
ENDROOT
BRANCH   9  10
ATOM     10  S   UNL     1       2.982   6.249  18.726  0.00  0.00    +0.000 S 
ATOM     11  O   UNL     1       4.165   6.901  18.188  0.00  0.00    +0.000 OA
ATOM     12  O   UNL     1       1.852   6.025  17.859  0.00  0.00    +0.000 OA
BRANCH  10  13
ATOM     13  N   UNL     1       2.500   7.187  20.034  0.00  0.00    +0.000 N 
ATOM     14  H   UNL     1       2.506   6.691  20.923  0.00  0.00    +0.000 HD
BRANCH  13  15
ATOM     15  C   UNL     1       1.601   8.275  19.881  0.00  0.00    +0.000 A 
ATOM     16  C   UNL     1       1.590   8.983  18.681  0.00  0.00    +0.000 A 
ATOM     17  C   UNL     1       0.647   9.992  18.477  0.00  0.00    +0.000 A 
ATOM     18  C   UNL     1      -0.315  10.272  19.449  0.00  0.00    +0.000 A 
ATOM     19  C   UNL     1      -0.272   9.597  20.670  0.00  0.00    +0.000 A 
ATOM     20  C   UNL     1       0.692   8.599  20.888  0.00  0.00    +0.000 A 
BRANCH  18  21
ATOM     21  O   UNL     1      -1.230  11.224  19.096  0.00  0.00    +0.000 OA
BRANCH  21  22
ATOM     22  C   UNL     1      -1.742  11.142  17.764  0.00  0.00    +0.000 C 
ATOM     23  C   UNL     1      -2.849  10.099  17.751  0.00  0.00    +0.000 C 
ENDBRANCH  21  22
ENDBRANCH  18  21
ENDBRANCH  13  15
ENDBRANCH  10  13
ENDBRANCH   9  10
BRANCH   1  24
ATOM     24  N   UNL     1       5.719   4.677  18.254  0.00  0.00    +0.000 N 
ATOM     25  H   UNL     1       6.333   5.358  18.704  0.00  0.00    +0.000 HD
BRANCH  24  29
ATOM     26  C   UNL     1       6.275   4.190  14.086  0.00  0.00    +0.000 A 
ATOM     27  C   UNL     1       7.215   4.880  14.850  0.00  0.00    +0.000 A 
ATOM     28  C   UNL     1       7.024   5.048  16.229  0.00  0.00    +0.000 A 
ATOM     29  C   UNL     1       5.882   4.541  16.860  0.00  0.00    +0.000 A 
ATOM     30  C   UNL     1       4.900   3.943  16.058  0.00  0.00    +0.000 A 
ATOM     31  C   UNL     1       5.090   3.769  14.683  0.00  0.00    +0.000 A 
BRANCH  26  32
ATOM     32  O   UNL     1       6.606   3.972  12.776  0.00  0.00    +0.000 OA
BRANCH  32  34
ATOM     33  C   UNL     1       4.624   3.465  11.524  0.00  0.00    +0.000 C 
ATOM     34  C   UNL     1       5.892   2.905  12.142  0.00  0.00    +0.000 C 
ENDBRANCH  32  34
ENDBRANCH  26  32
ENDBRANCH  24  29
ENDBRANCH   1  24
TORSDOF 9
ENDMDL
MODEL 8
REMARK VINA RESULT:      -7.7      1.190      1.275
REMARK  Name = 
REMARK  11 active torsions:
REMARK  status: ('A' for Active; 'I' for Inactive)
REMARK    1  A    between atoms: C_1  and  C_2
REMARK    2  A    between atoms: C_2  and  O_3
REMARK    3  A    between atoms: O_3  and  C_4
REMARK    4  A    between atoms: C_7  and  N_8
REMARK    5  A    between atoms: N_8  and  C_9
REMARK    6  A    between atoms: C_17  and  S_18
REMARK    7  A    between atoms: S_18  and  N_21
REMARK    8  A    between atoms: N_21  and  C_22
REMARK    9  A    between atoms: C_25  and  O_26
REMARK   10  A    between atoms: O_26  and  C_27
REMARK   11  A    between atoms: C_27  and  C_28
REMARK                            x       y       z     vdW  Elec       q    Type
REMARK                         _______ _______ _______ _____ _____    ______ ____
ROOT
ATOM      1  C   UNL     1       3.181   5.657  18.443  0.00  0.00    +0.000 A 
ATOM      2  C   UNL     1       1.872   5.086  18.570  0.00  0.00    +0.000 A 
ATOM      3  C   UNL     1       1.612   3.756  18.941  0.00  0.00    +0.000 A 
ATOM      4  C   UNL     1       2.762   2.996  19.187  0.00  0.00    +0.000 A 
ATOM      5  N   UNL     1       2.847   1.709  19.542  0.00  0.00    +0.000 NA
ATOM      6  O   UNL     1       4.193   1.437  19.650  0.00  0.00    +0.000 OA
ATOM      7  N   UNL     1       4.958   2.546  19.364  0.00  0.00    +0.000 NA
ATOM      8  C   UNL     1       4.108   3.540  19.076  0.00  0.00    +0.000 A 
ATOM      9  C   UNL     1       4.345   4.882  18.708  0.00  0.00    +0.000 A 
ENDROOT
BRANCH   9  10
ATOM     10  S   UNL     1       5.987   5.499  18.603  0.00  0.00    +0.000 S 
ATOM     11  O   UNL     1       5.926   6.745  17.856  0.00  0.00    +0.000 OA
ATOM     12  O   UNL     1       6.581   5.501  19.917  0.00  0.00    +0.000 OA
BRANCH  10  13
ATOM     13  N   UNL     1       6.820   4.419  17.621  0.00  0.00    +0.000 N 
ATOM     14  H   UNL     1       7.756   4.195  17.954  0.00  0.00    +0.000 HD
BRANCH  13  15
ATOM     15  C   UNL     1       6.566   4.330  16.228  0.00  0.00    +0.000 A 
ATOM     16  C   UNL     1       7.454   4.927  15.336  0.00  0.00    +0.000 A 
ATOM     17  C   UNL     1       7.272   4.767  13.961  0.00  0.00    +0.000 A 
ATOM     18  C   UNL     1       6.231   3.977  13.470  0.00  0.00    +0.000 A 
ATOM     19  C   UNL     1       5.313   3.420  14.361  0.00  0.00    +0.000 A 
ATOM     20  C   UNL     1       5.478   3.601  15.745  0.00  0.00    +0.000 A 
BRANCH  18  21
ATOM     21  O   UNL     1       6.211   3.833  12.111  0.00  0.00    +0.000 OA
BRANCH  21  22
ATOM     22  C   UNL     1       5.820   2.548  11.620  0.00  0.00    +0.000 C 
ATOM     23  C   UNL     1       7.075   1.814  11.176  0.00  0.00    +0.000 C 
ENDBRANCH  21  22
ENDBRANCH  18  21
ENDBRANCH  13  15
ENDBRANCH  10  13
ENDBRANCH   9  10
BRANCH   1  24
ATOM     24  N   UNL     1       3.237   7.006  18.013  0.00  0.00    +0.000 N 
ATOM     25  H   UNL     1       3.989   7.219  17.355  0.00  0.00    +0.000 HD
BRANCH  24  29
ATOM     26  C   UNL     1       0.885  10.298  19.255  0.00  0.00    +0.000 A 
ATOM     27  C   UNL     1       1.574  10.337  18.045  0.00  0.00    +0.000 A 
ATOM     28  C   UNL     1       2.360   9.249  17.640  0.00  0.00    +0.000 A 
ATOM     29  C   UNL     1       2.479   8.113  18.448  0.00  0.00    +0.000 A 
ATOM     30  C   UNL     1       1.864   8.135  19.707  0.00  0.00    +0.000 A 
ATOM     31  C   UNL     1       1.075   9.217  20.112  0.00  0.00    +0.000 A 
BRANCH  26  32
ATOM     32  O   UNL     1       0.050  11.353  19.509  0.00  0.00    +0.000 OA
BRANCH  32  34
ATOM     33  C   UNL     1      -2.017  10.809  18.420  0.00  0.00    +0.000 C 
ATOM     34  C   UNL     1      -1.315  10.998  19.753  0.00  0.00    +0.000 C 
ENDBRANCH  32  34
ENDBRANCH  26  32
ENDBRANCH  24  29
ENDBRANCH   1  24
TORSDOF 9
ENDMDL
MODEL 9
REMARK VINA RESULT:      -7.6      1.608      8.166
REMARK  Name = 
REMARK  11 active torsions:
REMARK  status: ('A' for Active; 'I' for Inactive)
REMARK    1  A    between atoms: C_1  and  C_2
REMARK    2  A    between atoms: C_2  and  O_3
REMARK    3  A    between atoms: O_3  and  C_4
REMARK    4  A    between atoms: C_7  and  N_8
REMARK    5  A    between atoms: N_8  and  C_9
REMARK    6  A    between atoms: C_17  and  S_18
REMARK    7  A    between atoms: S_18  and  N_21
REMARK    8  A    between atoms: N_21  and  C_22
REMARK    9  A    between atoms: C_25  and  O_26
REMARK   10  A    between atoms: O_26  and  C_27
REMARK   11  A    between atoms: C_27  and  C_28
REMARK                            x       y       z     vdW  Elec       q    Type
REMARK                         _______ _______ _______ _____ _____    ______ ____
ROOT
ATOM      1  C   UNL     1       4.651   4.237  19.046  0.00  0.00    +0.000 A 
ATOM      2  C   UNL     1       5.064   2.984  19.606  0.00  0.00    +0.000 A 
ATOM      3  C   UNL     1       4.303   2.222  20.508  0.00  0.00    +0.000 A 
ATOM      4  C   UNL     1       3.067   2.792  20.838  0.00  0.00    +0.000 A 
ATOM      5  N   UNL     1       2.132   2.321  21.670  0.00  0.00    +0.000 NA
ATOM      6  O   UNL     1       1.115   3.251  21.657  0.00  0.00    +0.000 OA
ATOM      7  N   UNL     1       1.406   4.306  20.821  0.00  0.00    +0.000 NA
ATOM      8  C   UNL     1       2.608   4.058  20.287  0.00  0.00    +0.000 A 
ATOM      9  C   UNL     1       3.387   4.803  19.375  0.00  0.00    +0.000 A 
ENDROOT
BRANCH   9  10
ATOM     10  S   UNL     1       2.784   6.320  18.723  0.00  0.00    +0.000 S 
ATOM     11  O   UNL     1       3.935   7.054  18.223  0.00  0.00    +0.000 OA
ATOM     12  O   UNL     1       1.685   6.052  17.830  0.00  0.00    +0.000 OA
BRANCH  10  13
ATOM     13  N   UNL     1       2.224   7.196  20.043  0.00  0.00    +0.000 N 
ATOM     14  H   UNL     1       2.025   6.625  20.863  0.00  0.00    +0.000 HD
BRANCH  13  15
ATOM     15  C   UNL     1       1.509   8.411  19.883  0.00  0.00    +0.000 A 
ATOM     16  C   UNL     1       1.623   9.113  18.686  0.00  0.00    +0.000 A 
ATOM     17  C   UNL     1       0.853  10.259  18.474  0.00  0.00    +0.000 A 
ATOM     18  C   UNL     1      -0.064  10.685  19.437  0.00  0.00    +0.000 A 
ATOM     19  C   UNL     1      -0.142  10.010  20.656  0.00  0.00    +0.000 A 
ATOM     20  C   UNL     1       0.651   8.872  20.882  0.00  0.00    +0.000 A 
BRANCH  18  21
ATOM     21  O   UNL     1      -0.814  11.769  19.077  0.00  0.00    +0.000 OA
BRANCH  21  22
ATOM     22  C   UNL     1      -2.206  11.527  18.858  0.00  0.00    +0.000 C 
ATOM     23  C   UNL     1      -2.428  11.390  17.360  0.00  0.00    +0.000 C 
ENDBRANCH  21  22
ENDBRANCH  18  21
ENDBRANCH  13  15
ENDBRANCH  10  13
ENDBRANCH   9  10
BRANCH   1  24
ATOM     24  N   UNL     1       5.579   4.876  18.188  0.00  0.00    +0.000 N 
ATOM     25  H   UNL     1       6.040   5.698  18.583  0.00  0.00    +0.000 HD
BRANCH  24  29
ATOM     26  C   UNL     1       6.397   4.151  14.099  0.00  0.00    +0.000 A 
ATOM     27  C   UNL     1       5.232   3.663  14.685  0.00  0.00    +0.000 A 
ATOM     28  C   UNL     1       4.967   3.895  16.042  0.00  0.00    +0.000 A 
ATOM     29  C   UNL     1       5.873   4.609  16.835  0.00  0.00    +0.000 A 
ATOM     30  C   UNL     1       7.087   5.001  16.253  0.00  0.00    +0.000 A 
ATOM     31  C   UNL     1       7.351   4.775  14.899  0.00  0.00    +0.000 A 
BRANCH  26  32
ATOM     32  O   UNL     1       6.511   3.979  12.746  0.00  0.00    +0.000 OA
BRANCH  32  34
ATOM     33  C   UNL     1       5.911   2.037  11.473  0.00  0.00    +0.000 C 
ATOM     34  C   UNL     1       5.407   3.311  12.126  0.00  0.00    +0.000 C 
ENDBRANCH  32  34
ENDBRANCH  26  32
ENDBRANCH  24  29
ENDBRANCH   1  24
TORSDOF 9
ENDMDL
