MODEL 1
REMARK VINA RESULT:      -7.0      0.000      0.000
REMARK  Name = 
REMARK  7 active torsions:
REMARK  status: ('A' for Active; 'I' for Inactive)
REMARK    1  A    between atoms: C_1  and  O_2
REMARK    2  A    between atoms: O_2  and  C_3
REMARK    3  A    between atoms: C_5  and  N_6
REMARK    4  A    between atoms: N_6  and  C_7
REMARK    5  A    between atoms: C_7  and  C_8
REMARK    6  A    between atoms: C_8  and  C_9
REMARK    7  A    between atoms: C_9  and  O_10
REMARK                            x       y       z     vdW  Elec       q    Type
REMARK                         _______ _______ _______ _____ _____    ______ ____
ROOT
ATOM      1  C   UNL     1       7.385   6.980  17.607  0.00  0.00    +0.000 A 
ATOM      2  C   UNL     1       6.595   6.065  16.957  0.00  0.00    +0.000 A 
ATOM      3  C   UNL     1       6.443   4.845  17.580  0.00  0.00    +0.000 A 
ATOM      4  N   UNL     1       7.079   4.553  18.728  0.00  0.00    +0.000 NA
ATOM      5  C   UNL     1       7.860   5.507  19.255  0.00  0.00    +0.000 A 
ATOM      6  N   UNL     1       8.521   5.217  20.428  0.00  0.00    +0.000 N 
ATOM      7  N   UNL     1       8.026   6.726  18.756  0.00  0.00    +0.000 NA
ATOM      8  H   UNL     1       8.037   4.493  20.944  0.00  0.00    +0.000 HD
ATOM      9  H   UNL     1       8.734   6.070  20.924  0.00  0.00    +0.000 HD
ENDROOT
BRANCH   1  11
ATOM     10  C   UNL     1       8.153   9.177  17.860  0.00  0.00    +0.000 C 
ATOM     11  O   UNL     1       7.490   8.230  17.025  0.00  0.00    +0.000 OA
ENDBRANCH   1  11
BRANCH   3  12
ATOM     12  N   UNL     1       5.583   3.909  16.995  0.00  0.00    +0.000 N 
ATOM     13  H   UNL     1       5.821   2.962  17.269  0.00  0.00    +0.000 HD
BRANCH  12  14
ATOM     14  C   UNL     1       4.156   4.217  16.951  0.00  0.00    +0.000 C 
BRANCH  14  15
ATOM     15  C   UNL     1       3.353   3.656  18.131  0.00  0.00    +0.000 C 
ATOM     16  C   UNL     1       3.163   4.721  19.261  0.00  0.00    +0.000 C 
ATOM     17  C   UNL     1       1.685   4.307  19.356  0.00  0.00    +0.000 C 
ATOM     18  C   UNL     1       1.804   3.718  17.938  0.00  0.00    +0.000 C 
BRANCH  15  19
ATOM     19  C   UNL     1       3.862   2.305  18.638  0.00  0.00    +0.000 C 
BRANCH  19  20
ATOM     20  O   UNL     1       4.946   2.494  19.540  0.00  0.00    +0.000 OA
ATOM     21  H   UNL     1       5.259   3.414  19.408  0.00  0.00    +0.000 HD
ENDBRANCH  19  20
ENDBRANCH  15  19
ENDBRANCH  14  15
ENDBRANCH  12  14
ENDBRANCH   3  12
TORSDOF 6
ENDMDL
MODEL 2
REMARK VINA RESULT:      -6.8      0.858      1.072
REMARK  Name = 
REMARK  7 active torsions:
REMARK  status: ('A' for Active; 'I' for Inactive)
REMARK    1  A    between atoms: C_1  and  O_2
REMARK    2  A    between atoms: O_2  and  C_3
REMARK    3  A    between atoms: C_5  and  N_6
REMARK    4  A    between atoms: N_6  and  C_7
REMARK    5  A    between atoms: C_7  and  C_8
REMARK    6  A    between atoms: C_8  and  C_9
REMARK    7  A    between atoms: C_9  and  O_10
REMARK                            x       y       z     vdW  Elec       q    Type
REMARK                         _______ _______ _______ _____ _____    ______ ____
ROOT
ATOM      1  C   UNL     1       7.356   7.018  17.719  0.00  0.00    +0.000 A 
ATOM      2  C   UNL     1       6.281   6.292  17.272  0.00  0.00    +0.000 A 
ATOM      3  C   UNL     1       5.937   5.192  18.029  0.00  0.00    +0.000 A 
ATOM      4  N   UNL     1       6.650   4.824  19.107  0.00  0.00    +0.000 NA
ATOM      5  C   UNL     1       7.708   5.582  19.430  0.00  0.00    +0.000 A 
ATOM      6  N   UNL     1       8.450   5.211  20.528  0.00  0.00    +0.000 N 
ATOM      7  N   UNL     1       8.084   6.686  18.793  0.00  0.00    +0.000 NA
ATOM      8  H   UNL     1       7.891   4.668  21.173  0.00  0.00    +0.000 HD
ATOM      9  H   UNL     1       8.934   6.014  20.904  0.00  0.00    +0.000 HD
ENDROOT
BRANCH   1  11
ATOM     10  C   UNL     1       8.109   9.232  17.840  0.00  0.00    +0.000 C 
ATOM     11  O   UNL     1       7.668   8.161  17.006  0.00  0.00    +0.000 OA
ENDBRANCH   1  11
BRANCH   3  12
ATOM     12  N   UNL     1       4.798   4.467  17.658  0.00  0.00    +0.000 N 
ATOM     13  H   UNL     1       5.021   3.496  17.466  0.00  0.00    +0.000 HD
BRANCH  12  14
ATOM     14  C   UNL     1       3.561   4.700  18.399  0.00  0.00    +0.000 C 
BRANCH  14  15
ATOM     15  C   UNL     1       2.929   3.431  18.985  0.00  0.00    +0.000 C 
ATOM     16  C   UNL     1       1.437   3.663  19.393  0.00  0.00    +0.000 C 
ATOM     17  C   UNL     1       1.082   2.324  18.725  0.00  0.00    +0.000 C 
ATOM     18  C   UNL     1       2.387   2.433  17.914  0.00  0.00    +0.000 C 
BRANCH  15  19
ATOM     19  C   UNL     1       3.771   2.771  20.079  0.00  0.00    +0.000 C 
BRANCH  19  20
ATOM     20  O   UNL     1       4.962   2.227  19.523  0.00  0.00    +0.000 OA
ATOM     21  H   UNL     1       4.741   1.953  18.607  0.00  0.00    +0.000 HD
ENDBRANCH  19  20
ENDBRANCH  15  19
ENDBRANCH  14  15
ENDBRANCH  12  14
ENDBRANCH   3  12
TORSDOF 6
ENDMDL
MODEL 3
REMARK VINA RESULT:      -6.6      2.345      3.148
REMARK  Name = 
REMARK  7 active torsions:
REMARK  status: ('A' for Active; 'I' for Inactive)
REMARK    1  A    between atoms: C_1  and  O_2
REMARK    2  A    between atoms: O_2  and  C_3
REMARK    3  A    between atoms: C_5  and  N_6
REMARK    4  A    between atoms: N_6  and  C_7
REMARK    5  A    between atoms: C_7  and  C_8
REMARK    6  A    between atoms: C_8  and  C_9
REMARK    7  A    between atoms: C_9  and  O_10
REMARK                            x       y       z     vdW  Elec       q    Type
REMARK                         _______ _______ _______ _____ _____    ______ ____
ROOT
ATOM      1  C   UNL     1       7.043   4.627  17.604  0.00  0.00    +0.000 A 
ATOM      2  C   UNL     1       5.732   4.404  17.944  0.00  0.00    +0.000 A 
ATOM      3  C   UNL     1       4.837   4.346  16.897  0.00  0.00    +0.000 A 
ATOM      4  N   UNL     1       5.220   4.553  15.625  0.00  0.00    +0.000 NA
ATOM      5  C   UNL     1       6.520   4.804  15.411  0.00  0.00    +0.000 A 
ATOM      6  N   UNL     1       6.924   5.024  14.114  0.00  0.00    +0.000 N 
ATOM      7  N   UNL     1       7.462   4.828  16.348  0.00  0.00    +0.000 NA
ATOM      8  H   UNL     1       6.289   4.583  13.460  0.00  0.00    +0.000 HD
ATOM      9  H   UNL     1       7.906   4.807  14.017  0.00  0.00    +0.000 HD
ENDROOT
BRANCH   1  11
ATOM     10  C   UNL     1       7.908   5.804  19.433  0.00  0.00    +0.000 C 
ATOM     11  O   UNL     1       7.959   4.619  18.640  0.00  0.00    +0.000 OA
ENDBRANCH   1  11
BRANCH   3  12
ATOM     12  N   UNL     1       3.502   4.042  17.188  0.00  0.00    +0.000 N 
ATOM     13  H   UNL     1       3.300   3.060  17.031  0.00  0.00    +0.000 HD
BRANCH  12  14
ATOM     14  C   UNL     1       2.906   4.627  18.386  0.00  0.00    +0.000 C 
BRANCH  14  15
ATOM     15  C   UNL     1       2.120   3.633  19.250  0.00  0.00    +0.000 C 
ATOM     16  C   UNL     1       2.991   3.065  20.418  0.00  0.00    +0.000 C 
ATOM     17  C   UNL     1       1.804   3.291  21.369  0.00  0.00    +0.000 C 
ATOM     18  C   UNL     1       1.239   4.302  20.354  0.00  0.00    +0.000 C 
BRANCH  15  19
ATOM     19  C   UNL     1       1.392   2.556  18.444  0.00  0.00    +0.000 C 
BRANCH  19  20
ATOM     20  O   UNL     1       2.294   1.517  18.083  0.00  0.00    +0.000 OA
ATOM     21  H   UNL     1       2.472   1.623  17.124  0.00  0.00    +0.000 HD
ENDBRANCH  19  20
ENDBRANCH  15  19
ENDBRANCH  14  15
ENDBRANCH  12  14
ENDBRANCH   3  12
TORSDOF 6
ENDMDL
MODEL 4
REMARK VINA RESULT:      -6.6      1.704      2.409
REMARK  Name = 
REMARK  7 active torsions:
REMARK  status: ('A' for Active; 'I' for Inactive)
REMARK    1  A    between atoms: C_1  and  O_2
REMARK    2  A    between atoms: O_2  and  C_3
REMARK    3  A    between atoms: C_5  and  N_6
REMARK    4  A    between atoms: N_6  and  C_7
REMARK    5  A    between atoms: C_7  and  C_8
REMARK    6  A    between atoms: C_8  and  C_9
REMARK    7  A    between atoms: C_9  and  O_10
REMARK                            x       y       z     vdW  Elec       q    Type
REMARK                         _______ _______ _______ _____ _____    ______ ____
ROOT
ATOM      1  C   UNL     1       7.543   6.535  17.946  0.00  0.00    +0.000 A 
ATOM      2  C   UNL     1       6.879   5.681  18.790  0.00  0.00    +0.000 A 
ATOM      3  C   UNL     1       6.223   4.627  18.192  0.00  0.00    +0.000 A 
ATOM      4  N   UNL     1       6.190   4.480  16.856  0.00  0.00    +0.000 NA
ATOM      5  C   UNL     1       6.838   5.398  16.123  0.00  0.00    +0.000 A 
ATOM      6  N   UNL     1       6.806   5.262  14.754  0.00  0.00    +0.000 N 
ATOM      7  N   UNL     1       7.539   6.415  16.612  0.00  0.00    +0.000 NA
ATOM      8  H   UNL     1       6.647   4.297  14.492  0.00  0.00    +0.000 HD
ATOM      9  H   UNL     1       7.605   5.723  14.343  0.00  0.00    +0.000 HD
ENDROOT
BRANCH   1  11
ATOM     10  C   UNL     1       8.111   8.805  17.866  0.00  0.00    +0.000 C 
ATOM     11  O   UNL     1       8.260   7.557  18.540  0.00  0.00    +0.000 OA
ENDBRANCH   1  11
BRANCH   3  12
ATOM     12  N   UNL     1       5.599   3.684  19.018  0.00  0.00    +0.000 N 
ATOM     13  H   UNL     1       5.549   4.006  19.979  0.00  0.00    +0.000 HD
BRANCH  12  14
ATOM     14  C   UNL     1       4.408   3.006  18.513  0.00  0.00    +0.000 C 
BRANCH  14  15
ATOM     15  C   UNL     1       3.094   3.746  18.794  0.00  0.00    +0.000 C 
ATOM     16  C   UNL     1       2.726   4.732  17.637  0.00  0.00    +0.000 C 
ATOM     17  C   UNL     1       1.281   4.211  17.697  0.00  0.00    +0.000 C 
ATOM     18  C   UNL     1       1.812   2.946  18.396  0.00  0.00    +0.000 C 
BRANCH  15  19
ATOM     19  C   UNL     1       3.025   4.375  20.186  0.00  0.00    +0.000 C 
BRANCH  19  20
ATOM     20  O   UNL     1       3.475   5.724  20.139  0.00  0.00    +0.000 OA
ATOM     21  H   UNL     1       3.707   5.908  19.203  0.00  0.00    +0.000 HD
ENDBRANCH  19  20
ENDBRANCH  15  19
ENDBRANCH  14  15
ENDBRANCH  12  14
ENDBRANCH   3  12
TORSDOF 6
ENDMDL
MODEL 5
REMARK VINA RESULT:      -6.6      1.930      2.614
REMARK  Name = 
REMARK  7 active torsions:
REMARK  status: ('A' for Active; 'I' for Inactive)
REMARK    1  A    between atoms: C_1  and  O_2
REMARK    2  A    between atoms: O_2  and  C_3
REMARK    3  A    between atoms: C_5  and  N_6
REMARK    4  A    between atoms: N_6  and  C_7
REMARK    5  A    between atoms: C_7  and  C_8
REMARK    6  A    between atoms: C_8  and  C_9
REMARK    7  A    between atoms: C_9  and  O_10
REMARK                            x       y       z     vdW  Elec       q    Type
REMARK                         _______ _______ _______ _____ _____    ______ ____
ROOT
ATOM      1  C   UNL     1       6.711   5.372  16.071  0.00  0.00    +0.000 A 
ATOM      2  C   UNL     1       5.981   4.356  16.635  0.00  0.00    +0.000 A 
ATOM      3  C   UNL     1       6.010   4.282  18.011  0.00  0.00    +0.000 A 
ATOM      4  N   UNL     1       6.755   5.122  18.750  0.00  0.00    +0.000 NA
ATOM      5  C   UNL     1       7.464   6.051  18.092  0.00  0.00    +0.000 A 
ATOM      6  N   UNL     1       8.236   6.913  18.837  0.00  0.00    +0.000 N 
ATOM      7  N   UNL     1       7.457   6.232  16.776  0.00  0.00    +0.000 NA
ATOM      8  H   UNL     1       7.873   6.999  19.778  0.00  0.00    +0.000 HD
ATOM      9  H   UNL     1       8.389   7.770  18.324  0.00  0.00    +0.000 HD
ENDROOT
BRANCH   1  11
ATOM     10  C   UNL     1       6.372   4.258  14.040  0.00  0.00    +0.000 C 
ATOM     11  O   UNL     1       6.635   5.497  14.696  0.00  0.00    +0.000 OA
ENDBRANCH   1  11
BRANCH   3  12
ATOM     12  N   UNL     1       5.217   3.311  18.635  0.00  0.00    +0.000 N 
ATOM     13  H   UNL     1       5.757   2.487  18.876  0.00  0.00    +0.000 HD
BRANCH  12  14
ATOM     14  C   UNL     1       4.251   3.752  19.638  0.00  0.00    +0.000 C 
BRANCH  14  15
ATOM     15  C   UNL     1       2.804   3.336  19.346  0.00  0.00    +0.000 C 
ATOM     16  C   UNL     1       2.077   2.825  20.632  0.00  0.00    +0.000 C 
ATOM     17  C   UNL     1       0.855   3.672  20.238  0.00  0.00    +0.000 C 
ATOM     18  C   UNL     1       1.785   4.520  19.350  0.00  0.00    +0.000 C 
BRANCH  15  19
ATOM     19  C   UNL     1       2.661   2.399  18.144  0.00  0.00    +0.000 C 
BRANCH  19  20
ATOM     20  O   UNL     1       2.407   3.149  16.963  0.00  0.00    +0.000 OA
ATOM     21  H   UNL     1       1.484   2.946  16.698  0.00  0.00    +0.000 HD
ENDBRANCH  19  20
ENDBRANCH  15  19
ENDBRANCH  14  15
ENDBRANCH  12  14
ENDBRANCH   3  12
TORSDOF 6
ENDMDL
MODEL 6
REMARK VINA RESULT:      -6.6      2.081      2.580
REMARK  Name = 
REMARK  7 active torsions:
REMARK  status: ('A' for Active; 'I' for Inactive)
REMARK    1  A    between atoms: C_1  and  O_2
REMARK    2  A    between atoms: O_2  and  C_3
REMARK    3  A    between atoms: C_5  and  N_6
REMARK    4  A    between atoms: N_6  and  C_7
REMARK    5  A    between atoms: C_7  and  C_8
REMARK    6  A    between atoms: C_8  and  C_9
REMARK    7  A    between atoms: C_9  and  O_10
REMARK                            x       y       z     vdW  Elec       q    Type
REMARK                         _______ _______ _______ _____ _____    ______ ____
ROOT
ATOM      1  C   UNL     1       6.934   4.846  16.771  0.00  0.00    +0.000 A 
ATOM      2  C   UNL     1       5.567   4.863  16.894  0.00  0.00    +0.000 A 
ATOM      3  C   UNL     1       5.075   5.172  18.144  0.00  0.00    +0.000 A 
ATOM      4  N   UNL     1       5.890   5.389  19.191  0.00  0.00    +0.000 NA
ATOM      5  C   UNL     1       7.210   5.306  18.967  0.00  0.00    +0.000 A 
ATOM      6  N   UNL     1       8.054   5.520  20.033  0.00  0.00    +0.000 N 
ATOM      7  N   UNL     1       7.775   5.066  17.789  0.00  0.00    +0.000 NA
ATOM      8  H   UNL     1       7.606   6.092  20.738  0.00  0.00    +0.000 HD
ATOM      9  H   UNL     1       8.958   5.824  19.702  0.00  0.00    +0.000 HD
ENDROOT
BRANCH   1  11
ATOM     10  C   UNL     1       6.441   4.688  14.488  0.00  0.00    +0.000 C 
ATOM     11  O   UNL     1       7.436   4.603  15.506  0.00  0.00    +0.000 OA
ENDBRANCH   1  11
BRANCH   3  12
ATOM     12  N   UNL     1       3.688   5.280  18.298  0.00  0.00    +0.000 N 
ATOM     13  H   UNL     1       3.193   4.892  17.502  0.00  0.00    +0.000 HD
BRANCH  12  14
ATOM     14  C   UNL     1       3.115   4.981  19.608  0.00  0.00    +0.000 C 
BRANCH  14  15
ATOM     15  C   UNL     1       2.492   3.584  19.720  0.00  0.00    +0.000 C 
ATOM     16  C   UNL     1       0.962   3.656  20.034  0.00  0.00    +0.000 C 
ATOM     17  C   UNL     1       0.725   2.579  18.961  0.00  0.00    +0.000 C 
ATOM     18  C   UNL     1       2.089   2.952  18.350  0.00  0.00    +0.000 C 
BRANCH  15  19
ATOM     19  C   UNL     1       3.265   2.635  20.638  0.00  0.00    +0.000 C 
BRANCH  19  20
ATOM     20  O   UNL     1       2.730   2.679  21.955  0.00  0.00    +0.000 OA
ATOM     21  H   UNL     1       3.438   2.359  22.554  0.00  0.00    +0.000 HD
ENDBRANCH  19  20
ENDBRANCH  15  19
ENDBRANCH  14  15
ENDBRANCH  12  14
ENDBRANCH   3  12
TORSDOF 6
ENDMDL
MODEL 7
REMARK VINA RESULT:      -6.5      1.757      2.570
REMARK  Name = 
REMARK  7 active torsions:
REMARK  status: ('A' for Active; 'I' for Inactive)
REMARK    1  A    between atoms: C_1  and  O_2
REMARK    2  A    between atoms: O_2  and  C_3
REMARK    3  A    between atoms: C_5  and  N_6
REMARK    4  A    between atoms: N_6  and  C_7
REMARK    5  A    between atoms: C_7  and  C_8
REMARK    6  A    between atoms: C_8  and  C_9
REMARK    7  A    between atoms: C_9  and  O_10
REMARK                            x       y       z     vdW  Elec       q    Type
REMARK                         _______ _______ _______ _____ _____    ______ ____
ROOT
ATOM      1  C   UNL     1       7.227   6.099  16.564  0.00  0.00    +0.000 A 
ATOM      2  C   UNL     1       6.686   5.668  17.749  0.00  0.00    +0.000 A 
ATOM      3  C   UNL     1       6.028   4.457  17.709  0.00  0.00    +0.000 A 
ATOM      4  N   UNL     1       5.878   3.770  16.563  0.00  0.00    +0.000 NA
ATOM      5  C   UNL     1       6.411   4.305  15.454  0.00  0.00    +0.000 A 
ATOM      6  N   UNL     1       6.260   3.615  14.274  0.00  0.00    +0.000 N 
ATOM      7  N   UNL     1       7.106   5.437  15.406  0.00  0.00    +0.000 NA
ATOM      8  H   UNL     1       6.123   2.627  14.450  0.00  0.00    +0.000 HD
ATOM      9  H   UNL     1       6.994   3.868  13.629  0.00  0.00    +0.000 HD
ENDROOT
BRANCH   1  11
ATOM     10  C   UNL     1       7.577   8.114  17.703  0.00  0.00    +0.000 C 
ATOM     11  O   UNL     1       7.947   7.279  16.607  0.00  0.00    +0.000 OA
ENDBRANCH   1  11
BRANCH   3  12
ATOM     12  N   UNL     1       5.529   3.938  18.909  0.00  0.00    +0.000 N 
ATOM     13  H   UNL     1       6.241   3.916  19.631  0.00  0.00    +0.000 HD
BRANCH  12  14
ATOM     14  C   UNL     1       4.200   4.361  19.344  0.00  0.00    +0.000 C 
BRANCH  14  15
ATOM     15  C   UNL     1       3.137   3.257  19.288  0.00  0.00    +0.000 C 
ATOM     16  C   UNL     1       2.085   3.408  20.436  0.00  0.00    +0.000 C 
ATOM     17  C   UNL     1       0.974   3.143  19.407  0.00  0.00    +0.000 C 
ATOM     18  C   UNL     1       1.963   3.547  18.299  0.00  0.00    +0.000 C 
BRANCH  15  19
ATOM     19  C   UNL     1       3.717   1.847  19.166  0.00  0.00    +0.000 C 
BRANCH  19  20
ATOM     20  O   UNL     1       4.026   1.557  17.808  0.00  0.00    +0.000 OA
ATOM     21  H   UNL     1       3.422   2.106  17.263  0.00  0.00    +0.000 HD
ENDBRANCH  19  20
ENDBRANCH  15  19
ENDBRANCH  14  15
ENDBRANCH  12  14
ENDBRANCH   3  12
TORSDOF 6
ENDMDL
MODEL 8
REMARK VINA RESULT:      -6.5      2.118      2.716
REMARK  Name = 
REMARK  7 active torsions:
REMARK  status: ('A' for Active; 'I' for Inactive)
REMARK    1  A    between atoms: C_1  and  O_2
REMARK    2  A    between atoms: O_2  and  C_3
REMARK    3  A    between atoms: C_5  and  N_6
REMARK    4  A    between atoms: N_6  and  C_7
REMARK    5  A    between atoms: C_7  and  C_8
REMARK    6  A    between atoms: C_8  and  C_9
REMARK    7  A    between atoms: C_9  and  O_10
REMARK                            x       y       z     vdW  Elec       q    Type
REMARK                         _______ _______ _______ _____ _____    ______ ____
ROOT
ATOM      1  C   UNL     1       6.978   4.873  16.715  0.00  0.00    +0.000 A 
ATOM      2  C   UNL     1       5.619   5.054  16.783  0.00  0.00    +0.000 A 
ATOM      3  C   UNL     1       5.123   5.458  18.004  0.00  0.00    +0.000 A 
ATOM      4  N   UNL     1       5.919   5.609  19.077  0.00  0.00    +0.000 NA
ATOM      5  C   UNL     1       7.227   5.364  18.908  0.00  0.00    +0.000 A 
ATOM      6  N   UNL     1       8.051   5.508  20.001  0.00  0.00    +0.000 N 
ATOM      7  N   UNL     1       7.802   5.022  17.760  0.00  0.00    +0.000 NA
ATOM      8  H   UNL     1       7.649   6.151  20.672  0.00  0.00    +0.000 HD
ATOM      9  H   UNL     1       8.996   5.693  19.698  0.00  0.00    +0.000 HD
ENDROOT
BRANCH   1  11
ATOM     10  C   UNL     1       6.573   4.759  14.412  0.00  0.00    +0.000 C 
ATOM     11  O   UNL     1       7.494   4.533  15.478  0.00  0.00    +0.000 OA
ENDBRANCH   1  11
BRANCH   3  12
ATOM     12  N   UNL     1       3.754   5.734  18.101  0.00  0.00    +0.000 N 
ATOM     13  H   UNL     1       3.259   5.464  17.257  0.00  0.00    +0.000 HD
BRANCH  12  14
ATOM     14  C   UNL     1       3.076   5.429  19.358  0.00  0.00    +0.000 C 
BRANCH  14  15
ATOM     15  C   UNL     1       2.087   4.259  19.275  0.00  0.00    +0.000 C 
ATOM     16  C   UNL     1       2.700   2.941  19.850  0.00  0.00    +0.000 C 
ATOM     17  C   UNL     1       1.380   2.694  20.600  0.00  0.00    +0.000 C 
ATOM     18  C   UNL     1       1.070   4.196  20.459  0.00  0.00    +0.000 C 
BRANCH  15  19
ATOM     19  C   UNL     1       1.446   4.090  17.896  0.00  0.00    +0.000 C 
BRANCH  19  20
ATOM     20  O   UNL     1       2.236   3.227  17.088  0.00  0.00    +0.000 OA
ATOM     21  H   UNL     1       3.122   3.185  17.509  0.00  0.00    +0.000 HD
ENDBRANCH  19  20
ENDBRANCH  15  19
ENDBRANCH  14  15
ENDBRANCH  12  14
ENDBRANCH   3  12
TORSDOF 6
ENDMDL
MODEL 9
REMARK VINA RESULT:      -6.5      2.229      2.995
REMARK  Name = 
REMARK  7 active torsions:
REMARK  status: ('A' for Active; 'I' for Inactive)
REMARK    1  A    between atoms: C_1  and  O_2
REMARK    2  A    between atoms: O_2  and  C_3
REMARK    3  A    between atoms: C_5  and  N_6
REMARK    4  A    between atoms: N_6  and  C_7
REMARK    5  A    between atoms: C_7  and  C_8
REMARK    6  A    between atoms: C_8  and  C_9
REMARK    7  A    between atoms: C_9  and  O_10
REMARK                            x       y       z     vdW  Elec       q    Type
REMARK                         _______ _______ _______ _____ _____    ______ ____
ROOT
ATOM      1  C   UNL     1       7.135   4.602  17.339  0.00  0.00    +0.000 A 
ATOM      2  C   UNL     1       5.839   4.348  17.713  0.00  0.00    +0.000 A 
ATOM      3  C   UNL     1       4.936   4.176  16.686  0.00  0.00    +0.000 A 
ATOM      4  N   UNL     1       5.296   4.306  15.397  0.00  0.00    +0.000 NA
ATOM      5  C   UNL     1       6.581   4.597  15.147  0.00  0.00    +0.000 A 
ATOM      6  N   UNL     1       6.960   4.739  13.831  0.00  0.00    +0.000 N 
ATOM      7  N   UNL     1       7.531   4.729  16.066  0.00  0.00    +0.000 NA
ATOM      8  H   UNL     1       6.338   4.225  13.220  0.00  0.00    +0.000 HD
ATOM      9  H   UNL     1       7.949   4.558  13.736  0.00  0.00    +0.000 HD
ENDROOT
BRANCH   1  11
ATOM     10  C   UNL     1       7.792   5.797  19.241  0.00  0.00    +0.000 C 
ATOM     11  O   UNL     1       8.062   4.709  18.359  0.00  0.00    +0.000 OA
ENDBRANCH   1  11
BRANCH   3  12
ATOM     12  N   UNL     1       3.619   3.836  17.017  0.00  0.00    +0.000 N 
ATOM     13  H   UNL     1       2.990   3.973  16.233  0.00  0.00    +0.000 HD
BRANCH  12  14
ATOM     14  C   UNL     1       3.396   2.626  17.804  0.00  0.00    +0.000 C 
BRANCH  14  15
ATOM     15  C   UNL     1       2.817   2.880  19.202  0.00  0.00    +0.000 C 
ATOM     16  C   UNL     1       2.207   4.315  19.323  0.00  0.00    +0.000 C 
ATOM     17  C   UNL     1       0.984   3.699  20.023  0.00  0.00    +0.000 C 
ATOM     18  C   UNL     1       1.363   2.344  19.398  0.00  0.00    +0.000 C 
BRANCH  15  19
ATOM     19  C   UNL     1       3.771   2.518  20.341  0.00  0.00    +0.000 C 
BRANCH  19  20
ATOM     20  O   UNL     1       4.914   1.843  19.830  0.00  0.00    +0.000 OA
ATOM     21  H   UNL     1       4.578   1.110  19.271  0.00  0.00    +0.000 HD
ENDBRANCH  19  20
ENDBRANCH  15  19
ENDBRANCH  14  15
ENDBRANCH  12  14
ENDBRANCH   3  12
TORSDOF 6
ENDMDL
