MODEL 1
REMARK VINA RESULT:      -8.2      0.000      0.000
REMARK  Name = 
REMARK  3 active torsions:
REMARK  status: ('A' for Active; 'I' for Inactive)
REMARK    1  A    between atoms: C_2  and  C_10
REMARK    2  A    between atoms: N_3  and  C_4
REMARK    3  A    between atoms: C_16  and  C_17
REMARK                            x       y       z     vdW  Elec       q    Type
REMARK                         _______ _______ _______ _____ _____    ______ ____
ROOT
ATOM      1  C   UNL     1       6.093   5.115  17.459  0.00  0.00    +0.000 A 
ATOM      2  C   UNL     1       6.994   6.086  17.883  0.00  0.00    +0.000 A 
ATOM      3  N   UNL     1       7.777   6.445  16.809  0.00  0.00    +0.000 N 
ATOM      4  C   UNL     1       7.403   5.742  15.700  0.00  0.00    +0.000 A 
ATOM      5  N   UNL     1       7.971   5.859  14.488  0.00  0.00    +0.000 NA
ATOM      6  C   UNL     1       7.380   5.058  13.555  0.00  0.00    +0.000 A 
ATOM      7  C   UNL     1       6.306   4.177  13.742  0.00  0.00    +0.000 A 
ATOM      8  C   UNL     1       5.801   4.104  15.047  0.00  0.00    +0.000 A 
ATOM      9  C   UNL     1       6.352   4.915  16.059  0.00  0.00    +0.000 A 
ATOM     10  H   UNL     1       8.527   7.121  16.808  0.00  0.00    +0.000 HD
ENDROOT
BRANCH   7  11
ATOM     11  C   UNL     1       5.712   3.392  12.638  0.00  0.00    +0.000 A 
ATOM     12  C   UNL     1       4.459   3.719  12.089  0.00  0.00    +0.000 A 
ATOM     13  C   UNL     1       3.882   2.943  11.078  0.00  0.00    +0.000 A 
ATOM     14  C   UNL     1       4.552   1.829  10.579  0.00  0.00    +0.000 A 
ATOM     15  C   UNL     1       5.804   1.498  11.084  0.00  0.00    +0.000 A 
ATOM     16  C   UNL     1       6.374   2.269  12.102  0.00  0.00    +0.000 A 
ENDBRANCH   7  11
BRANCH   1  18
ATOM     17  O   UNL     1       5.419   3.546  19.045  0.00  0.00    +0.000 OA
ATOM     18  C   UNL     1       5.075   4.388  18.220  0.00  0.00    +0.000 C 
ATOM     19  N   UNL     1       3.760   4.695  17.922  0.00  0.00    +0.000 N 
ATOM     20  H   UNL     1       3.583   5.244  17.094  0.00  0.00    +0.000 HD
BRANCH  19  21
ATOM     21  C   UNL     1       2.634   4.173  18.600  0.00  0.00    +0.000 A 
ATOM     22  C   UNL     1       2.141   4.714  19.793  0.00  0.00    +0.000 A 
ATOM     23  C   UNL     1       1.051   4.136  20.448  0.00  0.00    +0.000 A 
ATOM     24  C   UNL     1       0.438   3.013  19.909  0.00  0.00    +0.000 A 
ATOM     25  C   UNL     1       0.896   2.482  18.707  0.00  0.00    +0.000 A 
ATOM     26  C   UNL     1       1.983   3.065  18.046  0.00  0.00    +0.000 A 
ENDBRANCH  19  21
ENDBRANCH   1  18
TORSDOF 3
ENDMDL
MODEL 2
REMARK VINA RESULT:      -8.1      0.958      1.359
REMARK  Name = 
REMARK  3 active torsions:
REMARK  status: ('A' for Active; 'I' for Inactive)
REMARK    1  A    between atoms: C_2  and  C_10
REMARK    2  A    between atoms: N_3  and  C_4
REMARK    3  A    between atoms: C_16  and  C_17
REMARK                            x       y       z     vdW  Elec       q    Type
REMARK                         _______ _______ _______ _____ _____    ______ ____
ROOT
ATOM      1  C   UNL     1       5.491   5.896  17.159  0.00  0.00    +0.000 A 
ATOM      2  C   UNL     1       6.516   6.689  17.664  0.00  0.00    +0.000 A 
ATOM      3  N   UNL     1       7.565   6.653  16.774  0.00  0.00    +0.000 N 
ATOM      4  C   UNL     1       7.245   5.868  15.702  0.00  0.00    +0.000 A 
ATOM      5  N   UNL     1       8.055   5.626  14.657  0.00  0.00    +0.000 NA
ATOM      6  C   UNL     1       7.470   4.832  13.717  0.00  0.00    +0.000 A 
ATOM      7  C   UNL     1       6.183   4.276  13.748  0.00  0.00    +0.000 A 
ATOM      8  C   UNL     1       5.426   4.561  14.892  0.00  0.00    +0.000 A 
ATOM      9  C   UNL     1       5.961   5.390  15.899  0.00  0.00    +0.000 A 
ATOM     10  H   UNL     1       8.455   7.123  16.869  0.00  0.00    +0.000 HD
ENDROOT
BRANCH   7  11
ATOM     11  C   UNL     1       5.633   3.465  12.640  0.00  0.00    +0.000 A 
ATOM     12  C   UNL     1       4.391   3.763  12.051  0.00  0.00    +0.000 A 
ATOM     13  C   UNL     1       3.856   2.964  11.035  0.00  0.00    +0.000 A 
ATOM     14  C   UNL     1       4.558   1.854  10.573  0.00  0.00    +0.000 A 
ATOM     15  C   UNL     1       5.800   1.551  11.118  0.00  0.00    +0.000 A 
ATOM     16  C   UNL     1       6.327   2.345  12.140  0.00  0.00    +0.000 A 
ENDBRANCH   7  11
BRANCH   1  18
ATOM     17  O   UNL     1       3.261   6.381  17.632  0.00  0.00    +0.000 OA
ATOM     18  C   UNL     1       4.184   5.578  17.737  0.00  0.00    +0.000 C 
ATOM     19  N   UNL     1       4.093   4.371  18.406  0.00  0.00    +0.000 N 
ATOM     20  H   UNL     1       4.952   3.884  18.611  0.00  0.00    +0.000 HD
BRANCH  19  21
ATOM     21  C   UNL     1       2.903   3.839  18.957  0.00  0.00    +0.000 A 
ATOM     22  C   UNL     1       2.043   2.994  18.247  0.00  0.00    +0.000 A 
ATOM     23  C   UNL     1       0.858   2.528  18.820  0.00  0.00    +0.000 A 
ATOM     24  C   UNL     1       0.527   2.899  20.118  0.00  0.00    +0.000 A 
ATOM     25  C   UNL     1       1.388   3.713  20.848  0.00  0.00    +0.000 A 
ATOM     26  C   UNL     1       2.579   4.173  20.276  0.00  0.00    +0.000 A 
ENDBRANCH  19  21
ENDBRANCH   1  18
TORSDOF 3
ENDMDL
MODEL 3
REMARK VINA RESULT:      -8.0      0.170      1.398
REMARK  Name = 
REMARK  3 active torsions:
REMARK  status: ('A' for Active; 'I' for Inactive)
REMARK    1  A    between atoms: C_2  and  C_10
REMARK    2  A    between atoms: N_3  and  C_4
REMARK    3  A    between atoms: C_16  and  C_17
REMARK                            x       y       z     vdW  Elec       q    Type
REMARK                         _______ _______ _______ _____ _____    ______ ____
ROOT
ATOM      1  C   UNL     1       6.078   5.057  17.576  0.00  0.00    +0.000 A 
ATOM      2  C   UNL     1       6.949   6.057  17.992  0.00  0.00    +0.000 A 
ATOM      3  N   UNL     1       7.705   6.448  16.910  0.00  0.00    +0.000 N 
ATOM      4  C   UNL     1       7.340   5.737  15.802  0.00  0.00    +0.000 A 
ATOM      5  N   UNL     1       7.888   5.878  14.583  0.00  0.00    +0.000 NA
ATOM      6  C   UNL     1       7.313   5.061  13.655  0.00  0.00    +0.000 A 
ATOM      7  C   UNL     1       6.273   4.142  13.853  0.00  0.00    +0.000 A 
ATOM      8  C   UNL     1       5.789   4.046  15.163  0.00  0.00    +0.000 A 
ATOM      9  C   UNL     1       6.325   4.872  16.172  0.00  0.00    +0.000 A 
ATOM     10  H   UNL     1       8.431   7.151  16.902  0.00  0.00    +0.000 HD
ENDROOT
BRANCH   7  11
ATOM     11  C   UNL     1       5.692   3.341  12.753  0.00  0.00    +0.000 A 
ATOM     12  C   UNL     1       6.378   2.250  12.190  0.00  0.00    +0.000 A 
ATOM     13  C   UNL     1       5.843   1.527  11.119  0.00  0.00    +0.000 A 
ATOM     14  C   UNL     1       4.600   1.869  10.593  0.00  0.00    +0.000 A 
ATOM     15  C   UNL     1       3.888   2.926  11.147  0.00  0.00    +0.000 A 
ATOM     16  C   UNL     1       4.429   3.653  12.210  0.00  0.00    +0.000 A 
ENDBRANCH   7  11
BRANCH   1  18
ATOM     17  O   UNL     1       5.480   3.486  19.190  0.00  0.00    +0.000 OA
ATOM     18  C   UNL     1       5.096   4.292  18.347  0.00  0.00    +0.000 C 
ATOM     19  N   UNL     1       3.768   4.521  18.038  0.00  0.00    +0.000 N 
ATOM     20  H   UNL     1       3.566   5.044  17.198  0.00  0.00    +0.000 HD
BRANCH  19  21
ATOM     21  C   UNL     1       2.668   3.952  18.722  0.00  0.00    +0.000 A 
ATOM     22  C   UNL     1       1.972   2.832  18.253  0.00  0.00    +0.000 A 
ATOM     23  C   UNL     1       0.866   2.333  18.943  0.00  0.00    +0.000 A 
ATOM     24  C   UNL     1       0.450   2.947  20.118  0.00  0.00    +0.000 A 
ATOM     25  C   UNL     1       1.151   4.042  20.614  0.00  0.00    +0.000 A 
ATOM     26  C   UNL     1       2.265   4.538  19.927  0.00  0.00    +0.000 A 
ENDBRANCH  19  21
ENDBRANCH   1  18
TORSDOF 3
ENDMDL
MODEL 4
REMARK VINA RESULT:      -8.0      0.967      1.378
REMARK  Name = 
REMARK  3 active torsions:
REMARK  status: ('A' for Active; 'I' for Inactive)
REMARK    1  A    between atoms: C_2  and  C_10
REMARK    2  A    between atoms: N_3  and  C_4
REMARK    3  A    between atoms: C_16  and  C_17
REMARK                            x       y       z     vdW  Elec       q    Type
REMARK                         _______ _______ _______ _____ _____    ______ ____
ROOT
ATOM      1  C   UNL     1       5.507   5.927  17.126  0.00  0.00    +0.000 A 
ATOM      2  C   UNL     1       6.543   6.718  17.611  0.00  0.00    +0.000 A 
ATOM      3  N   UNL     1       7.587   6.655  16.716  0.00  0.00    +0.000 N 
ATOM      4  C   UNL     1       7.252   5.855  15.660  0.00  0.00    +0.000 A 
ATOM      5  N   UNL     1       8.053   5.587  14.615  0.00  0.00    +0.000 NA
ATOM      6  C   UNL     1       7.454   4.782  13.692  0.00  0.00    +0.000 A 
ATOM      7  C   UNL     1       6.162   4.240  13.741  0.00  0.00    +0.000 A 
ATOM      8  C   UNL     1       5.415   4.554  14.884  0.00  0.00    +0.000 A 
ATOM      9  C   UNL     1       5.964   5.394  15.872  0.00  0.00    +0.000 A 
ATOM     10  H   UNL     1       8.481   7.118  16.798  0.00  0.00    +0.000 HD
ENDROOT
BRANCH   7  11
ATOM     11  C   UNL     1       5.597   3.416  12.650  0.00  0.00    +0.000 A 
ATOM     12  C   UNL     1       6.293   2.316  12.117  0.00  0.00    +0.000 A 
ATOM     13  C   UNL     1       5.773   1.571  11.054  0.00  0.00    +0.000 A 
ATOM     14  C   UNL     1       4.536   1.899  10.506  0.00  0.00    +0.000 A 
ATOM     15  C   UNL     1       3.814   2.964  11.030  0.00  0.00    +0.000 A 
ATOM     16  C   UNL     1       4.340   3.714  12.085  0.00  0.00    +0.000 A 
ENDBRANCH   7  11
BRANCH   1  18
ATOM     17  O   UNL     1       3.286   6.444  17.606  0.00  0.00    +0.000 OA
ATOM     18  C   UNL     1       4.200   5.633  17.718  0.00  0.00    +0.000 C 
ATOM     19  N   UNL     1       4.100   4.437  18.405  0.00  0.00    +0.000 N 
ATOM     20  H   UNL     1       4.955   3.943  18.612  0.00  0.00    +0.000 HD
BRANCH  19  21
ATOM     21  C   UNL     1       2.908   3.927  18.971  0.00  0.00    +0.000 A 
ATOM     22  C   UNL     1       2.504   4.205  20.282  0.00  0.00    +0.000 A 
ATOM     23  C   UNL     1       1.340   3.644  20.810  0.00  0.00    +0.000 A 
ATOM     24  C   UNL     1       0.561   2.803  20.025  0.00  0.00    +0.000 A 
ATOM     25  C   UNL     1       0.932   2.542  18.709  0.00  0.00    +0.000 A 
ATOM     26  C   UNL     1       2.094   3.111  18.177  0.00  0.00    +0.000 A 
ENDBRANCH  19  21
ENDBRANCH   1  18
TORSDOF 3
ENDMDL
MODEL 5
REMARK VINA RESULT:      -7.8      3.041      8.153
REMARK  Name = 
REMARK  3 active torsions:
REMARK  status: ('A' for Active; 'I' for Inactive)
REMARK    1  A    between atoms: C_2  and  C_10
REMARK    2  A    between atoms: N_3  and  C_4
REMARK    3  A    between atoms: C_16  and  C_17
REMARK                            x       y       z     vdW  Elec       q    Type
REMARK                         _______ _______ _______ _____ _____    ______ ____
ROOT
ATOM      1  C   UNL     1       4.190   4.237  17.719  0.00  0.00    +0.000 A 
ATOM      2  C   UNL     1       4.222   2.961  18.271  0.00  0.00    +0.000 A 
ATOM      3  N   UNL     1       3.514   2.985  19.451  0.00  0.00    +0.000 N 
ATOM      4  C   UNL     1       3.016   4.237  19.675  0.00  0.00    +0.000 A 
ATOM      5  N   UNL     1       2.281   4.593  20.742  0.00  0.00    +0.000 NA
ATOM      6  C   UNL     1       1.893   5.899  20.696  0.00  0.00    +0.000 A 
ATOM      7  C   UNL     1       2.182   6.842  19.700  0.00  0.00    +0.000 A 
ATOM      8  C   UNL     1       2.979   6.383  18.643  0.00  0.00    +0.000 A 
ATOM      9  C   UNL     1       3.404   5.040  18.616  0.00  0.00    +0.000 A 
ATOM     10  H   UNL     1       3.367   2.210  20.083  0.00  0.00    +0.000 HD
ENDROOT
BRANCH   7  11
ATOM     11  C   UNL     1       1.661   8.226  19.731  0.00  0.00    +0.000 A 
ATOM     12  C   UNL     1       1.139   8.794  20.906  0.00  0.00    +0.000 A 
ATOM     13  C   UNL     1       0.604  10.086  20.916  0.00  0.00    +0.000 A 
ATOM     14  C   UNL     1       0.593  10.850  19.752  0.00  0.00    +0.000 A 
ATOM     15  C   UNL     1       1.126  10.324  18.581  0.00  0.00    +0.000 A 
ATOM     16  C   UNL     1       1.650   9.029  18.571  0.00  0.00    +0.000 A 
ENDBRANCH   7  11
BRANCH   1  18
ATOM     17  O   UNL     1       4.790   5.945  16.252  0.00  0.00    +0.000 OA
ATOM     18  C   UNL     1       4.815   4.742  16.495  0.00  0.00    +0.000 C 
ATOM     19  N   UNL     1       5.381   3.791  15.665  0.00  0.00    +0.000 N 
ATOM     20  H   UNL     1       5.170   2.822  15.852  0.00  0.00    +0.000 HD
BRANCH  19  21
ATOM     21  C   UNL     1       6.107   4.077  14.485  0.00  0.00    +0.000 A 
ATOM     22  C   UNL     1       7.182   4.972  14.447  0.00  0.00    +0.000 A 
ATOM     23  C   UNL     1       7.841   5.253  13.248  0.00  0.00    +0.000 A 
ATOM     24  C   UNL     1       7.433   4.632  12.074  0.00  0.00    +0.000 A 
ATOM     25  C   UNL     1       6.387   3.715  12.102  0.00  0.00    +0.000 A 
ATOM     26  C   UNL     1       5.732   3.428  13.304  0.00  0.00    +0.000 A 
ENDBRANCH  19  21
ENDBRANCH   1  18
TORSDOF 3
ENDMDL
MODEL 6
REMARK VINA RESULT:      -7.8      2.886      7.771
REMARK  Name = 
REMARK  3 active torsions:
REMARK  status: ('A' for Active; 'I' for Inactive)
REMARK    1  A    between atoms: C_2  and  C_10
REMARK    2  A    between atoms: N_3  and  C_4
REMARK    3  A    between atoms: C_16  and  C_17
REMARK                            x       y       z     vdW  Elec       q    Type
REMARK                         _______ _______ _______ _____ _____    ______ ____
ROOT
ATOM      1  C   UNL     1       4.604   3.721  18.748  0.00  0.00    +0.000 A 
ATOM      2  C   UNL     1       4.412   2.539  19.455  0.00  0.00    +0.000 A 
ATOM      3  N   UNL     1       3.417   2.752  20.384  0.00  0.00    +0.000 N 
ATOM      4  C   UNL     1       2.954   4.033  20.290  0.00  0.00    +0.000 A 
ATOM      5  N   UNL     1       1.983   4.557  21.057  0.00  0.00    +0.000 NA
ATOM      6  C   UNL     1       1.700   5.850  20.729  0.00  0.00    +0.000 A 
ATOM      7  C   UNL     1       2.300   6.630  19.731  0.00  0.00    +0.000 A 
ATOM      8  C   UNL     1       3.321   6.004  19.004  0.00  0.00    +0.000 A 
ATOM      9  C   UNL     1       3.657   4.663  19.278  0.00  0.00    +0.000 A 
ATOM     10  H   UNL     1       3.061   2.082  21.051  0.00  0.00    +0.000 HD
ENDROOT
BRANCH   7  11
ATOM     11  C   UNL     1       1.873   8.014  19.429  0.00  0.00    +0.000 A 
ATOM     12  C   UNL     1       1.200   8.803  20.378  0.00  0.00    +0.000 A 
ATOM     13  C   UNL     1       0.757  10.094  20.070  0.00  0.00    +0.000 A 
ATOM     14  C   UNL     1       0.991  10.633  18.808  0.00  0.00    +0.000 A 
ATOM     15  C   UNL     1       1.677   9.885  17.858  0.00  0.00    +0.000 A 
ATOM     16  C   UNL     1       2.110   8.592  18.166  0.00  0.00    +0.000 A 
ENDBRANCH   7  11
BRANCH   1  18
ATOM     17  O   UNL     1       6.734   4.259  17.968  0.00  0.00    +0.000 OA
ATOM     18  C   UNL     1       5.562   4.027  17.683  0.00  0.00    +0.000 C 
ATOM     19  N   UNL     1       5.052   4.060  16.398  0.00  0.00    +0.000 N 
ATOM     20  H   UNL     1       4.049   4.059  16.293  0.00  0.00    +0.000 HD
BRANCH  19  21
ATOM     21  C   UNL     1       5.822   4.250  15.227  0.00  0.00    +0.000 A 
ATOM     22  C   UNL     1       6.912   5.125  15.162  0.00  0.00    +0.000 A 
ATOM     23  C   UNL     1       7.616   5.310  13.970  0.00  0.00    +0.000 A 
ATOM     24  C   UNL     1       7.239   4.609  12.830  0.00  0.00    +0.000 A 
ATOM     25  C   UNL     1       6.178   3.711  12.888  0.00  0.00    +0.000 A 
ATOM     26  C   UNL     1       5.478   3.521  14.083  0.00  0.00    +0.000 A 
ENDBRANCH  19  21
ENDBRANCH   1  18
TORSDOF 3
ENDMDL
MODEL 7
REMARK VINA RESULT:      -7.7      3.106      8.181
REMARK  Name = 
REMARK  3 active torsions:
REMARK  status: ('A' for Active; 'I' for Inactive)
REMARK    1  A    between atoms: C_2  and  C_10
REMARK    2  A    between atoms: N_3  and  C_4
REMARK    3  A    between atoms: C_16  and  C_17
REMARK                            x       y       z     vdW  Elec       q    Type
REMARK                         _______ _______ _______ _____ _____    ______ ____
ROOT
ATOM      1  C   UNL     1       4.250   4.357  17.749  0.00  0.00    +0.000 A 
ATOM      2  C   UNL     1       4.335   3.113  18.365  0.00  0.00    +0.000 A 
ATOM      3  N   UNL     1       3.647   3.175  19.556  0.00  0.00    +0.000 N 
ATOM      4  C   UNL     1       3.109   4.419  19.723  0.00  0.00    +0.000 A 
ATOM      5  N   UNL     1       2.379   4.805  20.783  0.00  0.00    +0.000 NA
ATOM      6  C   UNL     1       1.944   6.093  20.677  0.00  0.00    +0.000 A 
ATOM      7  C   UNL     1       2.184   6.992  19.628  0.00  0.00    +0.000 A 
ATOM      8  C   UNL     1       2.979   6.506  18.581  0.00  0.00    +0.000 A 
ATOM      9  C   UNL     1       3.451   5.178  18.617  0.00  0.00    +0.000 A 
ATOM     10  H   UNL     1       3.538   2.430  20.229  0.00  0.00    +0.000 HD
ENDROOT
BRANCH   7  11
ATOM     11  C   UNL     1       1.615   8.357  19.596  0.00  0.00    +0.000 A 
ATOM     12  C   UNL     1       1.611   9.130  18.422  0.00  0.00    +0.000 A 
ATOM     13  C   UNL     1       1.115  10.438  18.412  0.00  0.00    +0.000 A 
ATOM     14  C   UNL     1       0.594  10.999  19.575  0.00  0.00    +0.000 A 
ATOM     15  C   UNL     1       0.561  10.249  20.745  0.00  0.00    +0.000 A 
ATOM     16  C   UNL     1       1.067   8.946  20.754  0.00  0.00    +0.000 A 
ENDBRANCH   7  11
BRANCH   1  18
ATOM     17  O   UNL     1       4.881   6.020  16.243  0.00  0.00    +0.000 OA
ATOM     18  C   UNL     1       4.836   4.818  16.489  0.00  0.00    +0.000 C 
ATOM     19  N   UNL     1       5.286   3.831  15.631  0.00  0.00    +0.000 N 
ATOM     20  H   UNL     1       5.020   2.879  15.833  0.00  0.00    +0.000 HD
BRANCH  19  21
ATOM     21  C   UNL     1       5.960   4.066  14.410  0.00  0.00    +0.000 A 
ATOM     22  C   UNL     1       5.599   3.453  13.206  0.00  0.00    +0.000 A 
ATOM     23  C   UNL     1       6.323   3.685  12.034  0.00  0.00    +0.000 A 
ATOM     24  C   UNL     1       7.414   4.544  12.057  0.00  0.00    +0.000 A 
ATOM     25  C   UNL     1       7.767   5.187  13.239  0.00  0.00    +0.000 A 
ATOM     26  C   UNL     1       7.037   4.960  14.411  0.00  0.00    +0.000 A 
ENDBRANCH  19  21
ENDBRANCH   1  18
TORSDOF 3
ENDMDL
MODEL 8
REMARK VINA RESULT:      -7.6      4.494      6.328
REMARK  Name = 
REMARK  3 active torsions:
REMARK  status: ('A' for Active; 'I' for Inactive)
REMARK    1  A    between atoms: C_2  and  C_10
REMARK    2  A    between atoms: N_3  and  C_4
REMARK    3  A    between atoms: C_16  and  C_17
REMARK                            x       y       z     vdW  Elec       q    Type
REMARK                         _______ _______ _______ _____ _____    ______ ____
ROOT
ATOM      1  C   UNL     1       2.171   7.279  19.503  0.00  0.00    +0.000 A 
ATOM      2  C   UNL     1       1.755   6.790  20.737  0.00  0.00    +0.000 A 
ATOM      3  N   UNL     1       2.312   5.543  20.914  0.00  0.00    +0.000 N 
ATOM      4  C   UNL     1       3.085   5.216  19.836  0.00  0.00    +0.000 A 
ATOM      5  N   UNL     1       3.765   4.066  19.699  0.00  0.00    +0.000 NA
ATOM      6  C   UNL     1       4.475   4.015  18.536  0.00  0.00    +0.000 A 
ATOM      7  C   UNL     1       4.546   4.994  17.534  0.00  0.00    +0.000 A 
ATOM      8  C   UNL     1       3.779   6.146  17.756  0.00  0.00    +0.000 A 
ATOM      9  C   UNL     1       3.032   6.273  18.944  0.00  0.00    +0.000 A 
ATOM     10  H   UNL     1       2.187   4.934  21.711  0.00  0.00    +0.000 HD
ENDROOT
BRANCH   7  11
ATOM     11  C   UNL     1       5.395   4.850  16.332  0.00  0.00    +0.000 A 
ATOM     12  C   UNL     1       6.712   5.341  16.293  0.00  0.00    +0.000 A 
ATOM     13  C   UNL     1       7.493   5.244  15.137  0.00  0.00    +0.000 A 
ATOM     14  C   UNL     1       6.979   4.638  13.993  0.00  0.00    +0.000 A 
ATOM     15  C   UNL     1       5.690   4.120  14.010  0.00  0.00    +0.000 A 
ATOM     16  C   UNL     1       4.908   4.228  15.164  0.00  0.00    +0.000 A 
ENDBRANCH   7  11
BRANCH   1  18
ATOM     17  O   UNL     1       2.207   8.734  17.683  0.00  0.00    +0.000 OA
ATOM     18  C   UNL     1       1.832   8.537  18.835  0.00  0.00    +0.000 C 
ATOM     19  N   UNL     1       1.116   9.451  19.587  0.00  0.00    +0.000 N 
ATOM     20  H   UNL     1       1.036   9.281  20.578  0.00  0.00    +0.000 HD
BRANCH  19  21
ATOM     21  C   UNL     1       0.617  10.683  19.102  0.00  0.00    +0.000 A 
ATOM     22  C   UNL     1       1.391  11.846  19.029  0.00  0.00    +0.000 A 
ATOM     23  C   UNL     1       0.841  13.049  18.583  0.00  0.00    +0.000 A 
ATOM     24  C   UNL     1      -0.492  13.097  18.196  0.00  0.00    +0.000 A 
ATOM     25  C   UNL     1      -1.267  11.941  18.232  0.00  0.00    +0.000 A 
ATOM     26  C   UNL     1      -0.713  10.734  18.672  0.00  0.00    +0.000 A 
ENDBRANCH  19  21
ENDBRANCH   1  18
TORSDOF 3
ENDMDL
MODEL 9
REMARK VINA RESULT:      -7.6      6.177      9.129
REMARK  Name = 
REMARK  3 active torsions:
REMARK  status: ('A' for Active; 'I' for Inactive)
REMARK    1  A    between atoms: C_2  and  C_10
REMARK    2  A    between atoms: N_3  and  C_4
REMARK    3  A    between atoms: C_16  and  C_17
REMARK                            x       y       z     vdW  Elec       q    Type
REMARK                         _______ _______ _______ _____ _____    ______ ____
ROOT
ATOM      1  C   UNL     1       1.165   8.680  20.987  0.00  0.00    +0.000 A 
ATOM      2  C   UNL     1       1.491   9.189  22.239  0.00  0.00    +0.000 A 
ATOM      3  N   UNL     1       0.764  10.341  22.439  0.00  0.00    +0.000 N 
ATOM      4  C   UNL     1      -0.032  10.587  21.356  0.00  0.00    +0.000 A 
ATOM      5  N   UNL     1      -0.863  11.635  21.235  0.00  0.00    +0.000 NA
ATOM      6  C   UNL     1      -1.558  11.618  20.062  0.00  0.00    +0.000 A 
ATOM      7  C   UNL     1      -1.478  10.666  19.035  0.00  0.00    +0.000 A 
ATOM      8  C   UNL     1      -0.561   9.627  19.241  0.00  0.00    +0.000 A 
ATOM      9  C   UNL     1       0.180   9.572  20.438  0.00  0.00    +0.000 A 
ATOM     10  H   UNL     1       0.792  10.940  23.252  0.00  0.00    +0.000 HD
ENDROOT
BRANCH   7  11
ATOM     11  C   UNL     1      -2.323  10.724  17.822  0.00  0.00    +0.000 A 
ATOM     12  C   UNL     1      -3.492  11.502  17.771  0.00  0.00    +0.000 A 
ATOM     13  C   UNL     1      -4.311  11.514  16.637  0.00  0.00    +0.000 A 
ATOM     14  C   UNL     1      -3.971  10.757  15.519  0.00  0.00    +0.000 A 
ATOM     15  C   UNL     1      -2.807   9.999  15.531  0.00  0.00    +0.000 A 
ATOM     16  C   UNL     1      -1.996   9.981  16.669  0.00  0.00    +0.000 A 
ENDBRANCH   7  11
BRANCH   1  18
ATOM     17  O   UNL     1       2.243   7.629  19.208  0.00  0.00    +0.000 OA
ATOM     18  C   UNL     1       1.684   7.500  20.293  0.00  0.00    +0.000 C 
ATOM     19  N   UNL     1       1.475   6.285  20.921  0.00  0.00    +0.000 N 
ATOM     20  H   UNL     1       0.833   6.266  21.699  0.00  0.00    +0.000 HD
BRANCH  19  21
ATOM     21  C   UNL     1       1.971   5.042  20.464  0.00  0.00    +0.000 A 
ATOM     22  C   UNL     1       3.306   4.841  20.095  0.00  0.00    +0.000 A 
ATOM     23  C   UNL     1       3.740   3.606  19.609  0.00  0.00    +0.000 A 
ATOM     24  C   UNL     1       2.839   2.554  19.496  0.00  0.00    +0.000 A 
ATOM     25  C   UNL     1       1.516   2.729  19.889  0.00  0.00    +0.000 A 
ATOM     26  C   UNL     1       1.083   3.964  20.383  0.00  0.00    +0.000 A 
ENDBRANCH  19  21
ENDBRANCH   1  18
TORSDOF 3
ENDMDL
