MODEL 1
REMARK VINA RESULT:      -7.7      0.000      0.000
REMARK  Name = 
REMARK  11 active torsions:
REMARK  status: ('A' for Active; 'I' for Inactive)
REMARK    1  A    between atoms: C_1  and  C_2
REMARK    2  A    between atoms: C_2  and  O_4
REMARK    3  A    between atoms: O_4  and  C_5
REMARK    4  A    between atoms: C_5  and  C_6
REMARK    5  A    between atoms: C_8  and  N_9
REMARK    6  A    between atoms: C_20  and  O_21
REMARK    7  A    between atoms: O_21  and  C_22
REMARK    8  A    between atoms: C_22  and  C_23
REMARK    9  A    between atoms: C_25  and  O_26
REMARK   10  A    between atoms: O_26  and  C_27
REMARK   11  A    between atoms: C_27  and  C_28
REMARK                            x       y       z     vdW  Elec       q    Type
REMARK                         _______ _______ _______ _____ _____    ______ ____
ROOT
ATOM      1  C   UNL     1       4.715   3.537  18.700  0.00  0.00    +0.000 C 
ATOM      2  O   UNL     1       3.532   3.568  17.858  0.00  0.00    +0.000 OA
ATOM      3  C   UNL     1       3.463   4.876  17.182  0.00  0.00    +0.000 C 
ATOM      4  C   UNL     1       4.958   5.275  17.119  0.00  0.00    +0.000 C 
ATOM      5  C   UNL     1       5.440   4.874  18.512  0.00  0.00    +0.000 C 
ENDROOT
BRANCH   3   6
ATOM      6  N   UNL     1       2.560   5.733  17.975  0.00  0.00    +0.000 N 
ATOM      7  C   UNL     1       1.941   5.167  19.050  0.00  0.00    +0.000 C 
ATOM      8  N   UNL     1       1.996   5.799  20.179  0.00  0.00    +0.000 NA
ATOM      9  C   UNL     1       2.533   7.148  19.789  0.00  0.00    +0.000 C 
ATOM     10  C   UNL     1       1.524   8.205  20.111  0.00  0.00    +0.000 C 
ATOM     11  O   UNL     1       0.638   8.056  20.947  0.00  0.00    +0.000 OA
ATOM     12  N   UNL     1       1.687   9.367  19.430  0.00  0.00    +0.000 NA
ATOM     13  C   UNL     1       2.125   9.297  18.198  0.00  0.00    +0.000 C 
ATOM     14  N   UNL     1       2.062  10.482  17.532  0.00  0.00    +0.000 N 
ATOM     15  N   UNL     1       2.509   8.144  17.546  0.00  0.00    +0.000 NA
ATOM     16  C   UNL     1       2.639   7.084  18.268  0.00  0.00    +0.000 C 
ATOM     17  H   UNL     1       1.070  10.727  17.496  0.00  0.00    +0.000 HD
ATOM     18  H   UNL     1       2.386  11.204  18.166  0.00  0.00    +0.000 HD
ENDBRANCH   3   6
BRANCH   1  19
ATOM     19  C   UNL     1       4.405   3.257  20.184  0.00  0.00    +0.000 C 
BRANCH  19  20
ATOM     20  O   UNL     1       3.703   2.021  20.359  0.00  0.00    +0.000 OA
BRANCH  20  22
ATOM     21  C   UNL     1       2.010   2.670  21.836  0.00  0.00    +0.000 C 
ATOM     22  C   UNL     1       2.353   2.136  20.482  0.00  0.00    +0.000 C 
ATOM     23  O   UNL     1       1.540   1.831  19.624  0.00  0.00    +0.000 OA
ENDBRANCH  20  22
ENDBRANCH  19  20
ENDBRANCH   1  19
BRANCH   4  24
ATOM     24  O   UNL     1       5.741   4.429  16.213  0.00  0.00    +0.000 OA
BRANCH  24  25
ATOM     25  C   UNL     1       6.481   5.029  15.251  0.00  0.00    +0.000 C 
ATOM     26  C   UNL     1       6.185   4.443  13.897  0.00  0.00    +0.000 C 
ATOM     27  O   UNL     1       7.271   5.933  15.463  0.00  0.00    +0.000 OA
ENDBRANCH  24  25
ENDBRANCH   4  24
BRANCH   5  28
ATOM     28  O   UNL     1       6.854   4.642  18.649  0.00  0.00    +0.000 OA
BRANCH  28  29
ATOM     29  C   UNL     1       7.539   5.517  19.423  0.00  0.00    +0.000 C 
ATOM     30  C   UNL     1       7.936   6.719  18.620  0.00  0.00    +0.000 C 
ATOM     31  O   UNL     1       7.775   5.358  20.611  0.00  0.00    +0.000 OA
ENDBRANCH  28  29
ENDBRANCH   5  28
TORSDOF 8
ENDMDL
MODEL 2
REMARK VINA RESULT:      -7.5      1.787      4.787
REMARK  Name = 
REMARK  11 active torsions:
REMARK  status: ('A' for Active; 'I' for Inactive)
REMARK    1  A    between atoms: C_1  and  C_2
REMARK    2  A    between atoms: C_2  and  O_4
REMARK    3  A    between atoms: O_4  and  C_5
REMARK    4  A    between atoms: C_5  and  C_6
REMARK    5  A    between atoms: C_8  and  N_9
REMARK    6  A    between atoms: C_20  and  O_21
REMARK    7  A    between atoms: O_21  and  C_22
REMARK    8  A    between atoms: C_22  and  C_23
REMARK    9  A    between atoms: C_25  and  O_26
REMARK   10  A    between atoms: O_26  and  C_27
REMARK   11  A    between atoms: C_27  and  C_28
REMARK                            x       y       z     vdW  Elec       q    Type
REMARK                         _______ _______ _______ _____ _____    ______ ____
ROOT
ATOM      1  C   UNL     1       5.053   5.000  18.630  0.00  0.00    +0.000 C 
ATOM      2  O   UNL     1       4.047   5.216  19.655  0.00  0.00    +0.000 OA
ATOM      3  C   UNL     1       2.781   5.600  19.005  0.00  0.00    +0.000 C 
ATOM      4  C   UNL     1       2.919   4.916  17.622  0.00  0.00    +0.000 C 
ATOM      5  C   UNL     1       4.375   5.221  17.274  0.00  0.00    +0.000 C 
ENDROOT
BRANCH   3   6
ATOM      6  N   UNL     1       2.702   7.074  19.032  0.00  0.00    +0.000 N 
ATOM      7  C   UNL     1       3.100   7.744  17.915  0.00  0.00    +0.000 C 
ATOM      8  N   UNL     1       2.307   8.653  17.442  0.00  0.00    +0.000 NA
ATOM      9  C   UNL     1       1.294   8.824  18.539  0.00  0.00    +0.000 C 
ATOM     10  C   UNL     1       1.351  10.223  19.065  0.00  0.00    +0.000 C 
ATOM     11  O   UNL     1       1.803  11.166  18.422  0.00  0.00    +0.000 OA
ATOM     12  N   UNL     1       0.826  10.382  20.307  0.00  0.00    +0.000 NA
ATOM     13  C   UNL     1       0.974   9.401  21.162  0.00  0.00    +0.000 C 
ATOM     14  N   UNL     1       0.600   9.727  22.429  0.00  0.00    +0.000 N 
ATOM     15  N   UNL     1       1.556   8.180  20.892  0.00  0.00    +0.000 NA
ATOM     16  C   UNL     1       1.789   7.909  19.654  0.00  0.00    +0.000 C 
ATOM     17  H   UNL     1       1.223  10.485  22.716  0.00  0.00    +0.000 HD
ATOM     18  H   UNL     1      -0.270  10.245  22.366  0.00  0.00    +0.000 HD
ENDBRANCH   3   6
BRANCH   1  19
ATOM     19  C   UNL     1       6.302   5.889  18.798  0.00  0.00    +0.000 C 
BRANCH  19  20
ATOM     20  O   UNL     1       6.268   7.026  17.927  0.00  0.00    +0.000 OA
BRANCH  20  22
ATOM     21  C   UNL     1       8.020   8.574  17.937  0.00  0.00    +0.000 C 
ATOM     22  C   UNL     1       7.452   7.331  17.329  0.00  0.00    +0.000 C 
ATOM     23  O   UNL     1       7.965   6.699  16.421  0.00  0.00    +0.000 OA
ENDBRANCH  20  22
ENDBRANCH  19  20
ENDBRANCH   1  19
BRANCH   4  24
ATOM     24  O   UNL     1       2.869   3.453  17.698  0.00  0.00    +0.000 OA
BRANCH  24  25
ATOM     25  C   UNL     1       1.830   2.877  18.348  0.00  0.00    +0.000 C 
ATOM     26  C   UNL     1       2.310   2.044  19.505  0.00  0.00    +0.000 C 
ATOM     27  O   UNL     1       0.661   3.031  18.035  0.00  0.00    +0.000 OA
ENDBRANCH  24  25
ENDBRANCH   4  24
BRANCH   5  28
ATOM     28  O   UNL     1       4.992   4.345  16.314  0.00  0.00    +0.000 OA
BRANCH  28  29
ATOM     29  C   UNL     1       5.457   4.921  15.179  0.00  0.00    +0.000 C 
ATOM     30  C   UNL     1       6.171   3.906  14.338  0.00  0.00    +0.000 C 
ATOM     31  O   UNL     1       5.292   6.093  14.877  0.00  0.00    +0.000 OA
ENDBRANCH  28  29
ENDBRANCH   5  28
TORSDOF 8
ENDMDL
MODEL 3
REMARK VINA RESULT:      -7.2      1.842      3.092
REMARK  Name = 
REMARK  11 active torsions:
REMARK  status: ('A' for Active; 'I' for Inactive)
REMARK    1  A    between atoms: C_1  and  C_2
REMARK    2  A    between atoms: C_2  and  O_4
REMARK    3  A    between atoms: O_4  and  C_5
REMARK    4  A    between atoms: C_5  and  C_6
REMARK    5  A    between atoms: C_8  and  N_9
REMARK    6  A    between atoms: C_20  and  O_21
REMARK    7  A    between atoms: O_21  and  C_22
REMARK    8  A    between atoms: C_22  and  C_23
REMARK    9  A    between atoms: C_25  and  O_26
REMARK   10  A    between atoms: O_26  and  C_27
REMARK   11  A    between atoms: C_27  and  C_28
REMARK                            x       y       z     vdW  Elec       q    Type
REMARK                         _______ _______ _______ _____ _____    ______ ____
ROOT
ATOM      1  C   UNL     1       3.579   4.449  17.495  0.00  0.00    +0.000 C 
ATOM      2  O   UNL     1       3.507   5.860  17.160  0.00  0.00    +0.000 OA
ATOM      3  C   UNL     1       3.846   6.651  18.357  0.00  0.00    +0.000 C 
ATOM      4  C   UNL     1       4.769   5.674  19.127  0.00  0.00    +0.000 C 
ATOM      5  C   UNL     1       4.022   4.352  18.959  0.00  0.00    +0.000 C 
ENDROOT
BRANCH   3   6
ATOM      6  N   UNL     1       2.576   7.041  19.000  0.00  0.00    +0.000 N 
ATOM      7  C   UNL     1       2.215   6.372  20.131  0.00  0.00    +0.000 C 
ATOM      8  N   UNL     1       1.858   7.073  21.159  0.00  0.00    +0.000 NA
ATOM      9  C   UNL     1       1.710   8.457  20.592  0.00  0.00    +0.000 C 
ATOM     10  C   UNL     1       0.293   8.914  20.739  0.00  0.00    +0.000 C 
ATOM     11  O   UNL     1      -0.482   8.447  21.569  0.00  0.00    +0.000 OA
ATOM     12  N   UNL     1      -0.065   9.921  19.902  0.00  0.00    +0.000 NA
ATOM     13  C   UNL     1       0.459   9.934  18.702  0.00  0.00    +0.000 C 
ATOM     14  N   UNL     1      -0.108  10.851  17.873  0.00  0.00    +0.000 N 
ATOM     15  N   UNL     1       1.407   9.051  18.231  0.00  0.00    +0.000 NA
ATOM     16  C   UNL     1       1.968   8.281  19.099  0.00  0.00    +0.000 C 
ATOM     17  H   UNL     1      -1.088  10.573  17.781  0.00  0.00    +0.000 HD
ATOM     18  H   UNL     1      -0.230  11.706  18.405  0.00  0.00    +0.000 HD
ENDBRANCH   3   6
BRANCH   1  19
ATOM     19  C   UNL     1       2.261   3.690  17.244  0.00  0.00    +0.000 C 
BRANCH  19  20
ATOM     20  O   UNL     1       1.259   4.025  18.212  0.00  0.00    +0.000 OA
BRANCH  20  22
ATOM     21  C   UNL     1       0.692   3.228  20.336  0.00  0.00    +0.000 C 
ATOM     22  C   UNL     1       0.707   2.966  18.864  0.00  0.00    +0.000 C 
ATOM     23  O   UNL     1       0.303   1.946  18.330  0.00  0.00    +0.000 OA
ENDBRANCH  20  22
ENDBRANCH  19  20
ENDBRANCH   1  19
BRANCH   4  24
ATOM     24  O   UNL     1       6.052   5.447  18.455  0.00  0.00    +0.000 OA
BRANCH  24  25
ATOM     25  C   UNL     1       7.186   5.837  19.084  0.00  0.00    +0.000 C 
ATOM     26  C   UNL     1       7.872   6.941  18.325  0.00  0.00    +0.000 C 
ATOM     27  O   UNL     1       7.583   5.359  20.133  0.00  0.00    +0.000 OA
ENDBRANCH  24  25
ENDBRANCH   4  24
BRANCH   5  28
ATOM     28  O   UNL     1       4.809   3.157  19.113  0.00  0.00    +0.000 OA
BRANCH  28  29
ATOM     29  C   UNL     1       4.157   2.055  19.555  0.00  0.00    +0.000 C 
ATOM     30  C   UNL     1       3.938   2.141  21.035  0.00  0.00    +0.000 C 
ATOM     31  O   UNL     1       3.780   1.137  18.841  0.00  0.00    +0.000 OA
ENDBRANCH  28  29
ENDBRANCH   5  28
TORSDOF 8
ENDMDL
MODEL 4
REMARK VINA RESULT:      -7.1      1.831      2.690
REMARK  Name = 
REMARK  11 active torsions:
REMARK  status: ('A' for Active; 'I' for Inactive)
REMARK    1  A    between atoms: C_1  and  C_2
REMARK    2  A    between atoms: C_2  and  O_4
REMARK    3  A    between atoms: O_4  and  C_5
REMARK    4  A    between atoms: C_5  and  C_6
REMARK    5  A    between atoms: C_8  and  N_9
REMARK    6  A    between atoms: C_20  and  O_21
REMARK    7  A    between atoms: O_21  and  C_22
REMARK    8  A    between atoms: C_22  and  C_23
REMARK    9  A    between atoms: C_25  and  O_26
REMARK   10  A    between atoms: O_26  and  C_27
REMARK   11  A    between atoms: C_27  and  C_28
REMARK                            x       y       z     vdW  Elec       q    Type
REMARK                         _______ _______ _______ _____ _____    ______ ____
ROOT
ATOM      1  C   UNL     1       3.328   5.176  19.137  0.00  0.00    +0.000 C 
ATOM      2  O   UNL     1       2.274   5.777  18.337  0.00  0.00    +0.000 OA
ATOM      3  C   UNL     1       2.847   6.883  17.549  0.00  0.00    +0.000 C 
ATOM      4  C   UNL     1       4.321   6.429  17.398  0.00  0.00    +0.000 C 
ATOM      5  C   UNL     1       4.628   5.916  18.804  0.00  0.00    +0.000 C 
ENDROOT
BRANCH   3   6
ATOM      6  N   UNL     1       2.590   8.132  18.293  0.00  0.00    +0.000 N 
ATOM      7  C   UNL     1       2.915   9.305  17.680  0.00  0.00    +0.000 C 
ATOM      8  N   UNL     1       2.022  10.243  17.662  0.00  0.00    +0.000 NA
ATOM      9  C   UNL     1       0.984   9.744  18.628  0.00  0.00    +0.000 C 
ATOM     10  C   UNL     1       0.866  10.694  19.777  0.00  0.00    +0.000 C 
ATOM     11  O   UNL     1       1.207  11.872  19.714  0.00  0.00    +0.000 OA
ATOM     12  N   UNL     1       0.312  10.161  20.896  0.00  0.00    +0.000 NA
ATOM     13  C   UNL     1       0.569   8.906  21.166  0.00  0.00    +0.000 C 
ATOM     14  N   UNL     1       0.146   8.519  22.400  0.00  0.00    +0.000 N 
ATOM     15  N   UNL     1       1.298   8.046  20.371  0.00  0.00    +0.000 NA
ATOM     16  C   UNL     1       1.576   8.450  19.180  0.00  0.00    +0.000 C 
ATOM     17  H   UNL     1       0.669   9.093  23.065  0.00  0.00    +0.000 HD
ATOM     18  H   UNL     1      -0.780   8.910  22.539  0.00  0.00    +0.000 HD
ENDBRANCH   3   6
BRANCH   1  19
ATOM     19  C   UNL     1       3.033   5.189  20.650  0.00  0.00    +0.000 C 
BRANCH  19  20
ATOM     20  O   UNL     1       1.701   4.744  20.938  0.00  0.00    +0.000 OA
BRANCH  20  22
ATOM     21  C   UNL     1       0.900   2.772  19.972  0.00  0.00    +0.000 C 
ATOM     22  C   UNL     1       1.571   3.406  21.148  0.00  0.00    +0.000 C 
ATOM     23  O   UNL     1       1.930   2.814  22.152  0.00  0.00    +0.000 OA
ENDBRANCH  20  22
ENDBRANCH  19  20
ENDBRANCH   1  19
BRANCH   4  24
ATOM     24  O   UNL     1       4.473   5.246  16.546  0.00  0.00    +0.000 OA
BRANCH  24  25
ATOM     25  C   UNL     1       5.376   5.292  15.538  0.00  0.00    +0.000 C 
ATOM     26  C   UNL     1       5.977   3.935  15.289  0.00  0.00    +0.000 C 
ATOM     27  O   UNL     1       5.650   6.302  14.913  0.00  0.00    +0.000 OA
ENDBRANCH  24  25
ENDBRANCH   4  24
BRANCH   5  28
ATOM     28  O   UNL     1       5.717   4.982  18.913  0.00  0.00    +0.000 OA
BRANCH  28  29
ATOM     29  C   UNL     1       6.916   5.490  19.286  0.00  0.00    +0.000 C 
ATOM     30  C   UNL     1       7.496   6.316  18.177  0.00  0.00    +0.000 C 
ATOM     31  O   UNL     1       7.434   5.319  20.379  0.00  0.00    +0.000 OA
ENDBRANCH  28  29
ENDBRANCH   5  28
TORSDOF 8
ENDMDL
MODEL 5
REMARK VINA RESULT:      -7.0      1.704      4.701
REMARK  Name = 
REMARK  11 active torsions:
REMARK  status: ('A' for Active; 'I' for Inactive)
REMARK    1  A    between atoms: C_1  and  C_2
REMARK    2  A    between atoms: C_2  and  O_4
REMARK    3  A    between atoms: O_4  and  C_5
REMARK    4  A    between atoms: C_5  and  C_6
REMARK    5  A    between atoms: C_8  and  N_9
REMARK    6  A    between atoms: C_20  and  O_21
REMARK    7  A    between atoms: O_21  and  C_22
REMARK    8  A    between atoms: C_22  and  C_23
REMARK    9  A    between atoms: C_25  and  O_26
REMARK   10  A    between atoms: O_26  and  C_27
REMARK   11  A    between atoms: C_27  and  C_28
REMARK                            x       y       z     vdW  Elec       q    Type
REMARK                         _______ _______ _______ _____ _____    ______ ____
ROOT
ATOM      1  C   UNL     1       5.260   4.734  18.814  0.00  0.00    +0.000 C 
ATOM      2  O   UNL     1       4.289   5.083  19.836  0.00  0.00    +0.000 OA
ATOM      3  C   UNL     1       3.001   5.388  19.186  0.00  0.00    +0.000 C 
ATOM      4  C   UNL     1       3.092   4.534  17.896  0.00  0.00    +0.000 C 
ATOM      5  C   UNL     1       4.536   4.786  17.464  0.00  0.00    +0.000 C 
ENDROOT
BRANCH   3   6
ATOM      6  N   UNL     1       2.924   6.854  19.030  0.00  0.00    +0.000 N 
ATOM      7  C   UNL     1       3.397   7.387  17.868  0.00  0.00    +0.000 C 
ATOM      8  N   UNL     1       2.639   8.227  17.238  0.00  0.00    +0.000 NA
ATOM      9  C   UNL     1       1.555   8.523  18.236  0.00  0.00    +0.000 C 
ATOM     10  C   UNL     1       1.581   9.976  18.592  0.00  0.00    +0.000 C 
ATOM     11  O   UNL     1       2.077  10.837  17.871  0.00  0.00    +0.000 OA
ATOM     12  N   UNL     1       0.974  10.279  19.767  0.00  0.00    +0.000 NA
ATOM     13  C   UNL     1       1.062   9.410  20.743  0.00  0.00    +0.000 C 
ATOM     14  N   UNL     1       0.605   9.884  21.934  0.00  0.00    +0.000 N 
ATOM     15  N   UNL     1       1.658   8.169  20.662  0.00  0.00    +0.000 NA
ATOM     16  C   UNL     1       1.973   7.751  19.484  0.00  0.00    +0.000 C 
ATOM     17  H   UNL     1       1.209  10.675  22.167  0.00  0.00    +0.000 HD
ATOM     18  H   UNL     1      -0.257  10.385  21.750  0.00  0.00    +0.000 HD
ENDBRANCH   3   6
BRANCH   1  19
ATOM     19  C   UNL     1       6.513   5.632  18.826  0.00  0.00    +0.000 C 
BRANCH  19  20
ATOM     20  O   UNL     1       6.327   6.819  18.046  0.00  0.00    +0.000 OA
BRANCH  20  22
ATOM     21  C   UNL     1       7.921   8.518  17.839  0.00  0.00    +0.000 C 
ATOM     22  C   UNL     1       7.410   7.211  17.322  0.00  0.00    +0.000 C 
ATOM     23  O   UNL     1       7.883   6.599  16.378  0.00  0.00    +0.000 OA
ENDBRANCH  20  22
ENDBRANCH  19  20
ENDBRANCH   1  19
BRANCH   4  24
ATOM     24  O   UNL     1       3.045   3.092  18.158  0.00  0.00    +0.000 OA
BRANCH  24  25
ATOM     25  C   UNL     1       2.218   2.642  19.131  0.00  0.00    +0.000 C 
ATOM     26  C   UNL     1       0.797   2.572  18.643  0.00  0.00    +0.000 C 
ATOM     27  O   UNL     1       2.589   2.327  20.249  0.00  0.00    +0.000 OA
ENDBRANCH  24  25
ENDBRANCH   4  24
BRANCH   5  28
ATOM     28  O   UNL     1       5.120   3.793  16.602  0.00  0.00    +0.000 OA
BRANCH  28  29
ATOM     29  C   UNL     1       5.637   4.236  15.431  0.00  0.00    +0.000 C 
ATOM     30  C   UNL     1       5.069   5.581  15.089  0.00  0.00    +0.000 C 
ATOM     31  O   UNL     1       6.467   3.635  14.766  0.00  0.00    +0.000 OA
ENDBRANCH  28  29
ENDBRANCH   5  28
TORSDOF 8
ENDMDL
MODEL 6
REMARK VINA RESULT:      -6.9      1.726      4.625
REMARK  Name = 
REMARK  11 active torsions:
REMARK  status: ('A' for Active; 'I' for Inactive)
REMARK    1  A    between atoms: C_1  and  C_2
REMARK    2  A    between atoms: C_2  and  O_4
REMARK    3  A    between atoms: O_4  and  C_5
REMARK    4  A    between atoms: C_5  and  C_6
REMARK    5  A    between atoms: C_8  and  N_9
REMARK    6  A    between atoms: C_20  and  O_21
REMARK    7  A    between atoms: O_21  and  C_22
REMARK    8  A    between atoms: C_22  and  C_23
REMARK    9  A    between atoms: C_25  and  O_26
REMARK   10  A    between atoms: O_26  and  C_27
REMARK   11  A    between atoms: C_27  and  C_28
REMARK                            x       y       z     vdW  Elec       q    Type
REMARK                         _______ _______ _______ _____ _____    ______ ____
ROOT
ATOM      1  C   UNL     1       4.631   4.957  18.724  0.00  0.00    +0.000 C 
ATOM      2  O   UNL     1       3.651   5.150  19.778  0.00  0.00    +0.000 OA
ATOM      3  C   UNL     1       2.385   5.602  19.174  0.00  0.00    +0.000 C 
ATOM      4  C   UNL     1       2.477   4.986  17.756  0.00  0.00    +0.000 C 
ATOM      5  C   UNL     1       3.934   5.267  17.394  0.00  0.00    +0.000 C 
ENDROOT
BRANCH   3   6
ATOM      6  N   UNL     1       2.350   7.075  19.278  0.00  0.00    +0.000 N 
ATOM      7  C   UNL     1       2.677   7.790  18.165  0.00  0.00    +0.000 C 
ATOM      8  N   UNL     1       1.875   8.739  17.801  0.00  0.00    +0.000 NA
ATOM      9  C   UNL     1       0.957   8.880  18.983  0.00  0.00    +0.000 C 
ATOM     10  C   UNL     1       1.095  10.250  19.569  0.00  0.00    +0.000 C 
ATOM     11  O   UNL     1       1.521  11.212  18.937  0.00  0.00    +0.000 OA
ATOM     12  N   UNL     1       0.674  10.359  20.855  0.00  0.00    +0.000 NA
ATOM     13  C   UNL     1       0.862   9.334  21.648  0.00  0.00    +0.000 C 
ATOM     14  N   UNL     1       0.599   9.605  22.955  0.00  0.00    +0.000 N 
ATOM     15  N   UNL     1       1.386   8.114  21.274  0.00  0.00    +0.000 NA
ATOM     16  C   UNL     1       1.513   7.899  20.010  0.00  0.00    +0.000 C 
ATOM     17  H   UNL     1       1.264  10.333  23.226  0.00  0.00    +0.000 HD
ATOM     18  H   UNL     1      -0.259  10.147  22.986  0.00  0.00    +0.000 HD
ENDBRANCH   3   6
BRANCH   1  19
ATOM     19  C   UNL     1       5.908   5.801  18.911  0.00  0.00    +0.000 C 
BRANCH  19  20
ATOM     20  O   UNL     1       6.769   5.250  19.915  0.00  0.00    +0.000 OA
BRANCH  20  22
ATOM     21  C   UNL     1       8.243   6.697  18.819  0.00  0.00    +0.000 C 
ATOM     22  C   UNL     1       8.086   5.565  19.784  0.00  0.00    +0.000 C 
ATOM     23  O   UNL     1       9.004   4.998  20.352  0.00  0.00    +0.000 OA
ENDBRANCH  20  22
ENDBRANCH  19  20
ENDBRANCH   1  19
BRANCH   4  24
ATOM     24  O   UNL     1       2.385   3.523  17.759  0.00  0.00    +0.000 OA
BRANCH  24  25
ATOM     25  C   UNL     1       1.380   2.943  18.455  0.00  0.00    +0.000 C 
ATOM     26  C   UNL     1       1.917   2.102  19.582  0.00  0.00    +0.000 C 
ATOM     27  O   UNL     1       0.197   3.097  18.202  0.00  0.00    +0.000 OA
ENDBRANCH  24  25
ENDBRANCH   4  24
BRANCH   5  28
ATOM     28  O   UNL     1       4.508   4.424  16.379  0.00  0.00    +0.000 OA
BRANCH  28  29
ATOM     29  C   UNL     1       5.329   5.026  15.485  0.00  0.00    +0.000 C 
ATOM     30  C   UNL     1       6.099   3.996  14.714  0.00  0.00    +0.000 C 
ATOM     31  O   UNL     1       5.407   6.233  15.316  0.00  0.00    +0.000 OA
ENDBRANCH  28  29
ENDBRANCH   5  28
TORSDOF 8
ENDMDL
MODEL 7
REMARK VINA RESULT:      -6.9      2.512      6.358
REMARK  Name = 
REMARK  11 active torsions:
REMARK  status: ('A' for Active; 'I' for Inactive)
REMARK    1  A    between atoms: C_1  and  C_2
REMARK    2  A    between atoms: C_2  and  O_4
REMARK    3  A    between atoms: O_4  and  C_5
REMARK    4  A    between atoms: C_5  and  C_6
REMARK    5  A    between atoms: C_8  and  N_9
REMARK    6  A    between atoms: C_20  and  O_21
REMARK    7  A    between atoms: O_21  and  C_22
REMARK    8  A    between atoms: C_22  and  C_23
REMARK    9  A    between atoms: C_25  and  O_26
REMARK   10  A    between atoms: O_26  and  C_27
REMARK   11  A    between atoms: C_27  and  C_28
REMARK                            x       y       z     vdW  Elec       q    Type
REMARK                         _______ _______ _______ _____ _____    ______ ____
ROOT
ATOM      1  C   UNL     1       1.847   6.450  18.401  0.00  0.00    +0.000 C 
ATOM      2  O   UNL     1       2.245   5.467  17.408  0.00  0.00    +0.000 OA
ATOM      3  C   UNL     1       3.230   4.552  18.012  0.00  0.00    +0.000 C 
ATOM      4  C   UNL     1       2.837   4.614  19.510  0.00  0.00    +0.000 C 
ATOM      5  C   UNL     1       2.589   6.109  19.698  0.00  0.00    +0.000 C 
ENDROOT
BRANCH   3   6
ATOM      6  N   UNL     1       4.571   5.040  17.637  0.00  0.00    +0.000 N 
ATOM      7  C   UNL     1       4.701   5.650  16.426  0.00  0.00    +0.000 C 
ATOM      8  N   UNL     1       5.309   6.793  16.389  0.00  0.00    +0.000 NA
ATOM      9  C   UNL     1       5.924   6.896  17.757  0.00  0.00    +0.000 C 
ATOM     10  C   UNL     1       7.414   6.954  17.637  0.00  0.00    +0.000 C 
ATOM     11  O   UNL     1       7.994   7.313  16.617  0.00  0.00    +0.000 OA
ATOM     12  N   UNL     1       8.084   6.611  18.767  0.00  0.00    +0.000 NA
ATOM     13  C   UNL     1       7.568   5.675  19.523  0.00  0.00    +0.000 C 
ATOM     14  N   UNL     1       8.402   5.257  20.513  0.00  0.00    +0.000 N 
ATOM     15  N   UNL     1       6.356   5.050  19.314  0.00  0.00    +0.000 NA
ATOM     16  C   UNL     1       5.582   5.567  18.423  0.00  0.00    +0.000 C 
ATOM     17  H   UNL     1       9.217   4.860  20.040  0.00  0.00    +0.000 HD
ATOM     18  H   UNL     1       8.833   6.083  20.916  0.00  0.00    +0.000 HD
ENDBRANCH   3   6
BRANCH   1  19
ATOM     19  C   UNL     1       2.102   7.905  17.961  0.00  0.00    +0.000 C 
BRANCH  19  20
ATOM     20  O   UNL     1       0.880   8.608  17.707  0.00  0.00    +0.000 OA
BRANCH  20  22
ATOM     21  C   UNL     1      -0.533  10.366  18.323  0.00  0.00    +0.000 C 
ATOM     22  C   UNL     1       0.873   9.914  18.089  0.00  0.00    +0.000 C 
ATOM     23  O   UNL     1       1.863  10.617  18.204  0.00  0.00    +0.000 OA
ENDBRANCH  20  22
ENDBRANCH  19  20
ENDBRANCH   1  19
BRANCH   4  24
ATOM     24  O   UNL     1       1.536   3.998  19.788  0.00  0.00    +0.000 OA
BRANCH  24  25
ATOM     25  C   UNL     1       1.506   2.695  20.153  0.00  0.00    +0.000 C 
ATOM     26  C   UNL     1       1.484   2.553  21.651  0.00  0.00    +0.000 C 
ATOM     27  O   UNL     1       1.488   1.765  19.364  0.00  0.00    +0.000 OA
ENDBRANCH  24  25
ENDBRANCH   4  24
BRANCH   5  28
ATOM     28  O   UNL     1       1.747   6.475  20.806  0.00  0.00    +0.000 OA
BRANCH  28  29
ATOM     29  C   UNL     1       1.505   7.798  20.972  0.00  0.00    +0.000 C 
ATOM     30  C   UNL     1       0.043   8.030  21.212  0.00  0.00    +0.000 C 
ATOM     31  O   UNL     1       2.361   8.669  20.954  0.00  0.00    +0.000 OA
ENDBRANCH  28  29
ENDBRANCH   5  28
TORSDOF 8
ENDMDL
MODEL 8
REMARK VINA RESULT:      -6.8      7.160     10.032
REMARK  Name = 
REMARK  11 active torsions:
REMARK  status: ('A' for Active; 'I' for Inactive)
REMARK    1  A    between atoms: C_1  and  C_2
REMARK    2  A    between atoms: C_2  and  O_4
REMARK    3  A    between atoms: O_4  and  C_5
REMARK    4  A    between atoms: C_5  and  C_6
REMARK    5  A    between atoms: C_8  and  N_9
REMARK    6  A    between atoms: C_20  and  O_21
REMARK    7  A    between atoms: O_21  and  C_22
REMARK    8  A    between atoms: C_22  and  C_23
REMARK    9  A    between atoms: C_25  and  O_26
REMARK   10  A    between atoms: O_26  and  C_27
REMARK   11  A    between atoms: C_27  and  C_28
REMARK                            x       y       z     vdW  Elec       q    Type
REMARK                         _______ _______ _______ _____ _____    ______ ____
ROOT
ATOM      1  C   UNL     1      -0.532  11.692  19.754  0.00  0.00    +0.000 C 
ATOM      2  O   UNL     1      -1.385  12.866  19.696  0.00  0.00    +0.000 OA
ATOM      3  C   UNL     1      -1.843  13.189  21.060  0.00  0.00    +0.000 C 
ATOM      4  C   UNL     1      -0.689  12.618  21.921  0.00  0.00    +0.000 C 
ATOM      5  C   UNL     1      -0.421  11.283  21.227  0.00  0.00    +0.000 C 
ENDROOT
BRANCH   3   6
ATOM      6  N   UNL     1      -3.182  12.589  21.226  0.00  0.00    +0.000 N 
ATOM      7  C   UNL     1      -3.705  12.563  22.484  0.00  0.00    +0.000 C 
ATOM      8  N   UNL     1      -4.916  12.995  22.642  0.00  0.00    +0.000 NA
ATOM      9  C   UNL     1      -5.419  13.121  21.231  0.00  0.00    +0.000 C 
ATOM     10  C   UNL     1      -6.580  12.201  21.026  0.00  0.00    +0.000 C 
ATOM     11  O   UNL     1      -7.274  11.777  21.945  0.00  0.00    +0.000 OA
ATOM     12  N   UNL     1      -6.837  11.897  19.728  0.00  0.00    +0.000 NA
ATOM     13  C   UNL     1      -5.817  11.784  18.914  0.00  0.00    +0.000 C 
ATOM     14  N   UNL     1      -6.150  11.281  17.695  0.00  0.00    +0.000 N 
ATOM     15  N   UNL     1      -4.498  12.021  19.241  0.00  0.00    +0.000 NA
ATOM     16  C   UNL     1      -4.273  12.590  20.375  0.00  0.00    +0.000 C 
ATOM     17  H   UNL     1      -6.511  10.342  17.872  0.00  0.00    +0.000 HD
ATOM     18  H   UNL     1      -7.009  11.735  17.404  0.00  0.00    +0.000 HD
ENDBRANCH   3   6
BRANCH   1  19
ATOM     19  C   UNL     1      -1.030  10.528  18.873  0.00  0.00    +0.000 C 
BRANCH  19  20
ATOM     20  O   UNL     1      -1.670  10.998  17.681  0.00  0.00    +0.000 OA
BRANCH  20  22
ATOM     21  C   UNL     1      -2.613  10.294  15.660  0.00  0.00    +0.000 C 
ATOM     22  C   UNL     1      -2.593  10.151  17.148  0.00  0.00    +0.000 C 
ATOM     23  O   UNL     1      -3.311   9.402  17.789  0.00  0.00    +0.000 OA
ENDBRANCH  20  22
ENDBRANCH  19  20
ENDBRANCH   1  19
BRANCH   4  24
ATOM     24  O   UNL     1       0.565  13.360  21.765  0.00  0.00    +0.000 OA
BRANCH  24  25
ATOM     25  C   UNL     1       0.573  14.681  22.063  0.00  0.00    +0.000 C 
ATOM     26  C   UNL     1       1.064  15.495  20.898  0.00  0.00    +0.000 C 
ATOM     27  O   UNL     1       0.215  15.139  23.135  0.00  0.00    +0.000 OA
ENDBRANCH  24  25
ENDBRANCH   4  24
BRANCH   5  28
ATOM     28  O   UNL     1       0.882  10.712  21.438  0.00  0.00    +0.000 OA
BRANCH  28  29
ATOM     29  C   UNL     1       0.938   9.601  22.212  0.00  0.00    +0.000 C 
ATOM     30  C   UNL     1       1.199   8.392  21.364  0.00  0.00    +0.000 C 
ATOM     31  O   UNL     1       0.820   9.594  23.428  0.00  0.00    +0.000 OA
ENDBRANCH  28  29
ENDBRANCH   5  28
TORSDOF 8
ENDMDL
MODEL 9
REMARK VINA RESULT:      -6.6      0.936      1.218
REMARK  Name = 
REMARK  11 active torsions:
REMARK  status: ('A' for Active; 'I' for Inactive)
REMARK    1  A    between atoms: C_1  and  C_2
REMARK    2  A    between atoms: C_2  and  O_4
REMARK    3  A    between atoms: O_4  and  C_5
REMARK    4  A    between atoms: C_5  and  C_6
REMARK    5  A    between atoms: C_8  and  N_9
REMARK    6  A    between atoms: C_20  and  O_21
REMARK    7  A    between atoms: O_21  and  C_22
REMARK    8  A    between atoms: C_22  and  C_23
REMARK    9  A    between atoms: C_25  and  O_26
REMARK   10  A    between atoms: O_26  and  C_27
REMARK   11  A    between atoms: C_27  and  C_28
REMARK                            x       y       z     vdW  Elec       q    Type
REMARK                         _______ _______ _______ _____ _____    ______ ____
ROOT
ATOM      1  C   UNL     1       4.629   3.502  18.494  0.00  0.00    +0.000 C 
ATOM      2  O   UNL     1       3.432   3.610  17.679  0.00  0.00    +0.000 OA
ATOM      3  C   UNL     1       3.346   4.979  17.139  0.00  0.00    +0.000 C 
ATOM      4  C   UNL     1       4.838   5.392  17.093  0.00  0.00    +0.000 C 
ATOM      5  C   UNL     1       5.345   4.856  18.431  0.00  0.00    +0.000 C 
ENDROOT
BRANCH   3   6
ATOM      6  N   UNL     1       2.452   5.746  18.029  0.00  0.00    +0.000 N 
ATOM      7  C   UNL     1       1.961   5.107  19.128  0.00  0.00    +0.000 C 
ATOM      8  N   UNL     1       2.061   5.708  20.271  0.00  0.00    +0.000 NA
ATOM      9  C   UNL     1       2.472   7.102  19.887  0.00  0.00    +0.000 C 
ATOM     10  C   UNL     1       1.422   8.075  20.323  0.00  0.00    +0.000 C 
ATOM     11  O   UNL     1       0.617   7.839  21.220  0.00  0.00    +0.000 OA
ATOM     12  N   UNL     1       1.451   9.265  19.672  0.00  0.00    +0.000 NA
ATOM     13  C   UNL     1       1.793   9.263  18.408  0.00  0.00    +0.000 C 
ATOM     14  N   UNL     1       1.597  10.459  17.791  0.00  0.00    +0.000 N 
ATOM     15  N   UNL     1       2.203   8.159  17.689  0.00  0.00    +0.000 NA
ATOM     16  C   UNL     1       2.462   7.090  18.362  0.00  0.00    +0.000 C 
ATOM     17  H   UNL     1       0.591  10.634  17.839  0.00  0.00    +0.000 HD
ATOM     18  H   UNL     1       1.921  11.183  18.423  0.00  0.00    +0.000 HD
ENDBRANCH   3   6
BRANCH   1  19
ATOM     19  C   UNL     1       4.345   3.073  19.948  0.00  0.00    +0.000 C 
BRANCH  19  20
ATOM     20  O   UNL     1       5.207   2.008  20.368  0.00  0.00    +0.000 OA
BRANCH  20  22
ATOM     21  C   UNL     1       3.372   1.632  21.767  0.00  0.00    +0.000 C 
ATOM     22  C   UNL     1       4.818   1.361  21.500  0.00  0.00    +0.000 C 
ATOM     23  O   UNL     1       5.543   0.677  22.203  0.00  0.00    +0.000 OA
ENDBRANCH  20  22
ENDBRANCH  19  20
ENDBRANCH   1  19
BRANCH   4  24
ATOM     24  O   UNL     1       5.609   4.646  16.094  0.00  0.00    +0.000 OA
BRANCH  24  25
ATOM     25  C   UNL     1       5.723   5.166  14.849  0.00  0.00    +0.000 C 
ATOM     26  C   UNL     1       6.003   4.090  13.837  0.00  0.00    +0.000 C 
ATOM     27  O   UNL     1       5.600   6.352  14.592  0.00  0.00    +0.000 OA
ENDBRANCH  24  25
ENDBRANCH   4  24
BRANCH   5  28
ATOM     28  O   UNL     1       6.761   4.620  18.521  0.00  0.00    +0.000 OA
BRANCH  28  29
ATOM     29  C   UNL     1       7.481   5.517  19.238  0.00  0.00    +0.000 C 
ATOM     30  C   UNL     1       7.837   6.696  18.384  0.00  0.00    +0.000 C 
ATOM     31  O   UNL     1       7.771   5.391  20.418  0.00  0.00    +0.000 OA
ENDBRANCH  28  29
ENDBRANCH   5  28
TORSDOF 8
ENDMDL
