MODEL 1
REMARK VINA RESULT:      -7.3      0.000      0.000
REMARK  Name = 
REMARK  5 active torsions:
REMARK  status: ('A' for Active; 'I' for Inactive)
REMARK    1  A    between atoms: C_2  and  O_3
REMARK    2  A    between atoms: C_2  and  C_4
REMARK    3  A    between atoms: C_4  and  C_5
REMARK    4  A    between atoms: C_5  and  C_6
REMARK    5  A    between atoms: N_8  and  C_9
REMARK                            x       y       z     vdW  Elec       q    Type
REMARK                         _______ _______ _______ _____ _____    ______ ____
ROOT
ATOM      1  C   UNL     1       5.825   5.382  15.335  0.00  0.00    +0.000 C 
ATOM      2  O   UNL     1       5.505   6.563  15.452  0.00  0.00    +0.000 OA
ATOM      3  N   UNL     1       5.533   4.355  16.217  0.00  0.00    +0.000 N 
ATOM      4  H   UNL     1       6.092   3.505  16.137  0.00  0.00    +0.000 HD
ENDROOT
BRANCH   3   5
ATOM      5  C   UNL     1       4.696   4.456  17.353  0.00  0.00    +0.000 A 
ATOM      6  C   UNL     1       5.002   5.281  18.434  0.00  0.00    +0.000 A 
ATOM      7  C   UNL     1       4.174   5.326  19.556  0.00  0.00    +0.000 A 
ATOM      8  C   UNL     1       3.015   4.551  19.620  0.00  0.00    +0.000 A 
ATOM      9  C   UNL     1       2.201   4.582  20.762  0.00  0.00    +0.000 A 
ATOM     10  C   UNL     1       1.048   3.804  20.834  0.00  0.00    +0.000 A 
ATOM     11  C   UNL     1       0.696   2.991  19.758  0.00  0.00    +0.000 A 
ATOM     12  C   UNL     1       1.497   2.955  18.611  0.00  0.00    +0.000 A 
ATOM     13  C   UNL     1       2.669   3.729  18.523  0.00  0.00    +0.000 A 
ATOM     14  C   UNL     1       3.514   3.703  17.390  0.00  0.00    +0.000 A 
ENDBRANCH   3   5
BRANCH   1  15
ATOM     15  C   UNL     1       6.708   4.969  14.177  0.00  0.00    +0.000 C 
BRANCH  15  16
ATOM     16  C   UNL     1       6.188   3.678  13.558  0.00  0.00    +0.000 C 
BRANCH  16  18
ATOM     17  O   UNL     1       7.345   4.348  11.547  0.00  0.00    +0.000 OA
ATOM     18  C   UNL     1       6.746   3.484  12.170  0.00  0.00    +0.000 C 
BRANCH  18  19
ATOM     19  O   UNL     1       6.531   2.250  11.676  0.00  0.00    +0.000 OA
ATOM     20  H   UNL     1       6.113   2.235  10.793  0.00  0.00    +0.000 HD
ENDBRANCH  18  19
ENDBRANCH  16  18
ENDBRANCH  15  16
ENDBRANCH   1  15
TORSDOF 5
ENDMDL
MODEL 2
REMARK VINA RESULT:      -7.2      1.283      1.315
REMARK  Name = 
REMARK  5 active torsions:
REMARK  status: ('A' for Active; 'I' for Inactive)
REMARK    1  A    between atoms: C_2  and  O_3
REMARK    2  A    between atoms: C_2  and  C_4
REMARK    3  A    between atoms: C_4  and  C_5
REMARK    4  A    between atoms: C_5  and  C_6
REMARK    5  A    between atoms: N_8  and  C_9
REMARK                            x       y       z     vdW  Elec       q    Type
REMARK                         _______ _______ _______ _____ _____    ______ ____
ROOT
ATOM      1  C   UNL     1       6.383   4.626  15.927  0.00  0.00    +0.000 C 
ATOM      2  O   UNL     1       7.182   4.678  16.859  0.00  0.00    +0.000 OA
ATOM      3  N   UNL     1       5.004   4.551  16.023  0.00  0.00    +0.000 N 
ATOM      4  H   UNL     1       4.499   4.234  15.194  0.00  0.00    +0.000 HD
ENDROOT
BRANCH   3   5
ATOM      5  C   UNL     1       4.254   4.656  17.218  0.00  0.00    +0.000 A 
ATOM      6  C   UNL     1       3.681   5.856  17.636  0.00  0.00    +0.000 A 
ATOM      7  C   UNL     1       2.981   5.932  18.841  0.00  0.00    +0.000 A 
ATOM      8  C   UNL     1       2.831   4.806  19.652  0.00  0.00    +0.000 A 
ATOM      9  C   UNL     1       2.147   4.896  20.875  0.00  0.00    +0.000 A 
ATOM     10  C   UNL     1       2.002   3.778  21.691  0.00  0.00    +0.000 A 
ATOM     11  C   UNL     1       2.536   2.555  21.288  0.00  0.00    +0.000 A 
ATOM     12  C   UNL     1       3.216   2.451  20.070  0.00  0.00    +0.000 A 
ATOM     13  C   UNL     1       3.377   3.572  19.234  0.00  0.00    +0.000 A 
ATOM     14  C   UNL     1       4.075   3.510  18.006  0.00  0.00    +0.000 A 
ENDBRANCH   3   5
BRANCH   1  15
ATOM     15  C   UNL     1       6.909   4.535  14.510  0.00  0.00    +0.000 C 
BRANCH  15  16
ATOM     16  C   UNL     1       5.837   3.965  13.591  0.00  0.00    +0.000 C 
BRANCH  16  18
ATOM     17  O   UNL     1       7.256   4.122  11.643  0.00  0.00    +0.000 OA
ATOM     18  C   UNL     1       6.440   3.485  12.294  0.00  0.00    +0.000 C 
BRANCH  18  19
ATOM     19  O   UNL     1       5.999   2.270  11.916  0.00  0.00    +0.000 OA
ATOM     20  H   UNL     1       6.321   1.976  11.042  0.00  0.00    +0.000 HD
ENDBRANCH  18  19
ENDBRANCH  16  18
ENDBRANCH  15  16
ENDBRANCH   1  15
TORSDOF 5
ENDMDL
MODEL 3
REMARK VINA RESULT:      -7.2      0.781      1.050
REMARK  Name = 
REMARK  5 active torsions:
REMARK  status: ('A' for Active; 'I' for Inactive)
REMARK    1  A    between atoms: C_2  and  O_3
REMARK    2  A    between atoms: C_2  and  C_4
REMARK    3  A    between atoms: C_4  and  C_5
REMARK    4  A    between atoms: C_5  and  C_6
REMARK    5  A    between atoms: N_8  and  C_9
REMARK                            x       y       z     vdW  Elec       q    Type
REMARK                         _______ _______ _______ _____ _____    ______ ____
ROOT
ATOM      1  C   UNL     1       5.799   4.622  14.930  0.00  0.00    +0.000 C 
ATOM      2  O   UNL     1       5.577   5.831  14.967  0.00  0.00    +0.000 OA
ATOM      3  N   UNL     1       5.511   3.698  15.920  0.00  0.00    +0.000 N 
ATOM      4  H   UNL     1       5.998   2.802  15.871  0.00  0.00    +0.000 HD
ENDROOT
BRANCH   3   5
ATOM      5  C   UNL     1       4.786   3.958  17.106  0.00  0.00    +0.000 A 
ATOM      6  C   UNL     1       5.322   4.693  18.162  0.00  0.00    +0.000 A 
ATOM      7  C   UNL     1       4.593   4.896  19.334  0.00  0.00    +0.000 A 
ATOM      8  C   UNL     1       3.306   4.375  19.474  0.00  0.00    +0.000 A 
ATOM      9  C   UNL     1       2.589   4.562  20.666  0.00  0.00    +0.000 A 
ATOM     10  C   UNL     1       1.308   4.037  20.814  0.00  0.00    +0.000 A 
ATOM     11  C   UNL     1       0.730   3.323  19.766  0.00  0.00    +0.000 A 
ATOM     12  C   UNL     1       1.432   3.134  18.570  0.00  0.00    +0.000 A 
ATOM     13  C   UNL     1       2.731   3.652  18.405  0.00  0.00    +0.000 A 
ATOM     14  C   UNL     1       3.479   3.463  17.221  0.00  0.00    +0.000 A 
ENDBRANCH   3   5
BRANCH   1  15
ATOM     15  C   UNL     1       6.545   4.046  13.745  0.00  0.00    +0.000 C 
BRANCH  15  16
ATOM     16  C   UNL     1       5.564   3.665  12.645  0.00  0.00    +0.000 C 
BRANCH  16  18
ATOM     17  O   UNL     1       5.394   1.639  11.342  0.00  0.00    +0.000 OA
ATOM     18  C   UNL     1       6.096   2.516  11.824  0.00  0.00    +0.000 C 
BRANCH  18  19
ATOM     19  O   UNL     1       7.431   2.549  11.660  0.00  0.00    +0.000 OA
ATOM     20  H   UNL     1       7.798   1.792  11.163  0.00  0.00    +0.000 HD
ENDBRANCH  18  19
ENDBRANCH  16  18
ENDBRANCH  15  16
ENDBRANCH   1  15
TORSDOF 5
ENDMDL
MODEL 4
REMARK VINA RESULT:      -7.2      3.266      4.786
REMARK  Name = 
REMARK  5 active torsions:
REMARK  status: ('A' for Active; 'I' for Inactive)
REMARK    1  A    between atoms: C_2  and  O_3
REMARK    2  A    between atoms: C_2  and  C_4
REMARK    3  A    between atoms: C_4  and  C_5
REMARK    4  A    between atoms: C_5  and  C_6
REMARK    5  A    between atoms: N_8  and  C_9
REMARK                            x       y       z     vdW  Elec       q    Type
REMARK                         _______ _______ _______ _____ _____    ______ ____
ROOT
ATOM      1  C   UNL     1       7.335   5.821  18.437  0.00  0.00    +0.000 C 
ATOM      2  O   UNL     1       7.779   4.680  18.335  0.00  0.00    +0.000 OA
ATOM      3  N   UNL     1       6.004   6.199  18.386  0.00  0.00    +0.000 N 
ATOM      4  H   UNL     1       5.810   7.184  18.203  0.00  0.00    +0.000 HD
ENDROOT
BRANCH   3   5
ATOM      5  C   UNL     1       4.898   5.318  18.338  0.00  0.00    +0.000 A 
ATOM      6  C   UNL     1       4.575   4.587  17.196  0.00  0.00    +0.000 A 
ATOM      7  C   UNL     1       3.453   3.758  17.171  0.00  0.00    +0.000 A 
ATOM      8  C   UNL     1       2.631   3.635  18.292  0.00  0.00    +0.000 A 
ATOM      9  C   UNL     1       1.490   2.819  18.252  0.00  0.00    +0.000 A 
ATOM     10  C   UNL     1       0.662   2.700  19.364  0.00  0.00    +0.000 A 
ATOM     11  C   UNL     1       0.973   3.393  20.533  0.00  0.00    +0.000 A 
ATOM     12  C   UNL     1       2.110   4.206  20.588  0.00  0.00    +0.000 A 
ATOM     13  C   UNL     1       2.955   4.344  19.471  0.00  0.00    +0.000 A 
ATOM     14  C   UNL     1       4.101   5.172  19.482  0.00  0.00    +0.000 A 
ENDBRANCH   3   5
BRANCH   1  15
ATOM     15  C   UNL     1       8.303   6.982  18.536  0.00  0.00    +0.000 C 
BRANCH  15  16
ATOM     16  C   UNL     1       7.798   8.154  17.706  0.00  0.00    +0.000 C 
BRANCH  16  18
ATOM     17  O   UNL     1       8.252  10.525  17.620  0.00  0.00    +0.000 OA
ATOM     18  C   UNL     1       8.396   9.453  18.189  0.00  0.00    +0.000 C 
BRANCH  18  19
ATOM     19  O   UNL     1       9.104   9.324  19.327  0.00  0.00    +0.000 OA
ATOM     20  H   UNL     1       8.770   9.857  20.075  0.00  0.00    +0.000 HD
ENDBRANCH  18  19
ENDBRANCH  16  18
ENDBRANCH  15  16
ENDBRANCH   1  15
TORSDOF 5
ENDMDL
MODEL 5
REMARK VINA RESULT:      -6.9      3.985      5.733
REMARK  Name = 
REMARK  5 active torsions:
REMARK  status: ('A' for Active; 'I' for Inactive)
REMARK    1  A    between atoms: C_2  and  O_3
REMARK    2  A    between atoms: C_2  and  C_4
REMARK    3  A    between atoms: C_4  and  C_5
REMARK    4  A    between atoms: C_5  and  C_6
REMARK    5  A    between atoms: N_8  and  C_9
REMARK                            x       y       z     vdW  Elec       q    Type
REMARK                         _______ _______ _______ _____ _____    ______ ____
ROOT
ATOM      1  C   UNL     1       7.661   7.813  17.818  0.00  0.00    +0.000 C 
ATOM      2  O   UNL     1       8.158   7.063  18.655  0.00  0.00    +0.000 OA
ATOM      3  N   UNL     1       6.589   7.531  16.988  0.00  0.00    +0.000 N 
ATOM      4  H   UNL     1       6.471   8.127  16.167  0.00  0.00    +0.000 HD
ENDROOT
BRANCH   3   5
ATOM      5  C   UNL     1       5.784   6.370  17.046  0.00  0.00    +0.000 A 
ATOM      6  C   UNL     1       6.188   5.154  16.498  0.00  0.00    +0.000 A 
ATOM      7  C   UNL     1       5.351   4.038  16.538  0.00  0.00    +0.000 A 
ATOM      8  C   UNL     1       4.091   4.111  17.134  0.00  0.00    +0.000 A 
ATOM      9  C   UNL     1       3.244   2.992  17.148  0.00  0.00    +0.000 A 
ATOM     10  C   UNL     1       1.984   3.062  17.733  0.00  0.00    +0.000 A 
ATOM     11  C   UNL     1       1.560   4.255  18.318  0.00  0.00    +0.000 A 
ATOM     12  C   UNL     1       2.396   5.376  18.315  0.00  0.00    +0.000 A 
ATOM     13  C   UNL     1       3.672   5.326  17.722  0.00  0.00    +0.000 A 
ATOM     14  C   UNL     1       4.536   6.443  17.682  0.00  0.00    +0.000 A 
ENDBRANCH   3   5
BRANCH   1  15
ATOM     15  C   UNL     1       8.305   9.158  17.560  0.00  0.00    +0.000 C 
BRANCH  15  16
ATOM     16  C   UNL     1       8.944   9.685  18.838  0.00  0.00    +0.000 C 
BRANCH  16  18
ATOM     17  O   UNL     1       9.142  11.879  17.848  0.00  0.00    +0.000 OA
ATOM     18  C   UNL     1       9.591  11.028  18.602  0.00  0.00    +0.000 C 
BRANCH  18  19
ATOM     19  O   UNL     1      10.717  11.211  19.315  0.00  0.00    +0.000 OA
ATOM     20  H   UNL     1      11.542  11.147  18.795  0.00  0.00    +0.000 HD
ENDBRANCH  18  19
ENDBRANCH  16  18
ENDBRANCH  15  16
ENDBRANCH   1  15
TORSDOF 5
ENDMDL
MODEL 6
REMARK VINA RESULT:      -6.9      1.174      1.732
REMARK  Name = 
REMARK  5 active torsions:
REMARK  status: ('A' for Active; 'I' for Inactive)
REMARK    1  A    between atoms: C_2  and  O_3
REMARK    2  A    between atoms: C_2  and  C_4
REMARK    3  A    between atoms: C_4  and  C_5
REMARK    4  A    between atoms: C_5  and  C_6
REMARK    5  A    between atoms: N_8  and  C_9
REMARK                            x       y       z     vdW  Elec       q    Type
REMARK                         _______ _______ _______ _____ _____    ______ ____
ROOT
ATOM      1  C   UNL     1       5.297   5.138  15.713  0.00  0.00    +0.000 C 
ATOM      2  O   UNL     1       4.921   6.261  16.040  0.00  0.00    +0.000 OA
ATOM      3  N   UNL     1       4.889   3.936  16.265  0.00  0.00    +0.000 N 
ATOM      4  H   UNL     1       5.482   3.123  16.093  0.00  0.00    +0.000 HD
ENDROOT
BRANCH   3   5
ATOM      5  C   UNL     1       3.859   3.774  17.221  0.00  0.00    +0.000 A 
ATOM      6  C   UNL     1       2.532   4.106  16.951  0.00  0.00    +0.000 A 
ATOM      7  C   UNL     1       1.548   3.971  17.932  0.00  0.00    +0.000 A 
ATOM      8  C   UNL     1       1.868   3.495  19.204  0.00  0.00    +0.000 A 
ATOM      9  C   UNL     1       0.878   3.386  20.193  0.00  0.00    +0.000 A 
ATOM     10  C   UNL     1       1.193   2.919  21.465  0.00  0.00    +0.000 A 
ATOM     11  C   UNL     1       2.505   2.550  21.759  0.00  0.00    +0.000 A 
ATOM     12  C   UNL     1       3.501   2.648  20.781  0.00  0.00    +0.000 A 
ATOM     13  C   UNL     1       3.201   3.124  19.491  0.00  0.00    +0.000 A 
ATOM     14  C   UNL     1       4.184   3.257  18.483  0.00  0.00    +0.000 A 
ENDBRANCH   3   5
BRANCH   1  15
ATOM     15  C   UNL     1       6.388   5.001  14.672  0.00  0.00    +0.000 C 
BRANCH  15  16
ATOM     16  C   UNL     1       6.316   3.627  14.019  0.00  0.00    +0.000 C 
BRANCH  16  18
ATOM     17  O   UNL     1       7.244   4.395  11.926  0.00  0.00    +0.000 OA
ATOM     18  C   UNL     1       6.397   3.740  12.516  0.00  0.00    +0.000 C 
BRANCH  18  19
ATOM     19  O   UNL     1       5.446   3.037  11.875  0.00  0.00    +0.000 OA
ATOM     20  H   UNL     1       5.358   2.110  12.170  0.00  0.00    +0.000 HD
ENDBRANCH  18  19
ENDBRANCH  16  18
ENDBRANCH  15  16
ENDBRANCH   1  15
TORSDOF 5
ENDMDL
MODEL 7
REMARK VINA RESULT:      -6.9      3.216      4.974
REMARK  Name = 
REMARK  5 active torsions:
REMARK  status: ('A' for Active; 'I' for Inactive)
REMARK    1  A    between atoms: C_2  and  O_3
REMARK    2  A    between atoms: C_2  and  C_4
REMARK    3  A    between atoms: C_4  and  C_5
REMARK    4  A    between atoms: C_5  and  C_6
REMARK    5  A    between atoms: N_8  and  C_9
REMARK                            x       y       z     vdW  Elec       q    Type
REMARK                         _______ _______ _______ _____ _____    ______ ____
ROOT
ATOM      1  C   UNL     1       6.887   6.699  17.783  0.00  0.00    +0.000 C 
ATOM      2  O   UNL     1       7.499   5.741  18.250  0.00  0.00    +0.000 OA
ATOM      3  N   UNL     1       5.549   6.734  17.430  0.00  0.00    +0.000 N 
ATOM      4  H   UNL     1       5.255   7.486  16.805  0.00  0.00    +0.000 HD
ENDROOT
BRANCH   3   5
ATOM      5  C   UNL     1       4.606   5.706  17.667  0.00  0.00    +0.000 A 
ATOM      6  C   UNL     1       4.476   4.604  16.825  0.00  0.00    +0.000 A 
ATOM      7  C   UNL     1       3.508   3.629  17.067  0.00  0.00    +0.000 A 
ATOM      8  C   UNL     1       2.651   3.730  18.164  0.00  0.00    +0.000 A 
ATOM      9  C   UNL     1       1.663   2.759  18.387  0.00  0.00    +0.000 A 
ATOM     10  C   UNL     1       0.801   2.860  19.475  0.00  0.00    +0.000 A 
ATOM     11  C   UNL     1       0.923   3.934  20.355  0.00  0.00    +0.000 A 
ATOM     12  C   UNL     1       1.907   4.907  20.147  0.00  0.00    +0.000 A 
ATOM     13  C   UNL     1       2.784   4.824  19.049  0.00  0.00    +0.000 A 
ATOM     14  C   UNL     1       3.777   5.798  18.794  0.00  0.00    +0.000 A 
ENDBRANCH   3   5
BRANCH   1  15
ATOM     15  C   UNL     1       7.646   7.967  17.451  0.00  0.00    +0.000 C 
BRANCH  15  16
ATOM     16  C   UNL     1       8.612   8.307  18.578  0.00  0.00    +0.000 C 
BRANCH  16  18
ATOM     17  O   UNL     1       9.427  10.342  19.592  0.00  0.00    +0.000 OA
ATOM     18  C   UNL     1       8.798   9.800  18.695  0.00  0.00    +0.000 C 
BRANCH  18  19
ATOM     19  O   UNL     1       8.207  10.492  17.703  0.00  0.00    +0.000 OA
ATOM     20  H   UNL     1       7.363  10.112  17.390  0.00  0.00    +0.000 HD
ENDBRANCH  18  19
ENDBRANCH  16  18
ENDBRANCH  15  16
ENDBRANCH   1  15
TORSDOF 5
ENDMDL
MODEL 8
REMARK VINA RESULT:      -6.9      1.342      1.634
REMARK  Name = 
REMARK  5 active torsions:
REMARK  status: ('A' for Active; 'I' for Inactive)
REMARK    1  A    between atoms: C_2  and  O_3
REMARK    2  A    between atoms: C_2  and  C_4
REMARK    3  A    between atoms: C_4  and  C_5
REMARK    4  A    between atoms: C_5  and  C_6
REMARK    5  A    between atoms: N_8  and  C_9
REMARK                            x       y       z     vdW  Elec       q    Type
REMARK                         _______ _______ _______ _____ _____    ______ ____
ROOT
ATOM      1  C   UNL     1       6.706   4.905  16.537  0.00  0.00    +0.000 C 
ATOM      2  O   UNL     1       7.225   4.392  17.526  0.00  0.00    +0.000 OA
ATOM      3  N   UNL     1       5.363   5.196  16.365  0.00  0.00    +0.000 N 
ATOM      4  H   UNL     1       5.044   5.354  15.408  0.00  0.00    +0.000 HD
ENDROOT
BRANCH   3   5
ATOM      5  C   UNL     1       4.359   5.075  17.354  0.00  0.00    +0.000 A 
ATOM      6  C   UNL     1       4.182   6.027  18.357  0.00  0.00    +0.000 A 
ATOM      7  C   UNL     1       3.207   5.855  19.340  0.00  0.00    +0.000 A 
ATOM      8  C   UNL     1       2.381   4.730  19.339  0.00  0.00    +0.000 A 
ATOM      9  C   UNL     1       1.420   4.551  20.346  0.00  0.00    +0.000 A 
ATOM     10  C   UNL     1       0.600   3.427  20.354  0.00  0.00    +0.000 A 
ATOM     11  C   UNL     1       0.731   2.470  19.349  0.00  0.00    +0.000 A 
ATOM     12  C   UNL     1       1.682   2.639  18.336  0.00  0.00    +0.000 A 
ATOM     13  C   UNL     1       2.524   3.767  18.315  0.00  0.00    +0.000 A 
ATOM     14  C   UNL     1       3.509   3.961  17.321  0.00  0.00    +0.000 A 
ENDBRANCH   3   5
BRANCH   1  15
ATOM     15  C   UNL     1       7.560   5.182  15.318  0.00  0.00    +0.000 C 
BRANCH  15  16
ATOM     16  C   UNL     1       6.866   4.661  14.066  0.00  0.00    +0.000 C 
BRANCH  16  18
ATOM     17  O   UNL     1       7.430   4.550  11.720  0.00  0.00    +0.000 OA
ATOM     18  C   UNL     1       7.651   5.019  12.828  0.00  0.00    +0.000 C 
BRANCH  18  19
ATOM     19  O   UNL     1       8.623   5.922  13.053  0.00  0.00    +0.000 OA
ATOM     20  H   UNL     1       8.301   6.817  13.277  0.00  0.00    +0.000 HD
ENDBRANCH  18  19
ENDBRANCH  16  18
ENDBRANCH  15  16
ENDBRANCH   1  15
TORSDOF 5
ENDMDL
MODEL 9
REMARK VINA RESULT:      -6.8      4.455      5.980
REMARK  Name = 
REMARK  5 active torsions:
REMARK  status: ('A' for Active; 'I' for Inactive)
REMARK    1  A    between atoms: C_2  and  O_3
REMARK    2  A    between atoms: C_2  and  C_4
REMARK    3  A    between atoms: C_4  and  C_5
REMARK    4  A    between atoms: C_5  and  C_6
REMARK    5  A    between atoms: N_8  and  C_9
REMARK                            x       y       z     vdW  Elec       q    Type
REMARK                         _______ _______ _______ _____ _____    ______ ____
ROOT
ATOM      1  C   UNL     1       2.738   4.922  17.786  0.00  0.00    +0.000 C 
ATOM      2  O   UNL     1       1.553   4.596  17.770  0.00  0.00    +0.000 OA
ATOM      3  N   UNL     1       3.248   6.176  18.074  0.00  0.00    +0.000 N 
ATOM      4  H   UNL     1       4.206   6.365  17.777  0.00  0.00    +0.000 HD
ENDROOT
BRANCH   3   5
ATOM      5  C   UNL     1       2.500   7.285  18.535  0.00  0.00    +0.000 A 
ATOM      6  C   UNL     1       2.123   8.332  17.695  0.00  0.00    +0.000 A 
ATOM      7  C   UNL     1       1.420   9.429  18.192  0.00  0.00    +0.000 A 
ATOM      8  C   UNL     1       1.070   9.502  19.542  0.00  0.00    +0.000 A 
ATOM      9  C   UNL     1       0.384  10.621  20.040  0.00  0.00    +0.000 A 
ATOM     10  C   UNL     1       0.040  10.702  21.386  0.00  0.00    +0.000 A 
ATOM     11  C   UNL     1       0.375   9.658  22.248  0.00  0.00    +0.000 A 
ATOM     12  C   UNL     1       1.053   8.535  21.763  0.00  0.00    +0.000 A 
ATOM     13  C   UNL     1       1.415   8.438  20.406  0.00  0.00    +0.000 A 
ATOM     14  C   UNL     1       2.119   7.329  19.884  0.00  0.00    +0.000 A 
ENDBRANCH   3   5
BRANCH   1  15
ATOM     15  C   UNL     1       3.784   3.913  17.362  0.00  0.00    +0.000 C 
BRANCH  15  16
ATOM     16  C   UNL     1       3.512   2.569  18.025  0.00  0.00    +0.000 C 
BRANCH  16  18
ATOM     17  O   UNL     1       3.175   2.527  20.416  0.00  0.00    +0.000 OA
ATOM     18  C   UNL     1       3.947   2.583  19.470  0.00  0.00    +0.000 C 
BRANCH  18  19
ATOM     19  O   UNL     1       5.282   2.655  19.625  0.00  0.00    +0.000 OA
ATOM     20  H   UNL     1       5.797   2.279  18.885  0.00  0.00    +0.000 HD
ENDBRANCH  18  19
ENDBRANCH  16  18
ENDBRANCH  15  16
ENDBRANCH   1  15
TORSDOF 5
ENDMDL
