MODEL 1
REMARK VINA RESULT:      -7.0      0.000      0.000
REMARK  Name = 
REMARK  3 active torsions:
REMARK  status: ('A' for Active; 'I' for Inactive)
REMARK    1  A    between atoms: C_1  and  C_2
REMARK    2  A    between atoms: C_12  and  C_13
REMARK    3  A    between atoms: C_13  and  C_14
REMARK                            x       y       z     vdW  Elec       q    Type
REMARK                         _______ _______ _______ _____ _____    ______ ____
ROOT
ATOM      1  C   UNL     1       2.646   4.959  20.410  0.00  0.00    +0.000 C 
ATOM      2  C   UNL     1       2.507   6.187  19.585  0.00  0.00    +0.000 A 
ATOM      3  N   UNL     1       1.732   7.215  20.094  0.00  0.00    +0.000 NA
ATOM      4  C   UNL     1       1.725   8.265  19.303  0.00  0.00    +0.000 A 
ATOM      5  N   UNL     1       1.173   9.461  19.646  0.00  0.00    +0.000 N 
ATOM      6  C   UNL     1       0.607  10.374  18.647  0.00  0.00    +0.000 C 
ATOM      7  C   UNL     1       0.659  11.812  19.194  0.00  0.00    +0.000 C 
ATOM      8  O   UNL     1       0.002  11.924  20.468  0.00  0.00    +0.000 OA
ATOM      9  C   UNL     1       0.611  11.039  21.424  0.00  0.00    +0.000 C 
ATOM     10  C   UNL     1       0.533   9.577  20.963  0.00  0.00    +0.000 C 
ATOM     11  S   UNL     1       2.604   8.015  17.834  0.00  0.00    +0.000 S 
ATOM     12  C   UNL     1       3.110   6.467  18.369  0.00  0.00    +0.000 A 
ENDROOT
BRANCH  12  13
ATOM     13  C   UNL     1       4.123   5.696  17.588  0.00  0.00    +0.000 C 
BRANCH  13  14
ATOM     14  C   UNL     1       5.561   6.051  17.869  0.00  0.00    +0.000 A 
ATOM     15  C   UNL     1       6.203   7.088  17.175  0.00  0.00    +0.000 A 
ATOM     16  C   UNL     1       7.500   7.478  17.524  0.00  0.00    +0.000 A 
ATOM     17  C   UNL     1       8.170   6.831  18.563  0.00  0.00    +0.000 A 
ATOM     18  C   UNL     1       7.555   5.778  19.235  0.00  0.00    +0.000 A 
ATOM     19  C   UNL     1       6.264   5.393  18.880  0.00  0.00    +0.000 A 
ATOM     20  F   UNL     1       5.683   4.390  19.555  0.00  0.00    +0.000 F 
ENDBRANCH  13  14
ENDBRANCH  12  13
TORSDOF 2
ENDMDL
MODEL 2
REMARK VINA RESULT:      -6.8      1.878      2.312
REMARK  Name = 
REMARK  3 active torsions:
REMARK  status: ('A' for Active; 'I' for Inactive)
REMARK    1  A    between atoms: C_1  and  C_2
REMARK    2  A    between atoms: C_12  and  C_13
REMARK    3  A    between atoms: C_13  and  C_14
REMARK                            x       y       z     vdW  Elec       q    Type
REMARK                         _______ _______ _______ _____ _____    ______ ____
ROOT
ATOM      1  C   UNL     1       2.176   4.077  21.439  0.00  0.00    +0.000 C 
ATOM      2  C   UNL     1       2.480   5.107  20.413  0.00  0.00    +0.000 A 
ATOM      3  N   UNL     1       1.770   6.295  20.470  0.00  0.00    +0.000 NA
ATOM      4  C   UNL     1       2.160   7.145  19.547  0.00  0.00    +0.000 A 
ATOM      5  N   UNL     1       1.735   8.437  19.489  0.00  0.00    +0.000 N 
ATOM      6  C   UNL     1       1.634   9.169  18.221  0.00  0.00    +0.000 C 
ATOM      7  C   UNL     1       1.761  10.677  18.500  0.00  0.00    +0.000 C 
ATOM      8  O   UNL     1       0.795  11.127  19.466  0.00  0.00    +0.000 OA
ATOM      9  C   UNL     1       0.954  10.409  20.702  0.00  0.00    +0.000 C 
ATOM     10  C   UNL     1       0.774   8.898  20.500  0.00  0.00    +0.000 C 
ATOM     11  S   UNL     1       3.367   6.498  18.492  0.00  0.00    +0.000 S 
ATOM     12  C   UNL     1       3.442   5.057  19.417  0.00  0.00    +0.000 A 
ENDROOT
BRANCH  12  13
ATOM     13  C   UNL     1       4.496   4.037  19.136  0.00  0.00    +0.000 C 
BRANCH  13  14
ATOM     14  C   UNL     1       5.314   4.280  17.893  0.00  0.00    +0.000 A 
ATOM     15  C   UNL     1       6.639   4.734  17.972  0.00  0.00    +0.000 A 
ATOM     16  C   UNL     1       7.419   4.848  16.817  0.00  0.00    +0.000 A 
ATOM     17  C   UNL     1       6.881   4.518  15.572  0.00  0.00    +0.000 A 
ATOM     18  C   UNL     1       5.556   4.100  15.479  0.00  0.00    +0.000 A 
ATOM     19  C   UNL     1       4.784   3.991  16.633  0.00  0.00    +0.000 A 
ATOM     20  F   UNL     1       3.517   3.566  16.523  0.00  0.00    +0.000 F 
ENDBRANCH  13  14
ENDBRANCH  12  13
TORSDOF 2
ENDMDL
MODEL 3
REMARK VINA RESULT:      -6.8      1.385      1.799
REMARK  Name = 
REMARK  3 active torsions:
REMARK  status: ('A' for Active; 'I' for Inactive)
REMARK    1  A    between atoms: C_1  and  C_2
REMARK    2  A    between atoms: C_12  and  C_13
REMARK    3  A    between atoms: C_13  and  C_14
REMARK                            x       y       z     vdW  Elec       q    Type
REMARK                         _______ _______ _______ _____ _____    ______ ____
ROOT
ATOM      1  C   UNL     1       2.193   3.954  20.815  0.00  0.00    +0.000 C 
ATOM      2  C   UNL     1       2.191   5.310  20.206  0.00  0.00    +0.000 A 
ATOM      3  N   UNL     1       1.428   6.287  20.822  0.00  0.00    +0.000 NA
ATOM      4  C   UNL     1       1.545   7.452  20.225  0.00  0.00    +0.000 A 
ATOM      5  N   UNL     1       1.027   8.608  20.725  0.00  0.00    +0.000 N 
ATOM      6  C   UNL     1       0.600   9.711  19.857  0.00  0.00    +0.000 C 
ATOM      7  C   UNL     1       0.678  11.030  20.646  0.00  0.00    +0.000 C 
ATOM      8  O   UNL     1      -0.082  10.971  21.865  0.00  0.00    +0.000 OA
ATOM      9  C   UNL     1       0.394   9.900  22.699  0.00  0.00    +0.000 C 
ATOM     10  C   UNL     1       0.281   8.544  21.989  0.00  0.00    +0.000 C 
ATOM     11  S   UNL     1       2.536   7.394  18.808  0.00  0.00    +0.000 S 
ATOM     12  C   UNL     1       2.912   5.748  19.107  0.00  0.00    +0.000 A 
ENDROOT
BRANCH  12  13
ATOM     13  C   UNL     1       3.949   5.054  18.286  0.00  0.00    +0.000 C 
BRANCH  13  14
ATOM     14  C   UNL     1       5.325   5.666  18.333  0.00  0.00    +0.000 A 
ATOM     15  C   UNL     1       6.240   5.323  19.341  0.00  0.00    +0.000 A 
ATOM     16  C   UNL     1       7.549   5.814  19.307  0.00  0.00    +0.000 A 
ATOM     17  C   UNL     1       7.955   6.657  18.272  0.00  0.00    +0.000 A 
ATOM     18  C   UNL     1       7.045   7.031  17.286  0.00  0.00    +0.000 A 
ATOM     19  C   UNL     1       5.742   6.541  17.327  0.00  0.00    +0.000 A 
ATOM     20  F   UNL     1       4.889   6.896  16.355  0.00  0.00    +0.000 F 
ENDBRANCH  13  14
ENDBRANCH  12  13
TORSDOF 2
ENDMDL
MODEL 4
REMARK VINA RESULT:      -6.7      5.009      6.368
REMARK  Name = 
REMARK  3 active torsions:
REMARK  status: ('A' for Active; 'I' for Inactive)
REMARK    1  A    between atoms: C_1  and  C_2
REMARK    2  A    between atoms: C_12  and  C_13
REMARK    3  A    between atoms: C_13  and  C_14
REMARK                            x       y       z     vdW  Elec       q    Type
REMARK                         _______ _______ _______ _____ _____    ______ ____
ROOT
ATOM      1  C   UNL     1       7.730   5.422  18.771  0.00  0.00    +0.000 C 
ATOM      2  C   UNL     1       6.519   4.847  18.130  0.00  0.00    +0.000 A 
ATOM      3  N   UNL     1       5.556   4.299  18.960  0.00  0.00    +0.000 NA
ATOM      4  C   UNL     1       4.512   3.871  18.285  0.00  0.00    +0.000 A 
ATOM      5  N   UNL     1       3.364   3.438  18.875  0.00  0.00    +0.000 N 
ATOM      6  C   UNL     1       2.501   2.427  18.252  0.00  0.00    +0.000 C 
ATOM      7  C   UNL     1       1.062   2.607  18.769  0.00  0.00    +0.000 C 
ATOM      8  O   UNL     1       1.000   2.567  20.205  0.00  0.00    +0.000 OA
ATOM      9  C   UNL     1       1.831   3.595  20.771  0.00  0.00    +0.000 C 
ATOM     10  C   UNL     1       3.296   3.431  20.342  0.00  0.00    +0.000 C 
ATOM     11  S   UNL     1       4.694   4.035  16.574  0.00  0.00    +0.000 S 
ATOM     12  C   UNL     1       6.195   4.837  16.783  0.00  0.00    +0.000 A 
ENDROOT
BRANCH  12  13
ATOM     13  C   UNL     1       6.883   5.460  15.614  0.00  0.00    +0.000 C 
BRANCH  13  14
ATOM     14  C   UNL     1       6.709   4.737  14.302  0.00  0.00    +0.000 A 
ATOM     15  C   UNL     1       5.617   3.884  14.081  0.00  0.00    +0.000 A 
ATOM     16  C   UNL     1       5.410   3.309  12.824  0.00  0.00    +0.000 A 
ATOM     17  C   UNL     1       6.294   3.574  11.777  0.00  0.00    +0.000 A 
ATOM     18  C   UNL     1       7.400   4.393  11.996  0.00  0.00    +0.000 A 
ATOM     19  C   UNL     1       7.602   4.960  13.252  0.00  0.00    +0.000 A 
ATOM     20  F   UNL     1       8.661   5.762  13.433  0.00  0.00    +0.000 F 
ENDBRANCH  13  14
ENDBRANCH  12  13
TORSDOF 2
ENDMDL
MODEL 5
REMARK VINA RESULT:      -6.7      1.675      2.117
REMARK  Name = 
REMARK  3 active torsions:
REMARK  status: ('A' for Active; 'I' for Inactive)
REMARK    1  A    between atoms: C_1  and  C_2
REMARK    2  A    between atoms: C_12  and  C_13
REMARK    3  A    between atoms: C_13  and  C_14
REMARK                            x       y       z     vdW  Elec       q    Type
REMARK                         _______ _______ _______ _____ _____    ______ ____
ROOT
ATOM      1  C   UNL     1       2.203   4.154  21.334  0.00  0.00    +0.000 C 
ATOM      2  C   UNL     1       2.493   5.187  20.307  0.00  0.00    +0.000 A 
ATOM      3  N   UNL     1       1.785   6.375  20.377  0.00  0.00    +0.000 NA
ATOM      4  C   UNL     1       2.163   7.228  19.451  0.00  0.00    +0.000 A 
ATOM      5  N   UNL     1       1.739   8.521  19.403  0.00  0.00    +0.000 N 
ATOM      6  C   UNL     1       1.621   9.257  18.139  0.00  0.00    +0.000 C 
ATOM      7  C   UNL     1       1.754  10.764  18.420  0.00  0.00    +0.000 C 
ATOM      8  O   UNL     1       0.803  11.211  19.402  0.00  0.00    +0.000 OA
ATOM      9  C   UNL     1       0.978  10.490  20.633  0.00  0.00    +0.000 C 
ATOM     10  C   UNL     1       0.793   8.980  20.429  0.00  0.00    +0.000 C 
ATOM     11  S   UNL     1       3.355   6.583  18.377  0.00  0.00    +0.000 S 
ATOM     12  C   UNL     1       3.440   5.139  19.297  0.00  0.00    +0.000 A 
ENDROOT
BRANCH  12  13
ATOM     13  C   UNL     1       4.489   4.118  18.997  0.00  0.00    +0.000 C 
BRANCH  13  14
ATOM     14  C   UNL     1       5.264   4.343  17.724  0.00  0.00    +0.000 A 
ATOM     15  C   UNL     1       4.752   3.941  16.480  0.00  0.00    +0.000 A 
ATOM     16  C   UNL     1       5.431   4.256  15.300  0.00  0.00    +0.000 A 
ATOM     17  C   UNL     1       6.630   4.969  15.349  0.00  0.00    +0.000 A 
ATOM     18  C   UNL     1       7.163   5.342  16.580  0.00  0.00    +0.000 A 
ATOM     19  C   UNL     1       6.484   5.023  17.753  0.00  0.00    +0.000 A 
ATOM     20  F   UNL     1       7.005   5.411  18.926  0.00  0.00    +0.000 F 
ENDBRANCH  13  14
ENDBRANCH  12  13
TORSDOF 2
ENDMDL
MODEL 6
REMARK VINA RESULT:      -6.5      1.649      1.859
REMARK  Name = 
REMARK  3 active torsions:
REMARK  status: ('A' for Active; 'I' for Inactive)
REMARK    1  A    between atoms: C_1  and  C_2
REMARK    2  A    between atoms: C_12  and  C_13
REMARK    3  A    between atoms: C_13  and  C_14
REMARK                            x       y       z     vdW  Elec       q    Type
REMARK                         _______ _______ _______ _____ _____    ______ ____
ROOT
ATOM      1  C   UNL     1       2.139   3.791  20.895  0.00  0.00    +0.000 C 
ATOM      2  C   UNL     1       2.143   5.079  20.154  0.00  0.00    +0.000 A 
ATOM      3  N   UNL     1       1.566   6.176  20.773  0.00  0.00    +0.000 NA
ATOM      4  C   UNL     1       1.676   7.265  20.046  0.00  0.00    +0.000 A 
ATOM      5  N   UNL     1       1.336   8.504  20.494  0.00  0.00    +0.000 N 
ATOM      6  C   UNL     1       0.862   9.558  19.590  0.00  0.00    +0.000 C 
ATOM      7  C   UNL     1       1.166  10.931  20.215  0.00  0.00    +0.000 C 
ATOM      8  O   UNL     1       0.608  11.054  21.534  0.00  0.00    +0.000 OA
ATOM      9  C   UNL     1       1.127  10.026  22.394  0.00  0.00    +0.000 C 
ATOM     10  C   UNL     1       0.798   8.626  21.856  0.00  0.00    +0.000 C 
ATOM     11  S   UNL     1       2.420   6.985  18.510  0.00  0.00    +0.000 S 
ATOM     12  C   UNL     1       2.712   5.347  18.919  0.00  0.00    +0.000 A 
ENDROOT
BRANCH  12  13
ATOM     13  C   UNL     1       3.547   4.487  18.028  0.00  0.00    +0.000 C 
BRANCH  13  14
ATOM     14  C   UNL     1       5.026   4.777  18.053  0.00  0.00    +0.000 A 
ATOM     15  C   UNL     1       5.646   5.298  19.200  0.00  0.00    +0.000 A 
ATOM     16  C   UNL     1       7.034   5.457  19.245  0.00  0.00    +0.000 A 
ATOM     17  C   UNL     1       7.816   5.106  18.143  0.00  0.00    +0.000 A 
ATOM     18  C   UNL     1       7.208   4.621  16.988  0.00  0.00    +0.000 A 
ATOM     19  C   UNL     1       5.824   4.467  16.949  0.00  0.00    +0.000 A 
ATOM     20  F   UNL     1       5.261   3.978  15.835  0.00  0.00    +0.000 F 
ENDBRANCH  13  14
ENDBRANCH  12  13
TORSDOF 2
ENDMDL
MODEL 7
REMARK VINA RESULT:      -6.5      4.035      7.289
REMARK  Name = 
REMARK  3 active torsions:
REMARK  status: ('A' for Active; 'I' for Inactive)
REMARK    1  A    between atoms: C_1  and  C_2
REMARK    2  A    between atoms: C_12  and  C_13
REMARK    3  A    between atoms: C_13  and  C_14
REMARK                            x       y       z     vdW  Elec       q    Type
REMARK                         _______ _______ _______ _____ _____    ______ ____
ROOT
ATOM      1  C   UNL     1       0.732   8.896  21.670  0.00  0.00    +0.000 C 
ATOM      2  C   UNL     1       1.389   8.180  20.546  0.00  0.00    +0.000 A 
ATOM      3  N   UNL     1       1.646   6.829  20.712  0.00  0.00    +0.000 NA
ATOM      4  C   UNL     1       2.180   6.295  19.636  0.00  0.00    +0.000 A 
ATOM      5  N   UNL     1       2.380   4.957  19.483  0.00  0.00    +0.000 N 
ATOM      6  C   UNL     1       3.471   4.421  18.660  0.00  0.00    +0.000 C 
ATOM      7  C   UNL     1       3.084   3.016  18.167  0.00  0.00    +0.000 C 
ATOM      8  O   UNL     1       2.741   2.141  19.255  0.00  0.00    +0.000 OA
ATOM      9  C   UNL     1       1.647   2.687  20.011  0.00  0.00    +0.000 C 
ATOM     10  C   UNL     1       1.997   4.067  20.586  0.00  0.00    +0.000 C 
ATOM     11  S   UNL     1       2.483   7.447  18.382  0.00  0.00    +0.000 S 
ATOM     12  C   UNL     1       1.736   8.685  19.304  0.00  0.00    +0.000 A 
ENDROOT
BRANCH  12  13
ATOM     13  C   UNL     1       1.481  10.025  18.695  0.00  0.00    +0.000 C 
BRANCH  13  14
ATOM     14  C   UNL     1       0.029  10.376  18.493  0.00  0.00    +0.000 A 
ATOM     15  C   UNL     1      -0.765   9.682  17.568  0.00  0.00    +0.000 A 
ATOM     16  C   UNL     1      -2.135   9.944  17.472  0.00  0.00    +0.000 A 
ATOM     17  C   UNL     1      -2.723  10.908  18.293  0.00  0.00    +0.000 A 
ATOM     18  C   UNL     1      -1.937  11.626  19.191  0.00  0.00    +0.000 A 
ATOM     19  C   UNL     1      -0.572  11.362  19.279  0.00  0.00    +0.000 A 
ATOM     20  F   UNL     1       0.161  12.051  20.165  0.00  0.00    +0.000 F 
ENDBRANCH  13  14
ENDBRANCH  12  13
TORSDOF 2
ENDMDL
MODEL 8
REMARK VINA RESULT:      -6.4      3.489      7.572
REMARK  Name = 
REMARK  3 active torsions:
REMARK  status: ('A' for Active; 'I' for Inactive)
REMARK    1  A    between atoms: C_1  and  C_2
REMARK    2  A    between atoms: C_12  and  C_13
REMARK    3  A    between atoms: C_13  and  C_14
REMARK                            x       y       z     vdW  Elec       q    Type
REMARK                         _______ _______ _______ _____ _____    ______ ____
ROOT
ATOM      1  C   UNL     1       0.116   9.726  21.592  0.00  0.00    +0.000 C 
ATOM      2  C   UNL     1       0.858   9.261  20.391  0.00  0.00    +0.000 A 
ATOM      3  N   UNL     1       1.473   8.022  20.459  0.00  0.00    +0.000 NA
ATOM      4  C   UNL     1       2.051   7.697  19.324  0.00  0.00    +0.000 A 
ATOM      5  N   UNL     1       2.584   6.469  19.079  0.00  0.00    +0.000 N 
ATOM      6  C   UNL     1       3.717   6.280  18.165  0.00  0.00    +0.000 C 
ATOM      7  C   UNL     1       3.680   4.845  17.609  0.00  0.00    +0.000 C 
ATOM      8  O   UNL     1       3.658   3.864  18.660  0.00  0.00    +0.000 OA
ATOM      9  C   UNL     1       2.514   4.065  19.508  0.00  0.00    +0.000 C 
ATOM     10  C   UNL     1       2.528   5.462  20.146  0.00  0.00    +0.000 C 
ATOM     11  S   UNL     1       1.949   8.942  18.128  0.00  0.00    +0.000 S 
ATOM     12  C   UNL     1       0.971   9.894  19.164  0.00  0.00    +0.000 A 
ENDROOT
BRANCH  12  13
ATOM     13  C   UNL     1       0.329  11.143  18.653  0.00  0.00    +0.000 C 
BRANCH  13  14
ATOM     14  C   UNL     1      -1.175  11.107  18.570  0.00  0.00    +0.000 A 
ATOM     15  C   UNL     1      -1.968  11.962  19.351  0.00  0.00    +0.000 A 
ATOM     16  C   UNL     1      -3.355  11.995  19.182  0.00  0.00    +0.000 A 
ATOM     17  C   UNL     1      -3.965  11.170  18.236  0.00  0.00    +0.000 A 
ATOM     18  C   UNL     1      -3.192  10.293  17.480  0.00  0.00    +0.000 A 
ATOM     19  C   UNL     1      -1.810  10.263  17.656  0.00  0.00    +0.000 A 
ATOM     20  F   UNL     1      -1.083   9.427  16.901  0.00  0.00    +0.000 F 
ENDBRANCH  13  14
ENDBRANCH  12  13
TORSDOF 2
ENDMDL
MODEL 9
REMARK VINA RESULT:      -6.4      5.011      7.755
REMARK  Name = 
REMARK  3 active torsions:
REMARK  status: ('A' for Active; 'I' for Inactive)
REMARK    1  A    between atoms: C_1  and  C_2
REMARK    2  A    between atoms: C_12  and  C_13
REMARK    3  A    between atoms: C_13  and  C_14
REMARK                            x       y       z     vdW  Elec       q    Type
REMARK                         _______ _______ _______ _____ _____    ______ ____
ROOT
ATOM      1  C   UNL     1       7.766   6.962  18.154  0.00  0.00    +0.000 C 
ATOM      2  C   UNL     1       6.881   6.018  17.424  0.00  0.00    +0.000 A 
ATOM      3  N   UNL     1       7.065   5.895  16.057  0.00  0.00    +0.000 NA
ATOM      4  C   UNL     1       6.263   4.997  15.532  0.00  0.00    +0.000 A 
ATOM      5  N   UNL     1       6.353   4.573  14.241  0.00  0.00    +0.000 N 
ATOM      6  C   UNL     1       5.182   4.107  13.490  0.00  0.00    +0.000 C 
ATOM      7  C   UNL     1       5.646   3.144  12.383  0.00  0.00    +0.000 C 
ATOM      8  O   UNL     1       6.637   3.744  11.530  0.00  0.00    +0.000 OA
ATOM      9  C   UNL     1       7.779   4.152  12.302  0.00  0.00    +0.000 C 
ATOM     10  C   UNL     1       7.389   5.168  13.386  0.00  0.00    +0.000 C 
ATOM     11  S   UNL     1       5.166   4.310  16.679  0.00  0.00    +0.000 S 
ATOM     12  C   UNL     1       5.910   5.183  17.953  0.00  0.00    +0.000 A 
ENDROOT
BRANCH  12  13
ATOM     13  C   UNL     1       5.532   4.910  19.372  0.00  0.00    +0.000 C 
BRANCH  13  14
ATOM     14  C   UNL     1       4.122   4.420  19.581  0.00  0.00    +0.000 A 
ATOM     15  C   UNL     1       3.846   3.058  19.778  0.00  0.00    +0.000 A 
ATOM     16  C   UNL     1       2.549   2.633  20.080  0.00  0.00    +0.000 A 
ATOM     17  C   UNL     1       1.513   3.563  20.181  0.00  0.00    +0.000 A 
ATOM     18  C   UNL     1       1.769   4.913  19.954  0.00  0.00    +0.000 A 
ATOM     19  C   UNL     1       3.063   5.329  19.649  0.00  0.00    +0.000 A 
ATOM     20  F   UNL     1       3.291   6.636  19.456  0.00  0.00    +0.000 F 
ENDBRANCH  13  14
ENDBRANCH  12  13
TORSDOF 2
ENDMDL
