MODEL 1
REMARK VINA RESULT:      -8.0      0.000      0.000
REMARK  Name = 
REMARK  4 active torsions:
REMARK  status: ('A' for Active; 'I' for Inactive)
REMARK    1  A    between atoms: C_2  and  C_5
REMARK    2  A    between atoms: C_8  and  C_9
REMARK    3  A    between atoms: N_11  and  C_12
REMARK    4  A    between atoms: C_18  and  C_19
REMARK                            x       y       z     vdW  Elec       q    Type
REMARK                         _______ _______ _______ _____ _____    ______ ____
ROOT
ATOM      1  C   UNL     1       8.949  10.244  18.655  0.00  0.00    +0.000 C 
ATOM      2  N   UNL     1       9.035  11.301  17.906  0.00  0.00    +0.000 NA
ATOM      3  N   UNL     1       9.671  12.259  18.648  0.00  0.00    +0.000 N 
ATOM      4  C   UNL     1      10.115  11.776  19.958  0.00  0.00    +0.000 C 
ATOM      5  C   UNL     1       9.488  10.388  20.046  0.00  0.00    +0.000 C 
ENDROOT
BRANCH   4   6
ATOM      6  C   UNL     1       9.667  12.666  21.108  0.00  0.00    +0.000 A 
ATOM      7  C   UNL     1      10.207  13.949  21.304  0.00  0.00    +0.000 A 
ATOM      8  C   UNL     1       9.817  14.737  22.387  0.00  0.00    +0.000 A 
ATOM      9  C   UNL     1       8.860  14.259  23.276  0.00  0.00    +0.000 A 
ATOM     10 CL   UNL     1       8.380  15.226  24.616  0.00  0.00    +0.000 Cl
ATOM     11  C   UNL     1       8.291  13.000  23.088  0.00  0.00    +0.000 A 
ATOM     12  C   UNL     1       8.690  12.207  22.008  0.00  0.00    +0.000 A 
ENDBRANCH   4   6
BRANCH   3  13
ATOM     13  C   UNL     1      10.050  13.468  18.063  0.00  0.00    +0.000 A 
ATOM     14  C   UNL     1       9.155  14.549  18.027  0.00  0.00    +0.000 A 
ATOM     15  C   UNL     1       9.522  15.791  17.500  0.00  0.00    +0.000 A 
ATOM     16  C   UNL     1      10.797  15.974  16.975  0.00  0.00    +0.000 A 
ATOM     17  C   UNL     1      11.702  14.918  16.986  0.00  0.00    +0.000 A 
ATOM     18  C   UNL     1      11.332  13.683  17.529  0.00  0.00    +0.000 A 
ENDBRANCH   3  13
BRANCH   1  22
ATOM     19  C   UNL     1       7.829   6.939  18.202  0.00  0.00    +0.000 A 
ATOM     20  N   UNL     1       7.275   7.500  17.140  0.00  0.00    +0.000 NA
ATOM     21  N   UNL     1       7.631   8.829  17.160  0.00  0.00    +0.000 NA
ATOM     22  C   UNL     1       8.380   9.001  18.229  0.00  0.00    +0.000 A 
ATOM     23  O   UNL     1       8.555   7.845  18.947  0.00  0.00    +0.000 OA
BRANCH  19  25
ATOM     24  F   UNL     1       8.049   4.635  17.699  0.00  0.00    +0.000 F 
ATOM     25  C   UNL     1       7.763   5.534  18.680  0.00  0.00    +0.000 C 
ATOM     26  F   UNL     1       6.531   5.206  19.152  0.00  0.00    +0.000 F 
ATOM     27  F   UNL     1       8.645   5.292  19.689  0.00  0.00    +0.000 F 
ENDBRANCH  19  25
ENDBRANCH   1  22
TORSDOF 4
ENDMDL
MODEL 2
REMARK VINA RESULT:      -8.0      0.105      1.190
REMARK  Name = 
REMARK  4 active torsions:
REMARK  status: ('A' for Active; 'I' for Inactive)
REMARK    1  A    between atoms: C_2  and  C_5
REMARK    2  A    between atoms: C_8  and  C_9
REMARK    3  A    between atoms: N_11  and  C_12
REMARK    4  A    between atoms: C_18  and  C_19
REMARK                            x       y       z     vdW  Elec       q    Type
REMARK                         _______ _______ _______ _____ _____    ______ ____
ROOT
ATOM      1  C   UNL     1       8.929  10.272  18.661  0.00  0.00    +0.000 C 
ATOM      2  N   UNL     1       8.968  11.338  17.921  0.00  0.00    +0.000 NA
ATOM      3  N   UNL     1       9.602  12.304  18.656  0.00  0.00    +0.000 N 
ATOM      4  C   UNL     1      10.095  11.818  19.948  0.00  0.00    +0.000 C 
ATOM      5  C   UNL     1       9.504  10.413  20.038  0.00  0.00    +0.000 C 
ENDROOT
BRANCH   4   6
ATOM      6  C   UNL     1       9.658  12.683  21.120  0.00  0.00    +0.000 A 
ATOM      7  C   UNL     1       8.674  12.254  22.029  0.00  0.00    +0.000 A 
ATOM      8  C   UNL     1       8.253  13.076  23.075  0.00  0.00    +0.000 A 
ATOM      9  C   UNL     1       8.830  14.331  23.238  0.00  0.00    +0.000 A 
ATOM     10 CL   UNL     1       8.309  15.349  24.524  0.00  0.00    +0.000 Cl
ATOM     11  C   UNL     1       9.825  14.768  22.366  0.00  0.00    +0.000 A 
ATOM     12  C   UNL     1      10.240  13.948  21.312  0.00  0.00    +0.000 A 
ENDBRANCH   4   6
BRANCH   3  13
ATOM     13  C   UNL     1       9.936  13.528  18.075  0.00  0.00    +0.000 A 
ATOM     14  C   UNL     1       9.027  14.597  18.105  0.00  0.00    +0.000 A 
ATOM     15  C   UNL     1       9.351  15.853  17.582  0.00  0.00    +0.000 A 
ATOM     16  C   UNL     1      10.594  16.063  16.996  0.00  0.00    +0.000 A 
ATOM     17  C   UNL     1      11.511  15.018  16.940  0.00  0.00    +0.000 A 
ATOM     18  C   UNL     1      11.185  13.769  17.480  0.00  0.00    +0.000 A 
ENDBRANCH   3  13
BRANCH   1  22
ATOM     19  C   UNL     1       7.838   6.955  18.223  0.00  0.00    +0.000 A 
ATOM     20  N   UNL     1       7.310   7.498  17.140  0.00  0.00    +0.000 NA
ATOM     21  N   UNL     1       7.658   8.829  17.151  0.00  0.00    +0.000 NA
ATOM     22  C   UNL     1       8.378   9.020  18.236  0.00  0.00    +0.000 A 
ATOM     23  O   UNL     1       8.540   7.875  18.975  0.00  0.00    +0.000 OA
BRANCH  19  25
ATOM     24  F   UNL     1       6.551   5.247  19.242  0.00  0.00    +0.000 F 
ATOM     25  C   UNL     1       7.768   5.556  18.717  0.00  0.00    +0.000 C 
ATOM     26  F   UNL     1       8.680   5.307  19.695  0.00  0.00    +0.000 F 
ATOM     27  F   UNL     1       7.999   4.649  17.729  0.00  0.00    +0.000 F 
ENDBRANCH  19  25
ENDBRANCH   1  22
TORSDOF 4
ENDMDL
MODEL 3
REMARK VINA RESULT:      -7.9      0.094      1.313
REMARK  Name = 
REMARK  4 active torsions:
REMARK  status: ('A' for Active; 'I' for Inactive)
REMARK    1  A    between atoms: C_2  and  C_5
REMARK    2  A    between atoms: C_8  and  C_9
REMARK    3  A    between atoms: N_11  and  C_12
REMARK    4  A    between atoms: C_18  and  C_19
REMARK                            x       y       z     vdW  Elec       q    Type
REMARK                         _______ _______ _______ _____ _____    ______ ____
ROOT
ATOM      1  C   UNL     1       8.961  10.256  18.694  0.00  0.00    +0.000 C 
ATOM      2  N   UNL     1       9.070  11.318  17.956  0.00  0.00    +0.000 NA
ATOM      3  N   UNL     1       9.702  12.264  18.717  0.00  0.00    +0.000 N 
ATOM      4  C   UNL     1      10.120  11.766  20.031  0.00  0.00    +0.000 C 
ATOM      5  C   UNL     1       9.478  10.382  20.096  0.00  0.00    +0.000 C 
ENDROOT
BRANCH   4   6
ATOM      6  C   UNL     1       9.660  12.649  21.180  0.00  0.00    +0.000 A 
ATOM      7  C   UNL     1       8.681  12.220  22.096  0.00  0.00    +0.000 A 
ATOM      8  C   UNL     1       8.238  13.057  23.120  0.00  0.00    +0.000 A 
ATOM      9  C   UNL     1       8.787  14.328  23.257  0.00  0.00    +0.000 A 
ATOM     10 CL   UNL     1       8.240  15.364  24.516  0.00  0.00    +0.000 Cl
ATOM     11  C   UNL     1       9.777  14.765  22.378  0.00  0.00    +0.000 A 
ATOM     12  C   UNL     1      10.214  13.930  21.345  0.00  0.00    +0.000 A 
ENDBRANCH   4   6
BRANCH   3  13
ATOM     13  C   UNL     1      10.102  13.475  18.150  0.00  0.00    +0.000 A 
ATOM     14  C   UNL     1      11.382  13.604  17.587  0.00  0.00    +0.000 A 
ATOM     15  C   UNL     1      11.794  14.785  16.960  0.00  0.00    +0.000 A 
ATOM     16  C   UNL     1      10.934  15.876  16.900  0.00  0.00    +0.000 A 
ATOM     17  C   UNL     1       9.664  15.782  17.459  0.00  0.00    +0.000 A 
ATOM     18  C   UNL     1       9.254  14.592  18.070  0.00  0.00    +0.000 A 
ENDBRANCH   3  13
BRANCH   1  22
ATOM     19  C   UNL     1       7.824   6.965  18.190  0.00  0.00    +0.000 A 
ATOM     20  N   UNL     1       7.284   7.542  17.130  0.00  0.00    +0.000 NA
ATOM     21  N   UNL     1       7.649   8.868  17.170  0.00  0.00    +0.000 NA
ATOM     22  C   UNL     1       8.389   9.022  18.247  0.00  0.00    +0.000 A 
ATOM     23  O   UNL     1       8.549   7.856  18.953  0.00  0.00    +0.000 OA
BRANCH  19  25
ATOM     24  F   UNL     1       8.018   4.664  17.657  0.00  0.00    +0.000 F 
ATOM     25  C   UNL     1       7.745   5.554  18.650  0.00  0.00    +0.000 C 
ATOM     26  F   UNL     1       6.510   5.233  19.121  0.00  0.00    +0.000 F 
ATOM     27  F   UNL     1       8.626   5.290  19.653  0.00  0.00    +0.000 F 
ENDBRANCH  19  25
ENDBRANCH   1  22
TORSDOF 4
ENDMDL
MODEL 4
REMARK VINA RESULT:      -7.8      0.194      1.198
REMARK  Name = 
REMARK  4 active torsions:
REMARK  status: ('A' for Active; 'I' for Inactive)
REMARK    1  A    between atoms: C_2  and  C_5
REMARK    2  A    between atoms: C_8  and  C_9
REMARK    3  A    between atoms: N_11  and  C_12
REMARK    4  A    between atoms: C_18  and  C_19
REMARK                            x       y       z     vdW  Elec       q    Type
REMARK                         _______ _______ _______ _____ _____    ______ ____
ROOT
ATOM      1  C   UNL     1       8.983  10.379  18.723  0.00  0.00    +0.000 C 
ATOM      2  N   UNL     1       9.021  11.452  17.993  0.00  0.00    +0.000 NA
ATOM      3  N   UNL     1       9.623  12.422  18.749  0.00  0.00    +0.000 N 
ATOM      4  C   UNL     1      10.094  11.934  20.048  0.00  0.00    +0.000 C 
ATOM      5  C   UNL     1       9.524  10.519  20.114  0.00  0.00    +0.000 C 
ENDROOT
BRANCH   4   6
ATOM      6  C   UNL     1       9.616  12.782  21.216  0.00  0.00    +0.000 A 
ATOM      7  C   UNL     1      10.127  14.072  21.450  0.00  0.00    +0.000 A 
ATOM      8  C   UNL     1       9.710  14.823  22.550  0.00  0.00    +0.000 A 
ATOM      9  C   UNL     1       8.758  14.301  23.418  0.00  0.00    +0.000 A 
ATOM     10 CL   UNL     1       8.245  15.222  24.778  0.00  0.00    +0.000 Cl
ATOM     11  C   UNL     1       8.218  13.035  23.193  0.00  0.00    +0.000 A 
ATOM     12  C   UNL     1       8.643  12.279  22.096  0.00  0.00    +0.000 A 
ENDBRANCH   4   6
BRANCH   3  13
ATOM     13  C   UNL     1       9.949  13.655  18.185  0.00  0.00    +0.000 A 
ATOM     14  C   UNL     1      11.214  13.859  17.611  0.00  0.00    +0.000 A 
ATOM     15  C   UNL     1      11.553  15.064  16.987  0.00  0.00    +0.000 A 
ATOM     16  C   UNL     1      10.634  16.107  16.941  0.00  0.00    +0.000 A 
ATOM     17  C   UNL     1       9.376  15.938  17.512  0.00  0.00    +0.000 A 
ATOM     18  C   UNL     1       9.039  14.724  18.120  0.00  0.00    +0.000 A 
ENDBRANCH   3  13
BRANCH   1  22
ATOM     19  C   UNL     1       7.906   7.062  18.259  0.00  0.00    +0.000 A 
ATOM     20  N   UNL     1       7.490   7.583  17.118  0.00  0.00    +0.000 NA
ATOM     21  N   UNL     1       7.849   8.911  17.132  0.00  0.00    +0.000 NA
ATOM     22  C   UNL     1       8.463   9.122  18.277  0.00  0.00    +0.000 A 
ATOM     23  O   UNL     1       8.541   7.993  19.053  0.00  0.00    +0.000 OA
BRANCH  19  25
ATOM     24  F   UNL     1       6.546   5.431  19.311  0.00  0.00    +0.000 F 
ATOM     25  C   UNL     1       7.774   5.675  18.777  0.00  0.00    +0.000 C 
ATOM     26  F   UNL     1       8.678   5.401  19.754  0.00  0.00    +0.000 F 
ATOM     27  F   UNL     1       7.959   4.743  17.802  0.00  0.00    +0.000 F 
ENDBRANCH  19  25
ENDBRANCH   1  22
TORSDOF 4
ENDMDL
MODEL 5
REMARK VINA RESULT:      -7.7      8.596     10.954
REMARK  Name = 
REMARK  4 active torsions:
REMARK  status: ('A' for Active; 'I' for Inactive)
REMARK    1  A    between atoms: C_2  and  C_5
REMARK    2  A    between atoms: C_8  and  C_9
REMARK    3  A    between atoms: N_11  and  C_12
REMARK    4  A    between atoms: C_18  and  C_19
REMARK                            x       y       z     vdW  Elec       q    Type
REMARK                         _______ _______ _______ _____ _____    ______ ____
ROOT
ATOM      1  C   UNL     1       3.186   7.103  18.028  0.00  0.00    +0.000 C 
ATOM      2  N   UNL     1       2.865   5.893  18.373  0.00  0.00    +0.000 NA
ATOM      3  N   UNL     1       3.927   5.095  18.045  0.00  0.00    +0.000 N 
ATOM      4  C   UNL     1       5.073   5.843  17.518  0.00  0.00    +0.000 C 
ATOM      5  C   UNL     1       4.520   7.257  17.362  0.00  0.00    +0.000 C 
ENDROOT
BRANCH   4   6
ATOM      6  C   UNL     1       5.589   5.296  16.196  0.00  0.00    +0.000 A 
ATOM      7  C   UNL     1       6.952   5.360  15.852  0.00  0.00    +0.000 A 
ATOM      8  C   UNL     1       7.404   4.893  14.618  0.00  0.00    +0.000 A 
ATOM      9  C   UNL     1       6.501   4.333  13.720  0.00  0.00    +0.000 A 
ATOM     10 CL   UNL     1       7.056   3.760  12.196  0.00  0.00    +0.000 Cl
ATOM     11  C   UNL     1       5.150   4.235  14.050  0.00  0.00    +0.000 A 
ATOM     12  C   UNL     1       4.695   4.712  15.283  0.00  0.00    +0.000 A 
ENDBRANCH   4   6
BRANCH   3  13
ATOM     13  C   UNL     1       3.950   3.754  18.432  0.00  0.00    +0.000 A 
ATOM     14  C   UNL     1       4.595   3.370  19.618  0.00  0.00    +0.000 A 
ATOM     15  C   UNL     1       4.587   2.045  20.063  0.00  0.00    +0.000 A 
ATOM     16  C   UNL     1       3.945   1.063  19.316  0.00  0.00    +0.000 A 
ATOM     17  C   UNL     1       3.307   1.412  18.130  0.00  0.00    +0.000 A 
ATOM     18  C   UNL     1       3.306   2.743  17.699  0.00  0.00    +0.000 A 
ENDBRANCH   3  13
BRANCH   1  22
ATOM     19  C   UNL     1       1.021   9.624  19.184  0.00  0.00    +0.000 A 
ATOM     20  N   UNL     1       1.349  10.145  18.014  0.00  0.00    +0.000 NA
ATOM     21  N   UNL     1       2.209   9.256  17.410  0.00  0.00    +0.000 NA
ATOM     22  C   UNL     1       2.352   8.247  18.243  0.00  0.00    +0.000 A 
ATOM     23  O   UNL     1       1.628   8.404  19.398  0.00  0.00    +0.000 OA
BRANCH  19  25
ATOM     24  F   UNL     1      -0.050   9.279  21.270  0.00  0.00    +0.000 F 
ATOM     25  C   UNL     1       0.137  10.162  20.251  0.00  0.00    +0.000 C 
ATOM     26  F   UNL     1      -1.102  10.475  19.784  0.00  0.00    +0.000 F 
ATOM     27  F   UNL     1       0.639  11.295  20.813  0.00  0.00    +0.000 F 
ENDBRANCH  19  25
ENDBRANCH   1  22
TORSDOF 4
ENDMDL
MODEL 6
REMARK VINA RESULT:      -7.7      8.588     10.976
REMARK  Name = 
REMARK  4 active torsions:
REMARK  status: ('A' for Active; 'I' for Inactive)
REMARK    1  A    between atoms: C_2  and  C_5
REMARK    2  A    between atoms: C_8  and  C_9
REMARK    3  A    between atoms: N_11  and  C_12
REMARK    4  A    between atoms: C_18  and  C_19
REMARK                            x       y       z     vdW  Elec       q    Type
REMARK                         _______ _______ _______ _____ _____    ______ ____
ROOT
ATOM      1  C   UNL     1       3.107   7.204  18.031  0.00  0.00    +0.000 C 
ATOM      2  N   UNL     1       2.734   6.001  18.347  0.00  0.00    +0.000 NA
ATOM      3  N   UNL     1       3.783   5.173  18.051  0.00  0.00    +0.000 N 
ATOM      4  C   UNL     1       4.973   5.890  17.581  0.00  0.00    +0.000 C 
ATOM      5  C   UNL     1       4.472   7.323  17.422  0.00  0.00    +0.000 C 
ENDROOT
BRANCH   4   6
ATOM      6  C   UNL     1       5.525   5.343  16.274  0.00  0.00    +0.000 A 
ATOM      7  C   UNL     1       6.881   5.483  15.929  0.00  0.00    +0.000 A 
ATOM      8  C   UNL     1       7.365   5.014  14.707  0.00  0.00    +0.000 A 
ATOM      9  C   UNL     1       6.501   4.375  13.824  0.00  0.00    +0.000 A 
ATOM     10 CL   UNL     1       7.093   3.799  12.315  0.00  0.00    +0.000 Cl
ATOM     11  C   UNL     1       5.158   4.201  14.156  0.00  0.00    +0.000 A 
ATOM     12  C   UNL     1       4.671   4.681  15.375  0.00  0.00    +0.000 A 
ENDBRANCH   4   6
BRANCH   3  13
ATOM     13  C   UNL     1       3.747   3.828  18.420  0.00  0.00    +0.000 A 
ATOM     14  C   UNL     1       2.913   2.929  17.737  0.00  0.00    +0.000 A 
ATOM     15  C   UNL     1       2.894   1.565  18.045  0.00  0.00    +0.000 A 
ATOM     16  C   UNL     1       3.702   1.070  19.063  0.00  0.00    +0.000 A 
ATOM     17  C   UNL     1       4.530   1.939  19.766  0.00  0.00    +0.000 A 
ATOM     18  C   UNL     1       4.555   3.301  19.441  0.00  0.00    +0.000 A 
ENDBRANCH   3  13
BRANCH   1  22
ATOM     19  C   UNL     1       0.950   9.764  19.116  0.00  0.00    +0.000 A 
ATOM     20  N   UNL     1       1.396  10.318  18.002  0.00  0.00    +0.000 NA
ATOM     21  N   UNL     1       2.269   9.421  17.432  0.00  0.00    +0.000 NA
ATOM     22  C   UNL     1       2.303   8.373  18.228  0.00  0.00    +0.000 A 
ATOM     23  O   UNL     1       1.490   8.511  19.324  0.00  0.00    +0.000 OA
BRANCH  19  25
ATOM     24  F   UNL     1       0.410  11.474  20.664  0.00  0.00    +0.000 F 
ATOM     25  C   UNL     1      -0.001  10.292  20.128  0.00  0.00    +0.000 C 
ATOM     26  F   UNL     1      -0.170   9.438  21.172  0.00  0.00    +0.000 F 
ATOM     27  F   UNL     1      -1.237  10.518  19.604  0.00  0.00    +0.000 F 
ENDBRANCH  19  25
ENDBRANCH   1  22
TORSDOF 4
ENDMDL
MODEL 7
REMARK VINA RESULT:      -7.7      8.594     11.009
REMARK  Name = 
REMARK  4 active torsions:
REMARK  status: ('A' for Active; 'I' for Inactive)
REMARK    1  A    between atoms: C_2  and  C_5
REMARK    2  A    between atoms: C_8  and  C_9
REMARK    3  A    between atoms: N_11  and  C_12
REMARK    4  A    between atoms: C_18  and  C_19
REMARK                            x       y       z     vdW  Elec       q    Type
REMARK                         _______ _______ _______ _____ _____    ______ ____
ROOT
ATOM      1  C   UNL     1       3.155   7.122  18.017  0.00  0.00    +0.000 C 
ATOM      2  N   UNL     1       2.828   5.913  18.357  0.00  0.00    +0.000 NA
ATOM      3  N   UNL     1       3.879   5.108  18.008  0.00  0.00    +0.000 N 
ATOM      4  C   UNL     1       5.024   5.850  17.473  0.00  0.00    +0.000 C 
ATOM      5  C   UNL     1       4.482   7.270  17.335  0.00  0.00    +0.000 C 
ENDROOT
BRANCH   4   6
ATOM      6  C   UNL     1       5.519   5.309  16.141  0.00  0.00    +0.000 A 
ATOM      7  C   UNL     1       4.648   4.689  15.226  0.00  0.00    +0.000 A 
ATOM      8  C   UNL     1       5.124   4.160  14.026  0.00  0.00    +0.000 A 
ATOM      9  C   UNL     1       6.475   4.266  13.714  0.00  0.00    +0.000 A 
ATOM     10 CL   UNL     1       7.065   3.610  12.237  0.00  0.00    +0.000 Cl
ATOM     11  C   UNL     1       7.352   4.899  14.593  0.00  0.00    +0.000 A 
ATOM     12  C   UNL     1       6.878   5.421  15.800  0.00  0.00    +0.000 A 
ENDBRANCH   4   6
BRANCH   3  13
ATOM     13  C   UNL     1       3.894   3.764  18.385  0.00  0.00    +0.000 A 
ATOM     14  C   UNL     1       4.575   3.361  19.544  0.00  0.00    +0.000 A 
ATOM     15  C   UNL     1       4.563   2.032  19.980  0.00  0.00    +0.000 A 
ATOM     16  C   UNL     1       3.879   1.067  19.250  0.00  0.00    +0.000 A 
ATOM     17  C   UNL     1       3.204   1.434  18.090  0.00  0.00    +0.000 A 
ATOM     18  C   UNL     1       3.209   2.769  17.669  0.00  0.00    +0.000 A 
ENDBRANCH   3  13
BRANCH   1  22
ATOM     19  C   UNL     1       1.079   9.686  19.241  0.00  0.00    +0.000 A 
ATOM     20  N   UNL     1       1.302  10.154  18.025  0.00  0.00    +0.000 NA
ATOM     21  N   UNL     1       2.113   9.242  17.389  0.00  0.00    +0.000 NA
ATOM     22  C   UNL     1       2.335   8.272  18.251  0.00  0.00    +0.000 A 
ATOM     23  O   UNL     1       1.712   8.479  19.456  0.00  0.00    +0.000 OA
BRANCH  19  25
ATOM     24  F   UNL     1       1.050  10.570  21.439  0.00  0.00    +0.000 F 
ATOM     25  C   UNL     1       0.286  10.268  20.354  0.00  0.00    +0.000 C 
ATOM     26  F   UNL     1      -0.684   9.422  20.794  0.00  0.00    +0.000 F 
ATOM     27  F   UNL     1      -0.339  11.422  19.992  0.00  0.00    +0.000 F 
ENDBRANCH  19  25
ENDBRANCH   1  22
TORSDOF 4
ENDMDL
MODEL 8
REMARK VINA RESULT:      -7.6      8.734     11.216
REMARK  Name = 
REMARK  4 active torsions:
REMARK  status: ('A' for Active; 'I' for Inactive)
REMARK    1  A    between atoms: C_2  and  C_5
REMARK    2  A    between atoms: C_8  and  C_9
REMARK    3  A    between atoms: N_11  and  C_12
REMARK    4  A    between atoms: C_18  and  C_19
REMARK                            x       y       z     vdW  Elec       q    Type
REMARK                         _______ _______ _______ _____ _____    ______ ____
ROOT
ATOM      1  C   UNL     1       2.520   7.850  18.307  0.00  0.00    +0.000 C 
ATOM      2  N   UNL     1       1.911   6.737  18.582  0.00  0.00    +0.000 NA
ATOM      3  N   UNL     1       2.827   5.734  18.408  0.00  0.00    +0.000 N 
ATOM      4  C   UNL     1       4.166   6.225  18.073  0.00  0.00    +0.000 C 
ATOM      5  C   UNL     1       3.943   7.719  17.855  0.00  0.00    +0.000 C 
ENDROOT
BRANCH   4   6
ATOM      6  C   UNL     1       4.756   5.562  16.838  0.00  0.00    +0.000 A 
ATOM      7  C   UNL     1       5.075   6.301  15.684  0.00  0.00    +0.000 A 
ATOM      8  C   UNL     1       5.576   5.673  14.543  0.00  0.00    +0.000 A 
ATOM      9  C   UNL     1       5.787   4.298  14.551  0.00  0.00    +0.000 A 
ATOM     10 CL   UNL     1       6.400   3.520  13.144  0.00  0.00    +0.000 Cl
ATOM     11  C   UNL     1       5.503   3.548  15.691  0.00  0.00    +0.000 A 
ATOM     12  C   UNL     1       4.992   4.176  16.831  0.00  0.00    +0.000 A 
ENDBRANCH   4   6
BRANCH   3  13
ATOM     13  C   UNL     1       2.516   4.424  18.775  0.00  0.00    +0.000 A 
ATOM     14  C   UNL     1       3.173   3.817  19.856  0.00  0.00    +0.000 A 
ATOM     15  C   UNL     1       2.846   2.527  20.285  0.00  0.00    +0.000 A 
ATOM     16  C   UNL     1       1.861   1.802  19.624  0.00  0.00    +0.000 A 
ATOM     17  C   UNL     1       1.200   2.374  18.541  0.00  0.00    +0.000 A 
ATOM     18  C   UNL     1       1.522   3.671  18.128  0.00  0.00    +0.000 A 
ENDBRANCH   3  13
BRANCH   1  22
ATOM     19  C   UNL     1       0.641  10.729  19.057  0.00  0.00    +0.000 A 
ATOM     20  N   UNL     1       1.465  11.240  18.158  0.00  0.00    +0.000 NA
ATOM     21  N   UNL     1       2.286  10.217  17.743  0.00  0.00    +0.000 NA
ATOM     22  C   UNL     1       1.914   9.144  18.409  0.00  0.00    +0.000 A 
ATOM     23  O   UNL     1       0.872   9.385  19.267  0.00  0.00    +0.000 OA
BRANCH  19  25
ATOM     24  F   UNL     1      -0.764  10.691  20.964  0.00  0.00    +0.000 F 
ATOM     25  C   UNL     1      -0.439  11.384  19.839  0.00  0.00    +0.000 C 
ATOM     26  F   UNL     1      -1.588  11.513  19.124  0.00  0.00    +0.000 F 
ATOM     27  F   UNL     1      -0.092  12.636  20.248  0.00  0.00    +0.000 F 
ENDBRANCH  19  25
ENDBRANCH   1  22
TORSDOF 4
ENDMDL
MODEL 9
REMARK VINA RESULT:      -7.6      8.742     11.260
REMARK  Name = 
REMARK  4 active torsions:
REMARK  status: ('A' for Active; 'I' for Inactive)
REMARK    1  A    between atoms: C_2  and  C_5
REMARK    2  A    between atoms: C_8  and  C_9
REMARK    3  A    between atoms: N_11  and  C_12
REMARK    4  A    between atoms: C_18  and  C_19
REMARK                            x       y       z     vdW  Elec       q    Type
REMARK                         _______ _______ _______ _____ _____    ______ ____
ROOT
ATOM      1  C   UNL     1       2.477   7.878  18.333  0.00  0.00    +0.000 C 
ATOM      2  N   UNL     1       1.860   6.770  18.612  0.00  0.00    +0.000 NA
ATOM      3  N   UNL     1       2.767   5.760  18.441  0.00  0.00    +0.000 N 
ATOM      4  C   UNL     1       4.111   6.238  18.103  0.00  0.00    +0.000 C 
ATOM      5  C   UNL     1       3.899   7.733  17.879  0.00  0.00    +0.000 C 
ENDROOT
BRANCH   4   6
ATOM      6  C   UNL     1       4.693   5.566  16.869  0.00  0.00    +0.000 A 
ATOM      7  C   UNL     1       4.915   4.178  16.819  0.00  0.00    +0.000 A 
ATOM      8  C   UNL     1       5.489   3.581  15.696  0.00  0.00    +0.000 A 
ATOM      9  C   UNL     1       5.827   4.364  14.598  0.00  0.00    +0.000 A 
ATOM     10 CL   UNL     1       6.540   3.631  13.214  0.00  0.00    +0.000 Cl
ATOM     11  C   UNL     1       5.592   5.738  14.613  0.00  0.00    +0.000 A 
ATOM     12  C   UNL     1       5.026   6.338  15.742  0.00  0.00    +0.000 A 
ENDBRANCH   4   6
BRANCH   3  13
ATOM     13  C   UNL     1       2.447   4.453  18.813  0.00  0.00    +0.000 A 
ATOM     14  C   UNL     1       3.079   3.856  19.916  0.00  0.00    +0.000 A 
ATOM     15  C   UNL     1       2.741   2.570  20.350  0.00  0.00    +0.000 A 
ATOM     16  C   UNL     1       1.770   1.841  19.673  0.00  0.00    +0.000 A 
ATOM     17  C   UNL     1       1.135   2.402  18.569  0.00  0.00    +0.000 A 
ATOM     18  C   UNL     1       1.468   3.695  18.151  0.00  0.00    +0.000 A 
ENDBRANCH   3  13
BRANCH   1  22
ATOM     19  C   UNL     1       0.622  10.774  19.074  0.00  0.00    +0.000 A 
ATOM     20  N   UNL     1       1.449  11.275  18.173  0.00  0.00    +0.000 NA
ATOM     21  N   UNL     1       2.261  10.244  17.760  0.00  0.00    +0.000 NA
ATOM     22  C   UNL     1       1.882   9.176  18.430  0.00  0.00    +0.000 A 
ATOM     23  O   UNL     1       0.842   9.429  19.289  0.00  0.00    +0.000 OA
BRANCH  19  25
ATOM     24  F   UNL     1      -0.145  12.727  20.175  0.00  0.00    +0.000 F 
ATOM     25  C   UNL     1      -0.452  11.440  19.855  0.00  0.00    +0.000 C 
ATOM     26  F   UNL     1      -0.707  10.803  21.029  0.00  0.00    +0.000 F 
ATOM     27  F   UNL     1      -1.630  11.487  19.173  0.00  0.00    +0.000 F 
ENDBRANCH  19  25
ENDBRANCH   1  22
TORSDOF 4
ENDMDL
