MODEL 1
REMARK VINA RESULT:      -9.0      0.000      0.000
REMARK  Name = 
REMARK  5 active torsions:
REMARK  status: ('A' for Active; 'I' for Inactive)
REMARK    1  A    between atoms: C_1  and  O_2
REMARK    2  A    between atoms: O_2  and  C_3
REMARK    3  A    between atoms: C_7  and  C_8
REMARK    4  A    between atoms: C_8  and  C_10
REMARK    5  A    between atoms: C_23  and  O_24
REMARK                            x       y       z     vdW  Elec       q    Type
REMARK                         _______ _______ _______ _____ _____    ______ ____
ROOT
ATOM      1  C   UNL     1       2.450   6.309  19.407  0.00  0.00    +0.000 C 
ATOM      2  O   UNL     1       2.295   5.916  20.568  0.00  0.00    +0.000 OA
ENDROOT
BRANCH   1   3
ATOM      3  C   UNL     1       2.082   7.705  19.081  0.00  0.00    +0.000 A 
ATOM      4  N   UNL     1       2.383   8.227  17.863  0.00  0.00    +0.000 NA
ATOM      5  C   UNL     1       2.066   9.514  17.604  0.00  0.00    +0.000 A 
ATOM      6  C   UNL     1       1.442  10.371  18.502  0.00  0.00    +0.000 A 
ATOM      7  C   UNL     1       1.076   9.827  19.743  0.00  0.00    +0.000 A 
ATOM      8  C   UNL     1       1.395   8.497  19.999  0.00  0.00    +0.000 A 
ATOM      9  N   UNL     1       0.916   8.191  21.252  0.00  0.00    +0.000 N 
ATOM     10  C   UNL     1       0.246   9.261  21.788  0.00  0.00    +0.000 A 
ATOM     11  C   UNL     1      -0.472   9.357  22.983  0.00  0.00    +0.000 A 
ATOM     12  C   UNL     1      -1.082  10.579  23.271  0.00  0.00    +0.000 A 
ATOM     13  C   UNL     1      -0.943  11.670  22.414  0.00  0.00    +0.000 A 
ATOM     14  C   UNL     1      -0.212  11.558  21.226  0.00  0.00    +0.000 A 
ATOM     15  C   UNL     1       0.372  10.319  20.889  0.00  0.00    +0.000 A 
ATOM     16  H   UNL     1       0.990   7.276  21.677  0.00  0.00    +0.000 HD
ENDBRANCH   1   3
BRANCH   1  21
ATOM     17  C   UNL     1       6.535   5.102  16.023  0.00  0.00    +0.000 A 
ATOM     18  C   UNL     1       6.490   6.206  16.867  0.00  0.00    +0.000 A 
ATOM     19  C   UNL     1       5.394   6.416  17.711  0.00  0.00    +0.000 A 
ATOM     20  C   UNL     1       4.298   5.526  17.699  0.00  0.00    +0.000 A 
ATOM     21  C   UNL     1       3.047   5.445  18.397  0.00  0.00    +0.000 A 
ATOM     22  C   UNL     1       2.451   4.258  17.996  0.00  0.00    +0.000 A 
ATOM     23  N   UNL     1       3.241   3.675  17.046  0.00  0.00    +0.000 N 
ATOM     24  C   UNL     1       4.382   4.416  16.854  0.00  0.00    +0.000 A 
ATOM     25  C   UNL     1       5.481   4.181  16.014  0.00  0.00    +0.000 A 
ATOM     26  H   UNL     1       3.024   2.803  16.588  0.00  0.00    +0.000 HD
BRANCH  17  28
ATOM     27  C   UNL     1       7.235   4.776  13.777  0.00  0.00    +0.000 C 
ATOM     28  O   UNL     1       7.561   4.808  15.162  0.00  0.00    +0.000 OA
ENDBRANCH  17  28
BRANCH  22  29
ATOM     29  O   UNL     1       1.326   3.661  18.371  0.00  0.00    +0.000 OA
ATOM     30  H   UNL     1       1.124   2.992  17.683  0.00  0.00    +0.000 HD
ENDBRANCH  22  29
ENDBRANCH   1  21
TORSDOF 4
ENDMDL
MODEL 2
REMARK VINA RESULT:      -9.0      2.284      8.137
REMARK  Name = 
REMARK  5 active torsions:
REMARK  status: ('A' for Active; 'I' for Inactive)
REMARK    1  A    between atoms: C_1  and  O_2
REMARK    2  A    between atoms: O_2  and  C_3
REMARK    3  A    between atoms: C_7  and  C_8
REMARK    4  A    between atoms: C_8  and  C_10
REMARK    5  A    between atoms: C_23  and  O_24
REMARK                            x       y       z     vdW  Elec       q    Type
REMARK                         _______ _______ _______ _____ _____    ______ ____
ROOT
ATOM      1  C   UNL     1       3.931   4.337  18.264  0.00  0.00    +0.000 C 
ATOM      2  O   UNL     1       3.541   3.268  17.784  0.00  0.00    +0.000 OA
ENDROOT
BRANCH   1   3
ATOM      3  C   UNL     1       5.192   4.921  17.750  0.00  0.00    +0.000 A 
ATOM      4  N   UNL     1       6.018   5.606  18.583  0.00  0.00    +0.000 NA
ATOM      5  C   UNL     1       7.145   6.157  18.081  0.00  0.00    +0.000 A 
ATOM      6  C   UNL     1       7.539   6.080  16.752  0.00  0.00    +0.000 A 
ATOM      7  C   UNL     1       6.721   5.327  15.894  0.00  0.00    +0.000 A 
ATOM      8  C   UNL     1       5.568   4.753  16.420  0.00  0.00    +0.000 A 
ATOM      9  N   UNL     1       4.956   4.053  15.406  0.00  0.00    +0.000 N 
ATOM     10  C   UNL     1       5.708   4.106  14.259  0.00  0.00    +0.000 A 
ATOM     11  C   UNL     1       5.512   3.466  13.033  0.00  0.00    +0.000 A 
ATOM     12  C   UNL     1       6.461   3.686  12.033  0.00  0.00    +0.000 A 
ATOM     13  C   UNL     1       7.538   4.546  12.243  0.00  0.00    +0.000 A 
ATOM     14  C   UNL     1       7.713   5.187  13.475  0.00  0.00    +0.000 A 
ATOM     15  C   UNL     1       6.795   4.941  14.517  0.00  0.00    +0.000 A 
ATOM     16  H   UNL     1       4.107   3.515  15.523  0.00  0.00    +0.000 HD
ENDBRANCH   1   3
BRANCH   1  21
ATOM     17  C   UNL     1       1.257   8.784  19.900  0.00  0.00    +0.000 A 
ATOM     18  C   UNL     1       1.927   8.648  18.688  0.00  0.00    +0.000 A 
ATOM     19  C   UNL     1       2.573   7.451  18.359  0.00  0.00    +0.000 A 
ATOM     20  C   UNL     1       2.583   6.369  19.265  0.00  0.00    +0.000 A 
ATOM     21  C   UNL     1       3.139   5.045  19.260  0.00  0.00    +0.000 A 
ATOM     22  C   UNL     1       2.704   4.435  20.427  0.00  0.00    +0.000 A 
ATOM     23  N   UNL     1       1.989   5.344  21.154  0.00  0.00    +0.000 N 
ATOM     24  C   UNL     1       1.885   6.528  20.464  0.00  0.00    +0.000 A 
ATOM     25  C   UNL     1       1.218   7.715  20.803  0.00  0.00    +0.000 A 
ATOM     26  H   UNL     1       1.570   5.148  22.050  0.00  0.00    +0.000 HD
BRANCH  17  28
ATOM     27  C   UNL     1      -0.024  10.689  19.295  0.00  0.00    +0.000 C 
ATOM     28  O   UNL     1       0.595   9.910  20.313  0.00  0.00    +0.000 OA
ENDBRANCH  17  28
BRANCH  22  29
ATOM     29  O   UNL     1       2.866   3.202  20.895  0.00  0.00    +0.000 OA
ATOM     30  H   UNL     1       2.970   3.286  21.867  0.00  0.00    +0.000 HD
ENDBRANCH  22  29
ENDBRANCH   1  21
TORSDOF 4
ENDMDL
MODEL 3
REMARK VINA RESULT:      -8.5      3.067      4.662
REMARK  Name = 
REMARK  5 active torsions:
REMARK  status: ('A' for Active; 'I' for Inactive)
REMARK    1  A    between atoms: C_1  and  O_2
REMARK    2  A    between atoms: O_2  and  C_3
REMARK    3  A    between atoms: C_7  and  C_8
REMARK    4  A    between atoms: C_8  and  C_10
REMARK    5  A    between atoms: C_23  and  O_24
REMARK                            x       y       z     vdW  Elec       q    Type
REMARK                         _______ _______ _______ _____ _____    ______ ____
ROOT
ATOM      1  C   UNL     1       1.802   9.379  18.802  0.00  0.00    +0.000 C 
ATOM      2  O   UNL     1       2.517   9.800  17.887  0.00  0.00    +0.000 OA
ENDROOT
BRANCH   1   3
ATOM      3  C   UNL     1       0.701  10.241  19.288  0.00  0.00    +0.000 A 
ATOM      4  N   UNL     1       0.842  10.946  20.441  0.00  0.00    +0.000 NA
ATOM      5  C   UNL     1      -0.192  11.698  20.880  0.00  0.00    +0.000 A 
ATOM      6  C   UNL     1      -1.416  11.813  20.235  0.00  0.00    +0.000 A 
ATOM      7  C   UNL     1      -1.553  11.132  19.014  0.00  0.00    +0.000 A 
ATOM      8  C   UNL     1      -0.481  10.369  18.563  0.00  0.00    +0.000 A 
ATOM      9  N   UNL     1      -0.841   9.828  17.350  0.00  0.00    +0.000 N 
ATOM     10  C   UNL     1      -2.086  10.266  16.976  0.00  0.00    +0.000 A 
ATOM     11  C   UNL     1      -2.791  10.046  15.789  0.00  0.00    +0.000 A 
ATOM     12  C   UNL     1      -4.048  10.641  15.667  0.00  0.00    +0.000 A 
ATOM     13  C   UNL     1      -4.590  11.392  16.709  0.00  0.00    +0.000 A 
ATOM     14  C   UNL     1      -3.874  11.594  17.895  0.00  0.00    +0.000 A 
ATOM     15  C   UNL     1      -2.581  11.045  18.022  0.00  0.00    +0.000 A 
ATOM     16  H   UNL     1      -0.232   9.249  16.787  0.00  0.00    +0.000 HD
ENDBRANCH   1   3
BRANCH   1  21
ATOM     17  C   UNL     1       3.767   4.325  18.364  0.00  0.00    +0.000 A 
ATOM     18  C   UNL     1       3.896   5.324  17.405  0.00  0.00    +0.000 A 
ATOM     19  C   UNL     1       3.363   6.599  17.625  0.00  0.00    +0.000 A 
ATOM     20  C   UNL     1       2.658   6.886  18.813  0.00  0.00    +0.000 A 
ATOM     21  C   UNL     1       1.991   8.040  19.345  0.00  0.00    +0.000 A 
ATOM     22  C   UNL     1       1.574   7.696  20.623  0.00  0.00    +0.000 A 
ATOM     23  N   UNL     1       1.888   6.386  20.845  0.00  0.00    +0.000 N 
ATOM     24  C   UNL     1       2.562   5.868  19.766  0.00  0.00    +0.000 A 
ATOM     25  C   UNL     1       3.105   4.590  19.568  0.00  0.00    +0.000 A 
ATOM     26  H   UNL     1       1.682   5.892  21.700  0.00  0.00    +0.000 HD
BRANCH  17  28
ATOM     27  C   UNL     1       3.286   2.007  18.175  0.00  0.00    +0.000 C 
ATOM     28  O   UNL     1       4.254   3.049  18.244  0.00  0.00    +0.000 OA
ENDBRANCH  17  28
BRANCH  22  29
ATOM     29  O   UNL     1       0.971   8.398  21.576  0.00  0.00    +0.000 OA
ATOM     30  H   UNL     1       1.676   8.892  22.045  0.00  0.00    +0.000 HD
ENDBRANCH  22  29
ENDBRANCH   1  21
TORSDOF 4
ENDMDL
MODEL 4
REMARK VINA RESULT:      -8.4      1.136      1.142
REMARK  Name = 
REMARK  5 active torsions:
REMARK  status: ('A' for Active; 'I' for Inactive)
REMARK    1  A    between atoms: C_1  and  O_2
REMARK    2  A    between atoms: O_2  and  C_3
REMARK    3  A    between atoms: C_7  and  C_8
REMARK    4  A    between atoms: C_8  and  C_10
REMARK    5  A    between atoms: C_23  and  O_24
REMARK                            x       y       z     vdW  Elec       q    Type
REMARK                         _______ _______ _______ _____ _____    ______ ____
ROOT
ATOM      1  C   UNL     1       2.657   5.778  19.929  0.00  0.00    +0.000 C 
ATOM      2  O   UNL     1       2.186   5.386  21.002  0.00  0.00    +0.000 OA
ENDROOT
BRANCH   1   3
ATOM      3  C   UNL     1       2.187   7.072  19.384  0.00  0.00    +0.000 A 
ATOM      4  N   UNL     1       2.349   7.359  18.066  0.00  0.00    +0.000 NA
ATOM      5  C   UNL     1       1.942   8.561  17.602  0.00  0.00    +0.000 A 
ATOM      6  C   UNL     1       1.357   9.552  18.379  0.00  0.00    +0.000 A 
ATOM      7  C   UNL     1       1.135   9.245  19.731  0.00  0.00    +0.000 A 
ATOM      8  C   UNL     1       1.546   8.002  20.199  0.00  0.00    +0.000 A 
ATOM      9  N   UNL     1       1.200   7.926  21.529  0.00  0.00    +0.000 N 
ATOM     10  C   UNL     1       0.525   9.055  21.918  0.00  0.00    +0.000 A 
ATOM     11  C   UNL     1      -0.085   9.355  23.139  0.00  0.00    +0.000 A 
ATOM     12  C   UNL     1      -0.730  10.588  23.250  0.00  0.00    +0.000 A 
ATOM     13  C   UNL     1      -0.727  11.498  22.194  0.00  0.00    +0.000 A 
ATOM     14  C   UNL     1      -0.103  11.184  20.981  0.00  0.00    +0.000 A 
ATOM     15  C   UNL     1       0.512   9.924  20.827  0.00  0.00    +0.000 A 
ATOM     16  H   UNL     1       1.360   7.113  22.109  0.00  0.00    +0.000 HD
ENDBRANCH   1   3
BRANCH   1  21
ATOM     17  C   UNL     1       6.689   5.496  16.287  0.00  0.00    +0.000 A 
ATOM     18  C   UNL     1       5.922   6.626  16.553  0.00  0.00    +0.000 A 
ATOM     19  C   UNL     1       4.915   6.594  17.524  0.00  0.00    +0.000 A 
ATOM     20  C   UNL     1       4.638   5.405  18.231  0.00  0.00    +0.000 A 
ATOM     21  C   UNL     1       3.701   5.023  19.249  0.00  0.00    +0.000 A 
ATOM     22  C   UNL     1       4.012   3.716  19.595  0.00  0.00    +0.000 A 
ATOM     23  N   UNL     1       5.024   3.281  18.788  0.00  0.00    +0.000 N 
ATOM     24  C   UNL     1       5.438   4.293  17.956  0.00  0.00    +0.000 A 
ATOM     25  C   UNL     1       6.463   4.312  16.998  0.00  0.00    +0.000 A 
ATOM     26  H   UNL     1       5.427   2.358  18.834  0.00  0.00    +0.000 HD
BRANCH  17  28
ATOM     27  C   UNL     1       7.326   4.988  14.057  0.00  0.00    +0.000 C 
ATOM     28  O   UNL     1       7.696   5.426  15.359  0.00  0.00    +0.000 OA
ENDBRANCH  17  28
BRANCH  22  29
ATOM     29  O   UNL     1       3.511   2.902  20.518  0.00  0.00    +0.000 OA
ATOM     30  H   UNL     1       2.623   2.635  20.200  0.00  0.00    +0.000 HD
ENDBRANCH  22  29
ENDBRANCH   1  21
TORSDOF 4
ENDMDL
MODEL 5
REMARK VINA RESULT:      -8.3      3.436      7.799
REMARK  Name = 
REMARK  5 active torsions:
REMARK  status: ('A' for Active; 'I' for Inactive)
REMARK    1  A    between atoms: C_1  and  O_2
REMARK    2  A    between atoms: O_2  and  C_3
REMARK    3  A    between atoms: C_7  and  C_8
REMARK    4  A    between atoms: C_8  and  C_10
REMARK    5  A    between atoms: C_23  and  O_24
REMARK                            x       y       z     vdW  Elec       q    Type
REMARK                         _______ _______ _______ _____ _____    ______ ____
ROOT
ATOM      1  C   UNL     1       0.986   9.285  20.842  0.00  0.00    +0.000 C 
ATOM      2  O   UNL     1       1.286   9.058  22.019  0.00  0.00    +0.000 OA
ENDROOT
BRANCH   1   3
ATOM      3  C   UNL     1       1.690   8.533  19.779  0.00  0.00    +0.000 A 
ATOM      4  N   UNL     1       2.138   9.176  18.669  0.00  0.00    +0.000 NA
ATOM      5  C   UNL     1       2.747   8.460  17.698  0.00  0.00    +0.000 A 
ATOM      6  C   UNL     1       2.958   7.088  17.741  0.00  0.00    +0.000 A 
ATOM      7  C   UNL     1       2.549   6.423  18.908  0.00  0.00    +0.000 A 
ATOM      8  C   UNL     1       1.933   7.168  19.908  0.00  0.00    +0.000 A 
ATOM      9  N   UNL     1       1.652   6.311  20.947  0.00  0.00    +0.000 N 
ATOM     10  C   UNL     1       2.121   5.051  20.675  0.00  0.00    +0.000 A 
ATOM     11  C   UNL     1       2.136   3.910  21.483  0.00  0.00    +0.000 A 
ATOM     12  C   UNL     1       2.704   2.752  20.949  0.00  0.00    +0.000 A 
ATOM     13  C   UNL     1       3.199   2.730  19.646  0.00  0.00    +0.000 A 
ATOM     14  C   UNL     1       3.166   3.879  18.849  0.00  0.00    +0.000 A 
ATOM     15  C   UNL     1       2.643   5.075  19.382  0.00  0.00    +0.000 A 
ATOM     16  H   UNL     1       1.225   6.600  21.818  0.00  0.00    +0.000 HD
ENDBRANCH   1   3
BRANCH   1  21
ATOM     17  C   UNL     1      -2.805  11.101  17.388  0.00  0.00    +0.000 A 
ATOM     18  C   UNL     1      -1.946  10.032  17.152  0.00  0.00    +0.000 A 
ATOM     19  C   UNL     1      -1.014   9.637  18.117  0.00  0.00    +0.000 A 
ATOM     20  C   UNL     1      -0.906  10.336  19.339  0.00  0.00    +0.000 A 
ATOM     21  C   UNL     1      -0.082  10.217  20.508  0.00  0.00    +0.000 A 
ATOM     22  C   UNL     1      -0.546  11.163  21.410  0.00  0.00    +0.000 A 
ATOM     23  N   UNL     1      -1.542  11.882  20.813  0.00  0.00    +0.000 N 
ATOM     24  C   UNL     1      -1.795  11.392  19.555  0.00  0.00    +0.000 A 
ATOM     25  C   UNL     1      -2.747  11.791  18.605  0.00  0.00    +0.000 A 
ATOM     26  H   UNL     1      -2.039  12.638  21.259  0.00  0.00    +0.000 HD
BRANCH  17  28
ATOM     27  C   UNL     1      -5.040  11.827  17.051  0.00  0.00    +0.000 C 
ATOM     28  O   UNL     1      -3.750  11.563  16.510  0.00  0.00    +0.000 OA
ENDBRANCH  17  28
BRANCH  22  29
ATOM     29  O   UNL     1      -0.193  11.442  22.660  0.00  0.00    +0.000 OA
ATOM     30  H   UNL     1      -0.969  11.229  23.221  0.00  0.00    +0.000 HD
ENDBRANCH  22  29
ENDBRANCH   1  21
TORSDOF 4
ENDMDL
MODEL 6
REMARK VINA RESULT:      -8.0      3.029      4.166
REMARK  Name = 
REMARK  5 active torsions:
REMARK  status: ('A' for Active; 'I' for Inactive)
REMARK    1  A    between atoms: C_1  and  O_2
REMARK    2  A    between atoms: O_2  and  C_3
REMARK    3  A    between atoms: C_7  and  C_8
REMARK    4  A    between atoms: C_8  and  C_10
REMARK    5  A    between atoms: C_23  and  O_24
REMARK                            x       y       z     vdW  Elec       q    Type
REMARK                         _______ _______ _______ _____ _____    ______ ____
ROOT
ATOM      1  C   UNL     1       1.717   9.199  18.344  0.00  0.00    +0.000 C 
ATOM      2  O   UNL     1       1.988   9.538  17.187  0.00  0.00    +0.000 OA
ENDROOT
BRANCH   1   3
ATOM      3  C   UNL     1       0.758  10.025  19.112  0.00  0.00    +0.000 A 
ATOM      4  N   UNL     1       1.111  10.538  20.320  0.00  0.00    +0.000 NA
ATOM      5  C   UNL     1       0.205  11.260  21.016  0.00  0.00    +0.000 A 
ATOM      6  C   UNL     1      -1.089  11.527  20.589  0.00  0.00    +0.000 A 
ATOM      7  C   UNL     1      -1.447  11.048  19.319  0.00  0.00    +0.000 A 
ATOM      8  C   UNL     1      -0.505  10.316  18.603  0.00  0.00    +0.000 A 
ATOM      9  N   UNL     1      -1.072   9.984  17.394  0.00  0.00    +0.000 N 
ATOM     10  C   UNL     1      -2.326  10.530  17.282  0.00  0.00    +0.000 A 
ATOM     11  C   UNL     1      -3.208  10.525  16.199  0.00  0.00    +0.000 A 
ATOM     12  C   UNL     1      -4.427  11.188  16.358  0.00  0.00    +0.000 A 
ATOM     13  C   UNL     1      -4.761  11.794  17.569  0.00  0.00    +0.000 A 
ATOM     14  C   UNL     1      -3.869  11.779  18.647  0.00  0.00    +0.000 A 
ATOM     15  C   UNL     1      -2.611  11.160  18.493  0.00  0.00    +0.000 A 
ATOM     16  H   UNL     1      -0.592   9.471  16.666  0.00  0.00    +0.000 HD
ENDBRANCH   1   3
BRANCH   1  21
ATOM     17  C   UNL     1       5.397   5.193  18.298  0.00  0.00    +0.000 A 
ATOM     18  C   UNL     1       5.328   6.232  17.377  0.00  0.00    +0.000 A 
ATOM     19  C   UNL     1       4.346   7.223  17.489  0.00  0.00    +0.000 A 
ATOM     20  C   UNL     1       3.387   7.169  18.523  0.00  0.00    +0.000 A 
ATOM     21  C   UNL     1       2.271   7.980  18.917  0.00  0.00    +0.000 A 
ATOM     22  C   UNL     1       1.785   7.431  20.095  0.00  0.00    +0.000 A 
ATOM     23  N   UNL     1       2.500   6.302  20.376  0.00  0.00    +0.000 N 
ATOM     24  C   UNL     1       3.494   6.124  19.444  0.00  0.00    +0.000 A 
ATOM     25  C   UNL     1       4.483   5.131  19.356  0.00  0.00    +0.000 A 
ATOM     26  H   UNL     1       2.337   5.714  21.179  0.00  0.00    +0.000 HD
BRANCH  17  28
ATOM     27  C   UNL     1       7.508   4.421  17.533  0.00  0.00    +0.000 C 
ATOM     28  O   UNL     1       6.318   4.178  18.276  0.00  0.00    +0.000 OA
ENDBRANCH  17  28
BRANCH  22  29
ATOM     29  O   UNL     1       0.814   7.814  20.916  0.00  0.00    +0.000 OA
ATOM     30  H   UNL     1       0.063   8.088  20.347  0.00  0.00    +0.000 HD
ENDBRANCH  22  29
ENDBRANCH   1  21
TORSDOF 4
ENDMDL
MODEL 7
REMARK VINA RESULT:      -8.0      3.462      8.465
REMARK  Name = 
REMARK  5 active torsions:
REMARK  status: ('A' for Active; 'I' for Inactive)
REMARK    1  A    between atoms: C_1  and  O_2
REMARK    2  A    between atoms: O_2  and  C_3
REMARK    3  A    between atoms: C_7  and  C_8
REMARK    4  A    between atoms: C_8  and  C_10
REMARK    5  A    between atoms: C_23  and  O_24
REMARK                            x       y       z     vdW  Elec       q    Type
REMARK                         _______ _______ _______ _____ _____    ______ ____
ROOT
ATOM      1  C   UNL     1       1.475   9.873  18.622  0.00  0.00    +0.000 C 
ATOM      2  O   UNL     1       2.335  10.396  17.904  0.00  0.00    +0.000 OA
ENDROOT
BRANCH   1   3
ATOM      3  C   UNL     1       1.745   8.528  19.177  0.00  0.00    +0.000 A 
ATOM      4  N   UNL     1       1.075   8.094  20.277  0.00  0.00    +0.000 NA
ATOM      5  C   UNL     1       1.365   6.876  20.783  0.00  0.00    +0.000 A 
ATOM      6  C   UNL     1       2.314   6.007  20.260  0.00  0.00    +0.000 A 
ATOM      7  C   UNL     1       2.972   6.421  19.091  0.00  0.00    +0.000 A 
ATOM      8  C   UNL     1       2.661   7.673  18.569  0.00  0.00    +0.000 A 
ATOM      9  N   UNL     1       3.405   7.839  17.423  0.00  0.00    +0.000 N 
ATOM     10  C   UNL     1       4.140   6.712  17.157  0.00  0.00    +0.000 A 
ATOM     11  C   UNL     1       4.951   6.414  16.058  0.00  0.00    +0.000 A 
ATOM     12  C   UNL     1       5.571   5.163  16.036  0.00  0.00    +0.000 A 
ATOM     13  C   UNL     1       5.416   4.267  17.093  0.00  0.00    +0.000 A 
ATOM     14  C   UNL     1       4.608   4.587  18.190  0.00  0.00    +0.000 A 
ATOM     15  C   UNL     1       3.931   5.823  18.211  0.00  0.00    +0.000 A 
ATOM     16  H   UNL     1       3.351   8.655  16.828  0.00  0.00    +0.000 HD
ENDBRANCH   1   3
BRANCH   1  21
ATOM     17  C   UNL     1      -3.748  11.070  17.685  0.00  0.00    +0.000 A 
ATOM     18  C   UNL     1      -2.970  10.209  16.919  0.00  0.00    +0.000 A 
ATOM     19  C   UNL     1      -1.636   9.958  17.257  0.00  0.00    +0.000 A 
ATOM     20  C   UNL     1      -1.045  10.601  18.366  0.00  0.00    +0.000 A 
ATOM     21  C   UNL     1       0.256  10.589  18.972  0.00  0.00    +0.000 A 
ATOM     22  C   UNL     1       0.163  11.376  20.111  0.00  0.00    +0.000 A 
ATOM     23  N   UNL     1      -1.092  11.911  20.169  0.00  0.00    +0.000 N 
ATOM     24  C   UNL     1      -1.857  11.445  19.128  0.00  0.00    +0.000 A 
ATOM     25  C   UNL     1      -3.201  11.694  18.812  0.00  0.00    +0.000 A 
ATOM     26  H   UNL     1      -1.410  12.528  20.901  0.00  0.00    +0.000 HD
BRANCH  17  28
ATOM     27  C   UNL     1      -6.012  10.888  18.376  0.00  0.00    +0.000 C 
ATOM     28  O   UNL     1      -5.061  11.379  17.438  0.00  0.00    +0.000 OA
ENDBRANCH  17  28
BRANCH  22  29
ATOM     29  O   UNL     1       1.041  11.655  21.068  0.00  0.00    +0.000 OA
ATOM     30  H   UNL     1       1.809  12.076  20.626  0.00  0.00    +0.000 HD
ENDBRANCH  22  29
ENDBRANCH   1  21
TORSDOF 4
ENDMDL
MODEL 8
REMARK VINA RESULT:      -7.9      2.337      4.186
REMARK  Name = 
REMARK  5 active torsions:
REMARK  status: ('A' for Active; 'I' for Inactive)
REMARK    1  A    between atoms: C_1  and  O_2
REMARK    2  A    between atoms: O_2  and  C_3
REMARK    3  A    between atoms: C_7  and  C_8
REMARK    4  A    between atoms: C_8  and  C_10
REMARK    5  A    between atoms: C_23  and  O_24
REMARK                            x       y       z     vdW  Elec       q    Type
REMARK                         _______ _______ _______ _____ _____    ______ ____
ROOT
ATOM      1  C   UNL     1       4.080   3.335  18.251  0.00  0.00    +0.000 C 
ATOM      2  O   UNL     1       3.730   2.205  17.896  0.00  0.00    +0.000 OA
ENDROOT
BRANCH   1   3
ATOM      3  C   UNL     1       3.293   4.018  19.302  0.00  0.00    +0.000 A 
ATOM      4  N   UNL     1       3.012   3.381  20.469  0.00  0.00    +0.000 NA
ATOM      5  C   UNL     1       2.262   4.015  21.398  0.00  0.00    +0.000 A 
ATOM      6  C   UNL     1       1.742   5.294  21.256  0.00  0.00    +0.000 A 
ATOM      7  C   UNL     1       2.072   5.983  20.077  0.00  0.00    +0.000 A 
ATOM      8  C   UNL     1       2.853   5.329  19.130  0.00  0.00    +0.000 A 
ATOM      9  N   UNL     1       3.062   6.205  18.091  0.00  0.00    +0.000 N 
ATOM     10  C   UNL     1       2.493   7.423  18.363  0.00  0.00    +0.000 A 
ATOM     11  C   UNL     1       2.542   8.615  17.636  0.00  0.00    +0.000 A 
ATOM     12  C   UNL     1       1.880   9.722  18.168  0.00  0.00    +0.000 A 
ATOM     13  C   UNL     1       1.164   9.625  19.361  0.00  0.00    +0.000 A 
ATOM     14  C   UNL     1       1.117   8.420  20.071  0.00  0.00    +0.000 A 
ATOM     15  C   UNL     1       1.819   7.301  19.579  0.00  0.00    +0.000 A 
ATOM     16  H   UNL     1       3.624   5.993  17.277  0.00  0.00    +0.000 HD
ENDBRANCH   1   3
BRANCH   1  21
ATOM     17  C   UNL     1       7.068   4.899  13.982  0.00  0.00    +0.000 A 
ATOM     18  C   UNL     1       5.837   4.254  13.910  0.00  0.00    +0.000 A 
ATOM     19  C   UNL     1       5.143   3.908  15.074  0.00  0.00    +0.000 A 
ATOM     20  C   UNL     1       5.694   4.178  16.345  0.00  0.00    +0.000 A 
ATOM     21  C   UNL     1       5.277   3.956  17.701  0.00  0.00    +0.000 A 
ATOM     22  C   UNL     1       6.237   4.552  18.506  0.00  0.00    +0.000 A 
ATOM     23  N   UNL     1       7.231   5.043  17.709  0.00  0.00    +0.000 N 
ATOM     24  C   UNL     1       6.921   4.844  16.385  0.00  0.00    +0.000 A 
ATOM     25  C   UNL     1       7.623   5.214  15.228  0.00  0.00    +0.000 A 
ATOM     26  H   UNL     1       8.051   5.516  18.054  0.00  0.00    +0.000 HD
BRANCH  17  28
ATOM     27  C   UNL     1       7.430   4.757  11.639  0.00  0.00    +0.000 C 
ATOM     28  O   UNL     1       7.823   5.280  12.903  0.00  0.00    +0.000 OA
ENDBRANCH  17  28
BRANCH  22  29
ATOM     29  O   UNL     1       6.318   4.701  19.824  0.00  0.00    +0.000 OA
ATOM     30  H   UNL     1       6.146   3.818  20.214  0.00  0.00    +0.000 HD
ENDBRANCH  22  29
ENDBRANCH   1  21
TORSDOF 4
ENDMDL
MODEL 9
REMARK VINA RESULT:      -7.9      3.178      5.520
REMARK  Name = 
REMARK  5 active torsions:
REMARK  status: ('A' for Active; 'I' for Inactive)
REMARK    1  A    between atoms: C_1  and  O_2
REMARK    2  A    between atoms: O_2  and  C_3
REMARK    3  A    between atoms: C_7  and  C_8
REMARK    4  A    between atoms: C_8  and  C_10
REMARK    5  A    between atoms: C_23  and  O_24
REMARK                            x       y       z     vdW  Elec       q    Type
REMARK                         _______ _______ _______ _____ _____    ______ ____
ROOT
ATOM      1  C   UNL     1       0.417  11.371  20.814  0.00  0.00    +0.000 C 
ATOM      2  O   UNL     1       1.134  12.317  21.157  0.00  0.00    +0.000 OA
ENDROOT
BRANCH   1   3
ATOM      3  C   UNL     1      -0.926  11.668  20.267  0.00  0.00    +0.000 A 
ATOM      4  N   UNL     1      -1.157  11.574  18.931  0.00  0.00    +0.000 NA
ATOM      5  C   UNL     1      -2.383  11.883  18.455  0.00  0.00    +0.000 A 
ATOM      6  C   UNL     1      -3.453  12.300  19.236  0.00  0.00    +0.000 A 
ATOM      7  C   UNL     1      -3.241  12.348  20.623  0.00  0.00    +0.000 A 
ATOM      8  C   UNL     1      -1.980  12.017  21.108  0.00  0.00    +0.000 A 
ATOM      9  N   UNL     1      -2.027  12.111  22.480  0.00  0.00    +0.000 N 
ATOM     10  C   UNL     1      -3.294  12.433  22.899  0.00  0.00    +0.000 A 
ATOM     11  C   UNL     1      -3.806  12.535  24.195  0.00  0.00    +0.000 A 
ATOM     12  C   UNL     1      -5.157  12.861  24.329  0.00  0.00    +0.000 A 
ATOM     13  C   UNL     1      -5.949  13.113  23.210  0.00  0.00    +0.000 A 
ATOM     14  C   UNL     1      -5.416  13.016  21.919  0.00  0.00    +0.000 A 
ATOM     15  C   UNL     1      -4.067  12.639  21.756  0.00  0.00    +0.000 A 
ATOM     16  H   UNL     1      -1.248  11.896  23.088  0.00  0.00    +0.000 HD
ENDBRANCH   1   3
BRANCH   1  21
ATOM     17  C   UNL     1       2.475   6.957  18.390  0.00  0.00    +0.000 A 
ATOM     18  C   UNL     1       2.152   8.149  17.750  0.00  0.00    +0.000 A 
ATOM     19  C   UNL     1       1.640   9.232  18.473  0.00  0.00    +0.000 A 
ATOM     20  C   UNL     1       1.413   9.124  19.862  0.00  0.00    +0.000 A 
ATOM     21  C   UNL     1       0.904  10.000  20.879  0.00  0.00    +0.000 A 
ATOM     22  C   UNL     1       1.029   9.317  22.080  0.00  0.00    +0.000 A 
ATOM     23  N   UNL     1       1.508   8.064  21.821  0.00  0.00    +0.000 N 
ATOM     24  C   UNL     1       1.766   7.922  20.479  0.00  0.00    +0.000 A 
ATOM     25  C   UNL     1       2.297   6.832  19.772  0.00  0.00    +0.000 A 
ATOM     26  H   UNL     1       1.680   7.367  22.529  0.00  0.00    +0.000 HD
BRANCH  17  28
ATOM     27  C   UNL     1       2.189   4.663  17.846  0.00  0.00    +0.000 C 
ATOM     28  O   UNL     1       2.983   5.843  17.773  0.00  0.00    +0.000 OA
ENDBRANCH  17  28
BRANCH  22  29
ATOM     29  O   UNL     1       0.774   9.676  23.333  0.00  0.00    +0.000 OA
ATOM     30  H   UNL     1       0.381   8.891  23.772  0.00  0.00    +0.000 HD
ENDBRANCH  22  29
ENDBRANCH   1  21
TORSDOF 4
ENDMDL
