MODEL 1
REMARK VINA RESULT:      -8.6      0.000      0.000
REMARK  Name = 
REMARK  8 active torsions:
REMARK  status: ('A' for Active; 'I' for Inactive)
REMARK    1  A    between atoms: C_1  and  C_2
REMARK    2  A    between atoms: C_2  and  C_3
REMARK    3  A    between atoms: C_2  and  C_4
REMARK    4  A    between atoms: C_4  and  C_5
REMARK    5  A    between atoms: C_5  and  C_6
REMARK    6  A    between atoms: N_8  and  C_9
REMARK    7  A    between atoms: C_12  and  N_13
REMARK    8  A    between atoms: N_16  and  C_17
REMARK                            x       y       z     vdW  Elec       q    Type
REMARK                         _______ _______ _______ _____ _____    ______ ____
ROOT
ATOM      1  C   UNL     1       5.947   5.539  18.315  0.00  0.00    +0.000 A 
ATOM      2  C   UNL     1       5.442   6.480  17.418  0.00  0.00    +0.000 A 
ATOM      3  C   UNL     1       6.200   7.602  17.081  0.00  0.00    +0.000 A 
ATOM      4  C   UNL     1       7.471   7.808  17.626  0.00  0.00    +0.000 A 
ATOM      5  C   UNL     1       8.001   6.842  18.483  0.00  0.00    +0.000 A 
ATOM      6  C   UNL     1       7.236   5.717  18.844  0.00  0.00    +0.000 A 
ENDROOT
BRANCH   4   7
ATOM      7  N   UNL     1       8.234   8.965  17.327  0.00  0.00    +0.000 N 
ATOM      8  C   UNL     1       8.835   9.761  18.286  0.00  0.00    +0.000 C 
ATOM      9  O   UNL     1       8.876   9.500  19.491  0.00  0.00    +0.000 OA
ATOM     10  N   UNL     1       9.379  10.913  17.745  0.00  0.00    +0.000 N 
ATOM     11  H   UNL     1       8.584   9.060  16.385  0.00  0.00    +0.000 HD
ATOM     12  H   UNL     1       8.835  11.307  16.987  0.00  0.00    +0.000 HD
BRANCH  10  13
ATOM     13  C   UNL     1       9.990  11.866  18.601  0.00  0.00    +0.000 A 
ATOM     14  C   UNL     1      11.270  11.671  19.127  0.00  0.00    +0.000 A 
ATOM     15  C   UNL     1      11.827  12.617  19.994  0.00  0.00    +0.000 A 
ATOM     16  C   UNL     1      11.099  13.753  20.350  0.00  0.00    +0.000 A 
ATOM     17  C   UNL     1       9.817  13.949  19.834  0.00  0.00    +0.000 A 
ATOM     18  C   UNL     1       9.280  13.016  18.951  0.00  0.00    +0.000 A 
ATOM     19  F   UNL     1       8.033  13.194  18.487  0.00  0.00    +0.000 F 
ENDBRANCH  10  13
ENDBRANCH   4   7
BRANCH   1  22
ATOM     20  C   UNL     1       3.620   2.894  18.921  0.00  0.00    +0.000 A 
ATOM     21  C   UNL     1       3.931   4.038  18.222  0.00  0.00    +0.000 A 
ATOM     22  N   UNL     1       5.167   4.417  18.692  0.00  0.00    +0.000 N 
ATOM     23  N   UNL     1       5.582   3.529  19.628  0.00  0.00    +0.000 NA
ATOM     24  N   UNL     1       4.644   2.604  19.775  0.00  0.00    +0.000 NA
BRANCH  20  25
ATOM     25  C   UNL     1       2.408   2.044  18.843  0.00  0.00    +0.000 C 
BRANCH  25  26
ATOM     26  C   UNL     1       1.102   2.835  18.986  0.00  0.00    +0.000 C 
BRANCH  26  28
ATOM     27  C   UNL     1       1.543   2.539  21.475  0.00  0.00    +0.000 C 
ATOM     28  C   UNL     1       0.823   3.364  20.408  0.00  0.00    +0.000 C 
ATOM     29  C   UNL     1       1.240   4.833  20.518  0.00  0.00    +0.000 C 
ENDBRANCH  26  28
ENDBRANCH  25  26
ENDBRANCH  20  25
ENDBRANCH   1  22
TORSDOF 6
ENDMDL
MODEL 2
REMARK VINA RESULT:      -8.1      5.806      8.299
REMARK  Name = 
REMARK  8 active torsions:
REMARK  status: ('A' for Active; 'I' for Inactive)
REMARK    1  A    between atoms: C_1  and  C_2
REMARK    2  A    between atoms: C_2  and  C_3
REMARK    3  A    between atoms: C_2  and  C_4
REMARK    4  A    between atoms: C_4  and  C_5
REMARK    5  A    between atoms: C_5  and  C_6
REMARK    6  A    between atoms: N_8  and  C_9
REMARK    7  A    between atoms: C_12  and  N_13
REMARK    8  A    between atoms: N_16  and  C_17
REMARK                            x       y       z     vdW  Elec       q    Type
REMARK                         _______ _______ _______ _____ _____    ______ ____
ROOT
ATOM      1  C   UNL     1       4.825   5.776  17.193  0.00  0.00    +0.000 A 
ATOM      2  C   UNL     1       4.681   4.970  18.322  0.00  0.00    +0.000 A 
ATOM      3  C   UNL     1       3.818   5.353  19.349  0.00  0.00    +0.000 A 
ATOM      4  C   UNL     1       3.083   6.541  19.274  0.00  0.00    +0.000 A 
ATOM      5  C   UNL     1       3.185   7.322  18.122  0.00  0.00    +0.000 A 
ATOM      6  C   UNL     1       4.067   6.954  17.089  0.00  0.00    +0.000 A 
ENDROOT
BRANCH   4   7
ATOM      7  N   UNL     1       2.236   6.964  20.329  0.00  0.00    +0.000 N 
ATOM      8  C   UNL     1       1.452   8.103  20.276  0.00  0.00    +0.000 C 
ATOM      9  O   UNL     1       1.308   8.812  19.278  0.00  0.00    +0.000 OA
ATOM     10  N   UNL     1       0.848   8.379  21.491  0.00  0.00    +0.000 N 
ATOM     11  H   UNL     1       1.983   6.279  21.025  0.00  0.00    +0.000 HD
ATOM     12  H   UNL     1       1.426   8.163  22.294  0.00  0.00    +0.000 HD
BRANCH  10  13
ATOM     13  C   UNL     1       0.048   9.543  21.625  0.00  0.00    +0.000 A 
ATOM     14  C   UNL     1      -0.336  10.305  20.518  0.00  0.00    +0.000 A 
ATOM     15  C   UNL     1      -1.098  11.465  20.691  0.00  0.00    +0.000 A 
ATOM     16  C   UNL     1      -1.463  11.876  21.973  0.00  0.00    +0.000 A 
ATOM     17  C   UNL     1      -1.076  11.124  23.083  0.00  0.00    +0.000 A 
ATOM     18  C   UNL     1      -0.341   9.956  22.900  0.00  0.00    +0.000 A 
ATOM     19  F   UNL     1       0.058   9.257  23.975  0.00  0.00    +0.000 F 
ENDBRANCH  10  13
ENDBRANCH   4   7
BRANCH   1  22
ATOM     20  C   UNL     1       6.678   4.658  14.348  0.00  0.00    +0.000 A 
ATOM     21  C   UNL     1       5.457   4.785  14.969  0.00  0.00    +0.000 A 
ATOM     22  N   UNL     1       5.728   5.413  16.163  0.00  0.00    +0.000 N 
ATOM     23  N   UNL     1       7.058   5.659  16.247  0.00  0.00    +0.000 NA
ATOM     24  N   UNL     1       7.643   5.198  15.149  0.00  0.00    +0.000 NA
BRANCH  20  25
ATOM     25  C   UNL     1       7.009   4.053  13.036  0.00  0.00    +0.000 C 
BRANCH  25  26
ATOM     26  C   UNL     1       5.865   4.151  12.019  0.00  0.00    +0.000 C 
BRANCH  26  28
ATOM     27  C   UNL     1       3.826   3.070  10.945  0.00  0.00    +0.000 C 
ATOM     28  C   UNL     1       5.037   2.860  11.854  0.00  0.00    +0.000 C 
ATOM     29  C   UNL     1       5.915   1.735  11.299  0.00  0.00    +0.000 C 
ENDBRANCH  26  28
ENDBRANCH  25  26
ENDBRANCH  20  25
ENDBRANCH   1  22
TORSDOF 6
ENDMDL
MODEL 3
REMARK VINA RESULT:      -7.7      1.473      1.905
REMARK  Name = 
REMARK  8 active torsions:
REMARK  status: ('A' for Active; 'I' for Inactive)
REMARK    1  A    between atoms: C_1  and  C_2
REMARK    2  A    between atoms: C_2  and  C_3
REMARK    3  A    between atoms: C_2  and  C_4
REMARK    4  A    between atoms: C_4  and  C_5
REMARK    5  A    between atoms: C_5  and  C_6
REMARK    6  A    between atoms: N_8  and  C_9
REMARK    7  A    between atoms: C_12  and  N_13
REMARK    8  A    between atoms: N_16  and  C_17
REMARK                            x       y       z     vdW  Elec       q    Type
REMARK                         _______ _______ _______ _____ _____    ______ ____
ROOT
ATOM      1  C   UNL     1       6.397   5.899  17.914  0.00  0.00    +0.000 A 
ATOM      2  C   UNL     1       6.436   7.078  17.170  0.00  0.00    +0.000 A 
ATOM      3  C   UNL     1       7.353   8.079  17.493  0.00  0.00    +0.000 A 
ATOM      4  C   UNL     1       8.247   7.927  18.558  0.00  0.00    +0.000 A 
ATOM      5  C   UNL     1       8.246   6.727  19.270  0.00  0.00    +0.000 A 
ATOM      6  C   UNL     1       7.312   5.720  18.965  0.00  0.00    +0.000 A 
ENDROOT
BRANCH   4   7
ATOM      7  N   UNL     1       9.154   8.954  18.924  0.00  0.00    +0.000 N 
ATOM      8  C   UNL     1       9.084  10.250  18.445  0.00  0.00    +0.000 C 
ATOM      9  O   UNL     1       8.171  10.692  17.744  0.00  0.00    +0.000 OA
ATOM     10  N   UNL     1      10.177  11.009  18.827  0.00  0.00    +0.000 N 
ATOM     11  H   UNL     1       9.696   8.816  19.764  0.00  0.00    +0.000 HD
ATOM     12  H   UNL     1      11.048  10.492  18.848  0.00  0.00    +0.000 HD
BRANCH  10  13
ATOM     13  C   UNL     1      10.288  12.349  18.377  0.00  0.00    +0.000 A 
ATOM     14  C   UNL     1      11.073  12.693  17.273  0.00  0.00    +0.000 A 
ATOM     15  C   UNL     1      11.185  14.030  16.877  0.00  0.00    +0.000 A 
ATOM     16  C   UNL     1      10.527  15.029  17.595  0.00  0.00    +0.000 A 
ATOM     17  C   UNL     1       9.749  14.693  18.703  0.00  0.00    +0.000 A 
ATOM     18  C   UNL     1       9.620  13.358  19.074  0.00  0.00    +0.000 A 
ATOM     19  F   UNL     1       8.899  13.045  20.163  0.00  0.00    +0.000 F 
ENDBRANCH  10  13
ENDBRANCH   4   7
BRANCH   1  22
ATOM     20  C   UNL     1       4.083   3.187  17.655  0.00  0.00    +0.000 A 
ATOM     21  C   UNL     1       4.983   3.885  18.429  0.00  0.00    +0.000 A 
ATOM     22  N   UNL     1       5.443   4.895  17.616  0.00  0.00    +0.000 N 
ATOM     23  N   UNL     1       4.836   4.809  16.408  0.00  0.00    +0.000 NA
ATOM     24  N   UNL     1       4.011   3.770  16.423  0.00  0.00    +0.000 NA
BRANCH  20  25
ATOM     25  C   UNL     1       3.276   1.991  17.997  0.00  0.00    +0.000 C 
BRANCH  25  26
ATOM     26  C   UNL     1       2.876   1.934  19.476  0.00  0.00    +0.000 C 
BRANCH  26  28
ATOM     27  C   UNL     1       0.513   2.755  19.007  0.00  0.00    +0.000 C 
ATOM     28  C   UNL     1       1.758   2.918  19.879  0.00  0.00    +0.000 C 
ATOM     29  C   UNL     1       1.389   2.727  21.352  0.00  0.00    +0.000 C 
ENDBRANCH  26  28
ENDBRANCH  25  26
ENDBRANCH  20  25
ENDBRANCH   1  22
TORSDOF 6
ENDMDL
MODEL 4
REMARK VINA RESULT:      -7.6      9.010     11.543
REMARK  Name = 
REMARK  8 active torsions:
REMARK  status: ('A' for Active; 'I' for Inactive)
REMARK    1  A    between atoms: C_1  and  C_2
REMARK    2  A    between atoms: C_2  and  C_3
REMARK    3  A    between atoms: C_2  and  C_4
REMARK    4  A    between atoms: C_4  and  C_5
REMARK    5  A    between atoms: C_5  and  C_6
REMARK    6  A    between atoms: N_8  and  C_9
REMARK    7  A    between atoms: C_12  and  N_13
REMARK    8  A    between atoms: N_16  and  C_17
REMARK                            x       y       z     vdW  Elec       q    Type
REMARK                         _______ _______ _______ _____ _____    ______ ____
ROOT
ATOM      1  C   UNL     1       0.378   9.799  20.972  0.00  0.00    +0.000 A 
ATOM      2  C   UNL     1       0.024  11.086  20.571  0.00  0.00    +0.000 A 
ATOM      3  C   UNL     1      -0.757  11.888  21.404  0.00  0.00    +0.000 A 
ATOM      4  C   UNL     1      -1.199  11.427  22.648  0.00  0.00    +0.000 A 
ATOM      5  C   UNL     1      -0.802  10.159  23.075  0.00  0.00    +0.000 A 
ATOM      6  C   UNL     1      -0.031   9.335  22.234  0.00  0.00    +0.000 A 
ENDROOT
BRANCH   4   7
ATOM      7  N   UNL     1      -2.029  12.215  23.486  0.00  0.00    +0.000 N 
ATOM      8  C   UNL     1      -3.325  12.575  23.165  0.00  0.00    +0.000 C 
ATOM      9  O   UNL     1      -3.946  12.165  22.181  0.00  0.00    +0.000 OA
ATOM     10  N   UNL     1      -3.858  13.477  24.071  0.00  0.00    +0.000 N 
ATOM     11  H   UNL     1      -1.773  12.285  24.460  0.00  0.00    +0.000 HD
ATOM     12  H   UNL     1      -3.187  14.149  24.422  0.00  0.00    +0.000 HD
BRANCH  10  13
ATOM     13  C   UNL     1      -5.164  13.990  23.861  0.00  0.00    +0.000 A 
ATOM     14  C   UNL     1      -5.378  15.277  23.359  0.00  0.00    +0.000 A 
ATOM     15  C   UNL     1      -6.680  15.761  23.196  0.00  0.00    +0.000 A 
ATOM     16  C   UNL     1      -7.771  14.967  23.550  0.00  0.00    +0.000 A 
ATOM     17  C   UNL     1      -7.563  13.684  24.058  0.00  0.00    +0.000 A 
ATOM     18  C   UNL     1      -6.265  13.199  24.193  0.00  0.00    +0.000 A 
ATOM     19  F   UNL     1      -6.072  11.978  24.716  0.00  0.00    +0.000 F 
ENDBRANCH  10  13
ENDBRANCH   4   7
BRANCH   1  22
ATOM     20  C   UNL     1       2.309   7.355  19.219  0.00  0.00    +0.000 A 
ATOM     21  C   UNL     1       1.646   7.712  20.371  0.00  0.00    +0.000 A 
ATOM     22  N   UNL     1       1.138   8.964  20.115  0.00  0.00    +0.000 N 
ATOM     23  N   UNL     1       1.476   9.337  18.857  0.00  0.00    +0.000 NA
ATOM     24  N   UNL     1       2.192   8.364  18.308  0.00  0.00    +0.000 NA
BRANCH  20  25
ATOM     25  C   UNL     1       3.058   6.113  18.910  0.00  0.00    +0.000 C 
BRANCH  25  26
ATOM     26  C   UNL     1       2.347   4.842  19.391  0.00  0.00    +0.000 C 
BRANCH  26  28
ATOM     27  C   UNL     1       2.768   3.503  17.268  0.00  0.00    +0.000 C 
ATOM     28  C   UNL     1       1.720   3.991  18.268  0.00  0.00    +0.000 C 
ATOM     29  C   UNL     1       0.973   2.795  18.863  0.00  0.00    +0.000 C 
ENDBRANCH  26  28
ENDBRANCH  25  26
ENDBRANCH  20  25
ENDBRANCH   1  22
TORSDOF 6
ENDMDL
MODEL 5
REMARK VINA RESULT:      -7.6      6.744      9.657
REMARK  Name = 
REMARK  8 active torsions:
REMARK  status: ('A' for Active; 'I' for Inactive)
REMARK    1  A    between atoms: C_1  and  C_2
REMARK    2  A    between atoms: C_2  and  C_3
REMARK    3  A    between atoms: C_2  and  C_4
REMARK    4  A    between atoms: C_4  and  C_5
REMARK    5  A    between atoms: C_5  and  C_6
REMARK    6  A    between atoms: N_8  and  C_9
REMARK    7  A    between atoms: C_12  and  N_13
REMARK    8  A    between atoms: N_16  and  C_17
REMARK                            x       y       z     vdW  Elec       q    Type
REMARK                         _______ _______ _______ _____ _____    ______ ____
ROOT
ATOM      1  C   UNL     1       2.816   7.454  18.474  0.00  0.00    +0.000 A 
ATOM      2  C   UNL     1       2.557   8.488  17.575  0.00  0.00    +0.000 A 
ATOM      3  C   UNL     1       1.661   9.502  17.916  0.00  0.00    +0.000 A 
ATOM      4  C   UNL     1       1.009   9.509  19.153  0.00  0.00    +0.000 A 
ATOM      5  C   UNL     1       1.308   8.504  20.075  0.00  0.00    +0.000 A 
ATOM      6  C   UNL     1       2.195   7.467  19.734  0.00  0.00    +0.000 A 
ENDROOT
BRANCH   4   7
ATOM      7  N   UNL     1       0.064  10.509  19.495  0.00  0.00    +0.000 N 
ATOM      8  C   UNL     1      -1.240  10.524  19.035  0.00  0.00    +0.000 C 
ATOM      9  O   UNL     1      -1.765   9.623  18.377  0.00  0.00    +0.000 OA
ATOM     10  N   UNL     1      -1.904  11.688  19.382  0.00  0.00    +0.000 N 
ATOM     11  H   UNL     1       0.258  11.071  20.311  0.00  0.00    +0.000 HD
ATOM     12  H   UNL     1      -1.319  12.515  19.362  0.00  0.00    +0.000 HD
BRANCH  10  13
ATOM     13  C   UNL     1      -3.238  11.889  18.944  0.00  0.00    +0.000 A 
ATOM     14  C   UNL     1      -3.637  11.595  17.637  0.00  0.00    +0.000 A 
ATOM     15  C   UNL     1      -4.954  11.837  17.232  0.00  0.00    +0.000 A 
ATOM     16  C   UNL     1      -5.871  12.389  18.126  0.00  0.00    +0.000 A 
ATOM     17  C   UNL     1      -5.477  12.693  19.430  0.00  0.00    +0.000 A 
ATOM     18  C   UNL     1      -4.172  12.424  19.834  0.00  0.00    +0.000 A 
ATOM     19  F   UNL     1      -3.790  12.752  21.078  0.00  0.00    +0.000 F 
ENDBRANCH  10  13
ENDBRANCH   4   7
BRANCH   1  22
ATOM     20  C   UNL     1       5.059   5.031  17.104  0.00  0.00    +0.000 A 
ATOM     21  C   UNL     1       4.349   6.197  16.927  0.00  0.00    +0.000 A 
ATOM     22  N   UNL     1       3.695   6.401  18.120  0.00  0.00    +0.000 N 
ATOM     23  N   UNL     1       4.010   5.401  18.979  0.00  0.00    +0.000 NA
ATOM     24  N   UNL     1       4.835   4.562  18.367  0.00  0.00    +0.000 NA
BRANCH  20  25
ATOM     25  C   UNL     1       5.946   4.315  16.156  0.00  0.00    +0.000 C 
BRANCH  25  26
ATOM     26  C   UNL     1       5.488   4.428  14.697  0.00  0.00    +0.000 C 
BRANCH  26  28
ATOM     27  C   UNL     1       5.799   3.340  12.417  0.00  0.00    +0.000 C 
ATOM     28  C   UNL     1       6.497   3.885  13.663  0.00  0.00    +0.000 C 
ATOM     29  C   UNL     1       7.490   4.980  13.266  0.00  0.00    +0.000 C 
ENDBRANCH  26  28
ENDBRANCH  25  26
ENDBRANCH  20  25
ENDBRANCH   1  22
TORSDOF 6
ENDMDL
MODEL 6
REMARK VINA RESULT:      -7.6      0.796      1.477
REMARK  Name = 
REMARK  8 active torsions:
REMARK  status: ('A' for Active; 'I' for Inactive)
REMARK    1  A    between atoms: C_1  and  C_2
REMARK    2  A    between atoms: C_2  and  C_3
REMARK    3  A    between atoms: C_2  and  C_4
REMARK    4  A    between atoms: C_4  and  C_5
REMARK    5  A    between atoms: C_5  and  C_6
REMARK    6  A    between atoms: N_8  and  C_9
REMARK    7  A    between atoms: C_12  and  N_13
REMARK    8  A    between atoms: N_16  and  C_17
REMARK                            x       y       z     vdW  Elec       q    Type
REMARK                         _______ _______ _______ _____ _____    ______ ____
ROOT
ATOM      1  C   UNL     1       6.387   5.919  18.249  0.00  0.00    +0.000 A 
ATOM      2  C   UNL     1       7.616   6.135  18.870  0.00  0.00    +0.000 A 
ATOM      3  C   UNL     1       8.335   7.302  18.610  0.00  0.00    +0.000 A 
ATOM      4  C   UNL     1       7.847   8.274  17.731  0.00  0.00    +0.000 A 
ATOM      5  C   UNL     1       6.592   8.084  17.150  0.00  0.00    +0.000 A 
ATOM      6  C   UNL     1       5.868   6.902  17.390  0.00  0.00    +0.000 A 
ENDROOT
BRANCH   4   7
ATOM      7  N   UNL     1       8.587   9.444  17.424  0.00  0.00    +0.000 N 
ATOM      8  C   UNL     1       9.059  10.328  18.378  0.00  0.00    +0.000 C 
ATOM      9  O   UNL     1       8.995  10.148  19.597  0.00  0.00    +0.000 OA
ATOM     10  N   UNL     1       9.604  11.467  17.812  0.00  0.00    +0.000 N 
ATOM     11  H   UNL     1       9.021   9.494  16.515  0.00  0.00    +0.000 HD
ATOM     12  H   UNL     1       9.119  11.784  16.981  0.00  0.00    +0.000 HD
BRANCH  10  13
ATOM     13  C   UNL     1      10.089  12.502  18.652  0.00  0.00    +0.000 A 
ATOM     14  C   UNL     1      11.406  12.514  19.122  0.00  0.00    +0.000 A 
ATOM     15  C   UNL     1      11.840  13.533  19.975  0.00  0.00    +0.000 A 
ATOM     16  C   UNL     1      10.955  14.534  20.376  0.00  0.00    +0.000 A 
ATOM     17  C   UNL     1       9.637  14.523  19.917  0.00  0.00    +0.000 A 
ATOM     18  C   UNL     1       9.220  13.521  19.046  0.00  0.00    +0.000 A 
ATOM     19  F   UNL     1       7.941  13.496  18.638  0.00  0.00    +0.000 F 
ENDBRANCH  10  13
ENDBRANCH   4   7
BRANCH   1  22
ATOM     20  C   UNL     1       4.385   2.958  18.336  0.00  0.00    +0.000 A 
ATOM     21  C   UNL     1       4.828   4.047  17.621  0.00  0.00    +0.000 A 
ATOM     22  N   UNL     1       5.669   4.719  18.479  0.00  0.00    +0.000 N 
ATOM     23  N   UNL     1       5.733   4.051  19.656  0.00  0.00    +0.000 NA
ATOM     24  N   UNL     1       4.952   2.982  19.578  0.00  0.00    +0.000 NA
BRANCH  20  25
ATOM     25  C   UNL     1       3.452   1.880  17.929  0.00  0.00    +0.000 C 
BRANCH  25  26
ATOM     26  C   UNL     1       2.060   2.015  18.557  0.00  0.00    +0.000 C 
BRANCH  26  28
ATOM     27  C   UNL     1       1.160   4.280  17.823  0.00  0.00    +0.000 C 
ATOM     28  C   UNL     1       1.687   3.447  18.992  0.00  0.00    +0.000 C 
ATOM     29  C   UNL     1       0.645   3.407  20.112  0.00  0.00    +0.000 C 
ENDBRANCH  26  28
ENDBRANCH  25  26
ENDBRANCH  20  25
ENDBRANCH   1  22
TORSDOF 6
ENDMDL
MODEL 7
REMARK VINA RESULT:      -7.6      0.749      1.171
REMARK  Name = 
REMARK  8 active torsions:
REMARK  status: ('A' for Active; 'I' for Inactive)
REMARK    1  A    between atoms: C_1  and  C_2
REMARK    2  A    between atoms: C_2  and  C_3
REMARK    3  A    between atoms: C_2  and  C_4
REMARK    4  A    between atoms: C_4  and  C_5
REMARK    5  A    between atoms: C_5  and  C_6
REMARK    6  A    between atoms: N_8  and  C_9
REMARK    7  A    between atoms: C_12  and  N_13
REMARK    8  A    between atoms: N_16  and  C_17
REMARK                            x       y       z     vdW  Elec       q    Type
REMARK                         _______ _______ _______ _____ _____    ______ ____
ROOT
ATOM      1  C   UNL     1       6.049   5.698  18.139  0.00  0.00    +0.000 A 
ATOM      2  C   UNL     1       5.605   6.662  17.235  0.00  0.00    +0.000 A 
ATOM      3  C   UNL     1       6.400   7.774  16.953  0.00  0.00    +0.000 A 
ATOM      4  C   UNL     1       7.646   7.948  17.562  0.00  0.00    +0.000 A 
ATOM      5  C   UNL     1       8.116   6.958  18.427  0.00  0.00    +0.000 A 
ATOM      6  C   UNL     1       7.314   5.842  18.732  0.00  0.00    +0.000 A 
ENDROOT
BRANCH   4   7
ATOM      7  N   UNL     1       8.445   9.094  17.319  0.00  0.00    +0.000 N 
ATOM      8  C   UNL     1       8.910   9.933  18.316  0.00  0.00    +0.000 C 
ATOM      9  O   UNL     1       8.786   9.726  19.525  0.00  0.00    +0.000 OA
ATOM     10  N   UNL     1       9.524  11.064  17.804  0.00  0.00    +0.000 N 
ATOM     11  H   UNL     1       8.919   9.149  16.430  0.00  0.00    +0.000 HD
ATOM     12  H   UNL     1       9.088  11.421  16.962  0.00  0.00    +0.000 HD
BRANCH  10  13
ATOM     13  C   UNL     1      10.013  12.056  18.692  0.00  0.00    +0.000 A 
ATOM     14  C   UNL     1      11.264  11.943  19.306  0.00  0.00    +0.000 A 
ATOM     15  C   UNL     1      11.700  12.926  20.201  0.00  0.00    +0.000 A 
ATOM     16  C   UNL     1      10.879  14.015  20.498  0.00  0.00    +0.000 A 
ATOM     17  C   UNL     1       9.626  14.128  19.894  0.00  0.00    +0.000 A 
ATOM     18  C   UNL     1       9.211  13.161  18.984  0.00  0.00    +0.000 A 
ATOM     19  F   UNL     1       7.990  13.258  18.434  0.00  0.00    +0.000 F 
ENDBRANCH  10  13
ENDBRANCH   4   7
BRANCH   1  22
ATOM     20  C   UNL     1       4.052   3.039  19.453  0.00  0.00    +0.000 A 
ATOM     21  C   UNL     1       4.805   4.165  19.698  0.00  0.00    +0.000 A 
ATOM     22  N   UNL     1       5.231   4.586  18.459  0.00  0.00    +0.000 N 
ATOM     23  N   UNL     1       4.743   3.749  17.511  0.00  0.00    +0.000 NA
ATOM     24  N   UNL     1       4.030   2.804  18.108  0.00  0.00    +0.000 NA
BRANCH  20  25
ATOM     25  C   UNL     1       3.343   2.155  20.408  0.00  0.00    +0.000 C 
BRANCH  25  26
ATOM     26  C   UNL     1       2.470   2.921  21.409  0.00  0.00    +0.000 C 
BRANCH  26  28
ATOM     27  C   UNL     1       1.309   4.995  20.501  0.00  0.00    +0.000 C 
ATOM     28  C   UNL     1       1.172   3.505  20.814  0.00  0.00    +0.000 C 
ATOM     29  C   UNL     1       0.779   2.741  19.548  0.00  0.00    +0.000 C 
ENDBRANCH  26  28
ENDBRANCH  25  26
ENDBRANCH  20  25
ENDBRANCH   1  22
TORSDOF 6
ENDMDL
MODEL 8
REMARK VINA RESULT:      -7.6      0.932      1.403
REMARK  Name = 
REMARK  8 active torsions:
REMARK  status: ('A' for Active; 'I' for Inactive)
REMARK    1  A    between atoms: C_1  and  C_2
REMARK    2  A    between atoms: C_2  and  C_3
REMARK    3  A    between atoms: C_2  and  C_4
REMARK    4  A    between atoms: C_4  and  C_5
REMARK    5  A    between atoms: C_5  and  C_6
REMARK    6  A    between atoms: N_8  and  C_9
REMARK    7  A    between atoms: C_12  and  N_13
REMARK    8  A    between atoms: N_16  and  C_17
REMARK                            x       y       z     vdW  Elec       q    Type
REMARK                         _______ _______ _______ _____ _____    ______ ____
ROOT
ATOM      1  C   UNL     1       5.963   5.866  17.924  0.00  0.00    +0.000 A 
ATOM      2  C   UNL     1       7.162   5.818  18.634  0.00  0.00    +0.000 A 
ATOM      3  C   UNL     1       8.083   6.860  18.522  0.00  0.00    +0.000 A 
ATOM      4  C   UNL     1       7.831   7.966  17.704  0.00  0.00    +0.000 A 
ATOM      5  C   UNL     1       6.609   8.042  17.034  0.00  0.00    +0.000 A 
ATOM      6  C   UNL     1       5.682   6.987  17.126  0.00  0.00    +0.000 A 
ENDROOT
BRANCH   4   7
ATOM      7  N   UNL     1       8.777   9.010  17.546  0.00  0.00    +0.000 N 
ATOM      8  C   UNL     1       8.919  10.060  18.436  0.00  0.00    +0.000 C 
ATOM      9  O   UNL     1       8.330  10.152  19.515  0.00  0.00    +0.000 OA
ATOM     10  N   UNL     1       9.794  11.027  17.969  0.00  0.00    +0.000 N 
ATOM     11  H   UNL     1       9.553   8.844  16.923  0.00  0.00    +0.000 HD
ATOM     12  H   UNL     1       9.745  11.175  16.969  0.00  0.00    +0.000 HD
BRANCH  10  13
ATOM     13  C   UNL     1      10.015  12.199  18.738  0.00  0.00    +0.000 A 
ATOM     14  C   UNL     1      11.004  12.258  19.724  0.00  0.00    +0.000 A 
ATOM     15  C   UNL     1      11.172  13.420  20.484  0.00  0.00    +0.000 A 
ATOM     16  C   UNL     1      10.340  14.520  20.273  0.00  0.00    +0.000 A 
ATOM     17  C   UNL     1       9.346  14.464  19.295  0.00  0.00    +0.000 A 
ATOM     18  C   UNL     1       9.203  13.314  18.524  0.00  0.00    +0.000 A 
ATOM     19  F   UNL     1       8.221  13.254  17.610  0.00  0.00    +0.000 F 
ENDBRANCH  10  13
ENDBRANCH   4   7
BRANCH   1  22
ATOM     20  C   UNL     1       3.802   3.106  18.625  0.00  0.00    +0.000 A 
ATOM     21  C   UNL     1       4.754   3.989  19.082  0.00  0.00    +0.000 A 
ATOM     22  N   UNL     1       5.039   4.794  18.004  0.00  0.00    +0.000 N 
ATOM     23  N   UNL     1       4.281   4.413  16.947  0.00  0.00    +0.000 NA
ATOM     24  N   UNL     1       3.530   3.384  17.317  0.00  0.00    +0.000 NA
BRANCH  20  25
ATOM     25  C   UNL     1       3.122   2.001  19.343  0.00  0.00    +0.000 C 
BRANCH  25  26
ATOM     26  C   UNL     1       1.606   2.201  19.464  0.00  0.00    +0.000 C 
BRANCH  26  28
ATOM     27  C   UNL     1       2.118   2.765  21.892  0.00  0.00    +0.000 C 
ATOM     28  C   UNL     1       1.158   2.974  20.721  0.00  0.00    +0.000 C 
ATOM     29  C   UNL     1       1.034   4.467  20.410  0.00  0.00    +0.000 C 
ENDBRANCH  26  28
ENDBRANCH  25  26
ENDBRANCH  20  25
ENDBRANCH   1  22
TORSDOF 6
ENDMDL
MODEL 9
REMARK VINA RESULT:      -7.5      1.821      2.288
REMARK  Name = 
REMARK  8 active torsions:
REMARK  status: ('A' for Active; 'I' for Inactive)
REMARK    1  A    between atoms: C_1  and  C_2
REMARK    2  A    between atoms: C_2  and  C_3
REMARK    3  A    between atoms: C_2  and  C_4
REMARK    4  A    between atoms: C_4  and  C_5
REMARK    5  A    between atoms: C_5  and  C_6
REMARK    6  A    between atoms: N_8  and  C_9
REMARK    7  A    between atoms: C_12  and  N_13
REMARK    8  A    between atoms: N_16  and  C_17
REMARK                            x       y       z     vdW  Elec       q    Type
REMARK                         _______ _______ _______ _____ _____    ______ ____
ROOT
ATOM      1  C   UNL     1       6.782   6.364  17.716  0.00  0.00    +0.000 A 
ATOM      2  C   UNL     1       6.763   7.604  17.079  0.00  0.00    +0.000 A 
ATOM      3  C   UNL     1       7.613   8.624  17.508  0.00  0.00    +0.000 A 
ATOM      4  C   UNL     1       8.496   8.431  18.575  0.00  0.00    +0.000 A 
ATOM      5  C   UNL     1       8.555   7.174  19.180  0.00  0.00    +0.000 A 
ATOM      6  C   UNL     1       7.688   6.145  18.767  0.00  0.00    +0.000 A 
ENDROOT
BRANCH   4   7
ATOM      7  N   UNL     1       9.334   9.471  19.050  0.00  0.00    +0.000 N 
ATOM      8  C   UNL     1       9.269  10.777  18.599  0.00  0.00    +0.000 C 
ATOM      9  O   UNL     1       8.413  11.213  17.827  0.00  0.00    +0.000 OA
ATOM     10  N   UNL     1      10.299  11.555  19.100  0.00  0.00    +0.000 N 
ATOM     11  H   UNL     1       9.800   9.325  19.933  0.00  0.00    +0.000 HD
ATOM     12  H   UNL     1      11.179  11.062  19.189  0.00  0.00    +0.000 HD
BRANCH  10  13
ATOM     13  C   UNL     1      10.411  12.911  18.696  0.00  0.00    +0.000 A 
ATOM     14  C   UNL     1       9.795  13.945  19.405  0.00  0.00    +0.000 A 
ATOM     15  C   UNL     1       9.900  15.266  18.958  0.00  0.00    +0.000 A 
ATOM     16  C   UNL     1      10.607  15.555  17.791  0.00  0.00    +0.000 A 
ATOM     17  C   UNL     1      11.218  14.526  17.073  0.00  0.00    +0.000 A 
ATOM     18  C   UNL     1      11.131  13.217  17.539  0.00  0.00    +0.000 A 
ATOM     19  F   UNL     1      11.690  12.227  16.825  0.00  0.00    +0.000 F 
ENDBRANCH  10  13
ENDBRANCH   4   7
BRANCH   1  22
ATOM     20  C   UNL     1       4.216   3.961  17.065  0.00  0.00    +0.000 A 
ATOM     21  C   UNL     1       4.632   5.060  17.782  0.00  0.00    +0.000 A 
ATOM     22  N   UNL     1       5.895   5.336  17.310  0.00  0.00    +0.000 N 
ATOM     23  N   UNL     1       6.217   4.442  16.343  0.00  0.00    +0.000 NA
ATOM     24  N   UNL     1       5.202   3.601  16.192  0.00  0.00    +0.000 NA
BRANCH  20  25
ATOM     25  C   UNL     1       2.939   3.214  17.145  0.00  0.00    +0.000 C 
BRANCH  25  26
ATOM     26  C   UNL     1       1.828   3.989  17.864  0.00  0.00    +0.000 C 
BRANCH  26  28
ATOM     27  C   UNL     1       1.831   1.882  19.293  0.00  0.00    +0.000 C 
ATOM     28  C   UNL     1       1.133   3.211  19.000  0.00  0.00    +0.000 C 
ATOM     29  C   UNL     1       1.082   4.062  20.272  0.00  0.00    +0.000 C 
ENDBRANCH  26  28
ENDBRANCH  25  26
ENDBRANCH  20  25
ENDBRANCH   1  22
TORSDOF 6
ENDMDL
