MODEL 1
REMARK VINA RESULT:      -8.1      0.000      0.000
REMARK  Name = 
REMARK  10 active torsions:
REMARK  status: ('A' for Active; 'I' for Inactive)
REMARK    1  A    between atoms: C_1  and  O_2
REMARK    2  A    between atoms: O_2  and  C_3
REMARK    3  A    between atoms: C_6  and  C_7
REMARK    4  A    between atoms: N_9  and  C_10
REMARK    5  A    between atoms: C_13  and  N_14
REMARK    6  A    between atoms: C_15  and  C_17
REMARK    7  A    between atoms: C_17  and  S_18
REMARK    8  A    between atoms: S_18  and  C_19
REMARK    9  A    between atoms: C_22  and  C_23
REMARK   10  A    between atoms: N_29  and  C_30
REMARK                            x       y       z     vdW  Elec       q    Type
REMARK                         _______ _______ _______ _____ _____    ______ ____
ROOT
ATOM      1  C   UNL     1       7.428   7.701  17.793  0.00  0.00    +0.000 A 
ATOM      2  C   UNL     1       6.153   7.428  17.297  0.00  0.00    +0.000 A 
ATOM      3  C   UNL     1       5.494   6.239  17.599  0.00  0.00    +0.000 A 
ATOM      4  C   UNL     1       6.101   5.267  18.383  0.00  0.00    +0.000 A 
ATOM      5  C   UNL     1       7.387   5.522  18.880  0.00  0.00    +0.000 A 
ATOM      6  C   UNL     1       8.051   6.728  18.579  0.00  0.00    +0.000 A 
ENDROOT
BRANCH   1   9
ATOM      7  C   UNL     1       8.763   9.686  18.447  0.00  0.00    +0.000 C 
ATOM      8  O   UNL     1       8.957   9.377  19.621  0.00  0.00    +0.000 OA
ATOM      9  N   UNL     1       8.098   8.919  17.500  0.00  0.00    +0.000 N 
ATOM     10  H   UNL     1       8.197   9.169  16.524  0.00  0.00    +0.000 HD
BRANCH   7  14
ATOM     11  C   UNL     1      10.625  13.397  17.419  0.00  0.00    +0.000 A 
ATOM     12  C   UNL     1      11.379  12.261  17.696  0.00  0.00    +0.000 A 
ATOM     13  C   UNL     1      10.747  11.056  17.984  0.00  0.00    +0.000 A 
ATOM     14  C   UNL     1       9.349  10.975  18.009  0.00  0.00    +0.000 A 
ATOM     15  C   UNL     1       8.585  12.116  17.750  0.00  0.00    +0.000 A 
ATOM     16  C   UNL     1       9.228  13.328  17.455  0.00  0.00    +0.000 A 
BRANCH  11  18
ATOM     17  C   UNL     1      12.333  14.835  18.189  0.00  0.00    +0.000 C 
ATOM     18  O   UNL     1      11.360  14.529  17.199  0.00  0.00    +0.000 OA
ENDBRANCH  11  18
ENDBRANCH   7  14
ENDBRANCH   1   9
BRANCH   4  19
ATOM     19  N   UNL     1       5.485   4.031  18.676  0.00  0.00    +0.000 N 
ATOM     20  C   UNL     1       4.740   3.251  17.800  0.00  0.00    +0.000 C 
ATOM     21  O   UNL     1       4.465   3.518  16.632  0.00  0.00    +0.000 OA
ATOM     22  H   UNL     1       5.726   3.614  19.574  0.00  0.00    +0.000 HD
BRANCH  20  23
ATOM     23  C   UNL     1       4.268   1.939  18.398  0.00  0.00    +0.000 C 
BRANCH  23  24
ATOM     24  S   UNL     1       2.519   2.050  18.860  0.00  0.00    +0.000 S 
BRANCH  24  25
ATOM     25  C   UNL     1       2.468   3.587  19.647  0.00  0.00    +0.000 A 
ATOM     26  N   UNL     1       2.850   3.847  20.872  0.00  0.00    +0.000 NA
ATOM     27  N   UNL     1       2.649   5.189  21.084  0.00  0.00    +0.000 NA
ATOM     28  C   UNL     1       2.124   5.728  19.993  0.00  0.00    +0.000 A 
ATOM     29  N   UNL     1       2.019   4.731  19.041  0.00  0.00    +0.000 N 
ATOM     30  C   UNL     1       1.582   4.827  17.670  0.00  0.00    +0.000 C 
BRANCH  28  31
ATOM     31  C   UNL     1       1.790   7.150  19.843  0.00  0.00    +0.000 A 
ATOM     32  C   UNL     1       1.158   7.820  20.897  0.00  0.00    +0.000 A 
ATOM     33  C   UNL     1       0.873   9.170  20.760  0.00  0.00    +0.000 A 
ATOM     34  N   UNL     1       1.173   9.890  19.659  0.00  0.00    +0.000 NA
ATOM     35  C   UNL     1       1.748   9.224  18.640  0.00  0.00    +0.000 A 
ATOM     36  C   UNL     1       2.050   7.871  18.675  0.00  0.00    +0.000 A 
ENDBRANCH  28  31
ENDBRANCH  24  25
ENDBRANCH  23  24
ENDBRANCH  20  23
ENDBRANCH   4  19
TORSDOF 8
ENDMDL
MODEL 2
REMARK VINA RESULT:      -8.0      5.477      9.579
REMARK  Name = 
REMARK  10 active torsions:
REMARK  status: ('A' for Active; 'I' for Inactive)
REMARK    1  A    between atoms: C_1  and  O_2
REMARK    2  A    between atoms: O_2  and  C_3
REMARK    3  A    between atoms: C_6  and  C_7
REMARK    4  A    between atoms: N_9  and  C_10
REMARK    5  A    between atoms: C_13  and  N_14
REMARK    6  A    between atoms: C_15  and  C_17
REMARK    7  A    between atoms: C_17  and  S_18
REMARK    8  A    between atoms: S_18  and  C_19
REMARK    9  A    between atoms: C_22  and  C_23
REMARK   10  A    between atoms: N_29  and  C_30
REMARK                            x       y       z     vdW  Elec       q    Type
REMARK                         _______ _______ _______ _____ _____    ______ ____
ROOT
ATOM      1  C   UNL     1       2.021   8.259  18.833  0.00  0.00    +0.000 A 
ATOM      2  C   UNL     1       1.818   7.982  20.185  0.00  0.00    +0.000 A 
ATOM      3  C   UNL     1       0.927   8.726  20.955  0.00  0.00    +0.000 A 
ATOM      4  C   UNL     1       0.230   9.794  20.406  0.00  0.00    +0.000 A 
ATOM      5  C   UNL     1       0.433  10.093  19.051  0.00  0.00    +0.000 A 
ATOM      6  C   UNL     1       1.330   9.336  18.271  0.00  0.00    +0.000 A 
ENDROOT
BRANCH   1   9
ATOM      7  C   UNL     1       2.949   6.106  18.027  0.00  0.00    +0.000 C 
ATOM      8  O   UNL     1       2.157   5.359  18.597  0.00  0.00    +0.000 OA
ATOM      9  N   UNL     1       2.918   7.494  18.040  0.00  0.00    +0.000 N 
ATOM     10  H   UNL     1       3.475   7.993  17.359  0.00  0.00    +0.000 HD
BRANCH   7  14
ATOM     11  C   UNL     1       5.872   4.353  15.442  0.00  0.00    +0.000 A 
ATOM     12  C   UNL     1       5.738   5.733  15.552  0.00  0.00    +0.000 A 
ATOM     13  C   UNL     1       4.810   6.277  16.434  0.00  0.00    +0.000 A 
ATOM     14  C   UNL     1       3.994   5.444  17.210  0.00  0.00    +0.000 A 
ATOM     15  C   UNL     1       4.109   4.056  17.091  0.00  0.00    +0.000 A 
ATOM     16  C   UNL     1       5.051   3.513  16.204  0.00  0.00    +0.000 A 
BRANCH  11  18
ATOM     17  C   UNL     1       6.268   3.718  13.202  0.00  0.00    +0.000 C 
ATOM     18  O   UNL     1       6.782   3.942  14.508  0.00  0.00    +0.000 OA
ENDBRANCH  11  18
ENDBRANCH   7  14
ENDBRANCH   1   9
BRANCH   4  19
ATOM     19  N   UNL     1      -0.647  10.600  21.163  0.00  0.00    +0.000 N 
ATOM     20  C   UNL     1      -0.351  11.828  21.740  0.00  0.00    +0.000 C 
ATOM     21  O   UNL     1       0.733  12.408  21.717  0.00  0.00    +0.000 OA
ATOM     22  H   UNL     1      -1.624  10.312  21.167  0.00  0.00    +0.000 HD
BRANCH  20  23
ATOM     23  C   UNL     1      -1.533  12.480  22.434  0.00  0.00    +0.000 C 
BRANCH  23  24
ATOM     24  S   UNL     1      -2.563  13.361  21.230  0.00  0.00    +0.000 S 
BRANCH  24  25
ATOM     25  C   UNL     1      -1.559  14.713  20.843  0.00  0.00    +0.000 A 
ATOM     26  N   UNL     1      -1.395  15.793  21.565  0.00  0.00    +0.000 NA
ATOM     27  N   UNL     1      -0.508  16.599  20.893  0.00  0.00    +0.000 NA
ATOM     28  C   UNL     1      -0.159  16.011  19.758  0.00  0.00    +0.000 A 
ATOM     29  N   UNL     1      -0.797  14.786  19.706  0.00  0.00    +0.000 N 
ATOM     30  C   UNL     1      -0.684  13.744  18.715  0.00  0.00    +0.000 C 
BRANCH  28  31
ATOM     31  C   UNL     1       0.789  16.571  18.786  0.00  0.00    +0.000 A 
ATOM     32  C   UNL     1       2.104  16.091  18.758  0.00  0.00    +0.000 A 
ATOM     33  C   UNL     1       2.985  16.603  17.818  0.00  0.00    +0.000 A 
ATOM     34  N   UNL     1       2.649  17.546  16.913  0.00  0.00    +0.000 NA
ATOM     35  C   UNL     1       1.392  18.023  16.976  0.00  0.00    +0.000 A 
ATOM     36  C   UNL     1       0.447  17.590  17.894  0.00  0.00    +0.000 A 
ENDBRANCH  28  31
ENDBRANCH  24  25
ENDBRANCH  23  24
ENDBRANCH  20  23
ENDBRANCH   4  19
TORSDOF 8
ENDMDL
MODEL 3
REMARK VINA RESULT:      -7.9      0.509      1.272
REMARK  Name = 
REMARK  10 active torsions:
REMARK  status: ('A' for Active; 'I' for Inactive)
REMARK    1  A    between atoms: C_1  and  O_2
REMARK    2  A    between atoms: O_2  and  C_3
REMARK    3  A    between atoms: C_6  and  C_7
REMARK    4  A    between atoms: N_9  and  C_10
REMARK    5  A    between atoms: C_13  and  N_14
REMARK    6  A    between atoms: C_15  and  C_17
REMARK    7  A    between atoms: C_17  and  S_18
REMARK    8  A    between atoms: S_18  and  C_19
REMARK    9  A    between atoms: C_22  and  C_23
REMARK   10  A    between atoms: N_29  and  C_30
REMARK                            x       y       z     vdW  Elec       q    Type
REMARK                         _______ _______ _______ _____ _____    ______ ____
ROOT
ATOM      1  C   UNL     1       7.580   7.689  17.834  0.00  0.00    +0.000 A 
ATOM      2  C   UNL     1       8.161   6.667  18.584  0.00  0.00    +0.000 A 
ATOM      3  C   UNL     1       7.508   5.454  18.791  0.00  0.00    +0.000 A 
ATOM      4  C   UNL     1       6.236   5.234  18.280  0.00  0.00    +0.000 A 
ATOM      5  C   UNL     1       5.634   6.257  17.533  0.00  0.00    +0.000 A 
ATOM      6  C   UNL     1       6.298   7.481  17.319  0.00  0.00    +0.000 A 
ENDROOT
BRANCH   1   9
ATOM      7  C   UNL     1       8.859   9.667  18.608  0.00  0.00    +0.000 C 
ATOM      8  O   UNL     1       9.000   9.326  19.780  0.00  0.00    +0.000 OA
ATOM      9  N   UNL     1       8.249   8.922  17.608  0.00  0.00    +0.000 N 
ATOM     10  H   UNL     1       8.393   9.201  16.646  0.00  0.00    +0.000 HD
BRANCH   7  14
ATOM     11  C   UNL     1      10.395  13.438  17.296  0.00  0.00    +0.000 A 
ATOM     12  C   UNL     1       9.027  13.215  17.413  0.00  0.00    +0.000 A 
ATOM     13  C   UNL     1       8.555  11.995  17.885  0.00  0.00    +0.000 A 
ATOM     14  C   UNL     1       9.450  10.975  18.236  0.00  0.00    +0.000 A 
ATOM     15  C   UNL     1      10.825  11.185  18.104  0.00  0.00    +0.000 A 
ATOM     16  C   UNL     1      11.295  12.421  17.633  0.00  0.00    +0.000 A 
BRANCH  11  18
ATOM     17  C   UNL     1      11.791  15.338  17.435  0.00  0.00    +0.000 C 
ATOM     18  O   UNL     1      10.731  14.657  16.777  0.00  0.00    +0.000 OA
ENDBRANCH  11  18
ENDBRANCH   7  14
ENDBRANCH   1   9
BRANCH   4  19
ATOM     19  N   UNL     1       5.522   4.037  18.505  0.00  0.00    +0.000 N 
ATOM     20  C   UNL     1       4.691   3.388  17.600  0.00  0.00    +0.000 C 
ATOM     21  O   UNL     1       4.411   3.761  16.463  0.00  0.00    +0.000 OA
ATOM     22  H   UNL     1       5.749   3.538  19.363  0.00  0.00    +0.000 HD
BRANCH  20  23
ATOM     23  C   UNL     1       4.121   2.081  18.120  0.00  0.00    +0.000 C 
BRANCH  23  24
ATOM     24  S   UNL     1       2.451   2.338  18.776  0.00  0.00    +0.000 S 
BRANCH  24  25
ATOM     25  C   UNL     1       2.560   3.958  19.366  0.00  0.00    +0.000 A 
ATOM     26  N   UNL     1       3.160   4.348  20.463  0.00  0.00    +0.000 NA
ATOM     27  N   UNL     1       3.014   5.712  20.543  0.00  0.00    +0.000 NA
ATOM     28  C   UNL     1       2.306   6.135  19.505  0.00  0.00    +0.000 A 
ATOM     29  N   UNL     1       2.020   5.036  18.716  0.00  0.00    +0.000 N 
ATOM     30  C   UNL     1       1.343   4.984  17.444  0.00  0.00    +0.000 C 
BRANCH  28  31
ATOM     31  C   UNL     1       1.964   7.539  19.246  0.00  0.00    +0.000 A 
ATOM     32  C   UNL     1       1.284   8.271  20.226  0.00  0.00    +0.000 A 
ATOM     33  C   UNL     1       0.992   9.605  19.985  0.00  0.00    +0.000 A 
ATOM     34  N   UNL     1       1.330  10.252  18.850  0.00  0.00    +0.000 NA
ATOM     35  C   UNL     1       1.951   9.526  17.903  0.00  0.00    +0.000 A 
ATOM     36  C   UNL     1       2.265   8.182  18.042  0.00  0.00    +0.000 A 
ENDBRANCH  28  31
ENDBRANCH  24  25
ENDBRANCH  23  24
ENDBRANCH  20  23
ENDBRANCH   4  19
TORSDOF 8
ENDMDL
MODEL 4
REMARK VINA RESULT:      -7.9      6.161     10.024
REMARK  Name = 
REMARK  10 active torsions:
REMARK  status: ('A' for Active; 'I' for Inactive)
REMARK    1  A    between atoms: C_1  and  O_2
REMARK    2  A    between atoms: O_2  and  C_3
REMARK    3  A    between atoms: C_6  and  C_7
REMARK    4  A    between atoms: N_9  and  C_10
REMARK    5  A    between atoms: C_13  and  N_14
REMARK    6  A    between atoms: C_15  and  C_17
REMARK    7  A    between atoms: C_17  and  S_18
REMARK    8  A    between atoms: S_18  and  C_19
REMARK    9  A    between atoms: C_22  and  C_23
REMARK   10  A    between atoms: N_29  and  C_30
REMARK                            x       y       z     vdW  Elec       q    Type
REMARK                         _______ _______ _______ _____ _____    ______ ____
ROOT
ATOM      1  C   UNL     1       0.857   8.558  21.259  0.00  0.00    +0.000 A 
ATOM      2  C   UNL     1       0.285   9.526  20.433  0.00  0.00    +0.000 A 
ATOM      3  C   UNL     1      -0.420  10.606  20.958  0.00  0.00    +0.000 A 
ATOM      4  C   UNL     1      -0.605  10.739  22.328  0.00  0.00    +0.000 A 
ATOM      5  C   UNL     1      -0.046   9.767  23.170  0.00  0.00    +0.000 A 
ATOM      6  C   UNL     1       0.673   8.678  22.639  0.00  0.00    +0.000 A 
ENDROOT
BRANCH   1   9
ATOM      7  C   UNL     1       2.139   7.443  19.453  0.00  0.00    +0.000 C 
ATOM      8  O   UNL     1       2.166   8.383  18.662  0.00  0.00    +0.000 OA
ATOM      9  N   UNL     1       1.590   7.463  20.728  0.00  0.00    +0.000 N 
ATOM     10  H   UNL     1       1.826   6.712  21.364  0.00  0.00    +0.000 HD
BRANCH   7  14
ATOM     11  C   UNL     1       3.820   3.713  18.203  0.00  0.00    +0.000 A 
ATOM     12  C   UNL     1       2.653   4.209  17.632  0.00  0.00    +0.000 A 
ATOM     13  C   UNL     1       2.152   5.445  18.025  0.00  0.00    +0.000 A 
ATOM     14  C   UNL     1       2.810   6.199  19.007  0.00  0.00    +0.000 A 
ATOM     15  C   UNL     1       3.973   5.699  19.599  0.00  0.00    +0.000 A 
ATOM     16  C   UNL     1       4.476   4.453  19.194  0.00  0.00    +0.000 A 
BRANCH  11  18
ATOM     17  C   UNL     1       3.553   1.377  18.427  0.00  0.00    +0.000 C 
ATOM     18  O   UNL     1       4.184   2.468  17.769  0.00  0.00    +0.000 OA
ENDBRANCH  11  18
ENDBRANCH   7  14
ENDBRANCH   1   9
BRANCH   4  19
ATOM     19  N   UNL     1      -1.351  11.794  22.896  0.00  0.00    +0.000 N 
ATOM     20  C   UNL     1      -0.954  13.120  23.007  0.00  0.00    +0.000 C 
ATOM     21  O   UNL     1       0.125  13.595  22.656  0.00  0.00    +0.000 OA
ATOM     22  H   UNL     1      -2.321  11.582  23.122  0.00  0.00    +0.000 HD
BRANCH  20  23
ATOM     23  C   UNL     1      -2.012  14.029  23.606  0.00  0.00    +0.000 C 
BRANCH  23  24
ATOM     24  S   UNL     1      -2.790  15.030  22.311  0.00  0.00    +0.000 S 
BRANCH  24  25
ATOM     25  C   UNL     1      -3.442  13.809  21.277  0.00  0.00    +0.000 A 
ATOM     26  N   UNL     1      -4.586  13.190  21.431  0.00  0.00    +0.000 NA
ATOM     27  N   UNL     1      -4.715  12.310  20.383  0.00  0.00    +0.000 NA
ATOM     28  C   UNL     1      -3.637  12.387  19.615  0.00  0.00    +0.000 A 
ATOM     29  N   UNL     1      -2.810  13.359  20.148  0.00  0.00    +0.000 N 
ATOM     30  C   UNL     1      -1.561  13.868  19.638  0.00  0.00    +0.000 C 
BRANCH  28  31
ATOM     31  C   UNL     1      -3.429  11.606  18.389  0.00  0.00    +0.000 A 
ATOM     32  C   UNL     1      -4.347  11.720  17.340  0.00  0.00    +0.000 A 
ATOM     33  C   UNL     1      -4.127  11.002  16.174  0.00  0.00    +0.000 A 
ATOM     34  N   UNL     1      -3.066  10.190  15.984  0.00  0.00    +0.000 NA
ATOM     35  C   UNL     1      -2.211  10.064  17.016  0.00  0.00    +0.000 A 
ATOM     36  C   UNL     1      -2.359  10.722  18.227  0.00  0.00    +0.000 A 
ENDBRANCH  28  31
ENDBRANCH  24  25
ENDBRANCH  23  24
ENDBRANCH  20  23
ENDBRANCH   4  19
TORSDOF 8
ENDMDL
MODEL 5
REMARK VINA RESULT:      -7.9      6.248     10.094
REMARK  Name = 
REMARK  10 active torsions:
REMARK  status: ('A' for Active; 'I' for Inactive)
REMARK    1  A    between atoms: C_1  and  O_2
REMARK    2  A    between atoms: O_2  and  C_3
REMARK    3  A    between atoms: C_6  and  C_7
REMARK    4  A    between atoms: N_9  and  C_10
REMARK    5  A    between atoms: C_13  and  N_14
REMARK    6  A    between atoms: C_15  and  C_17
REMARK    7  A    between atoms: C_17  and  S_18
REMARK    8  A    between atoms: S_18  and  C_19
REMARK    9  A    between atoms: C_22  and  C_23
REMARK   10  A    between atoms: N_29  and  C_30
REMARK                            x       y       z     vdW  Elec       q    Type
REMARK                         _______ _______ _______ _____ _____    ______ ____
ROOT
ATOM      1  C   UNL     1       0.849   8.951  21.585  0.00  0.00    +0.000 A 
ATOM      2  C   UNL     1       0.110   8.963  22.768  0.00  0.00    +0.000 A 
ATOM      3  C   UNL     1      -0.575  10.102  23.186  0.00  0.00    +0.000 A 
ATOM      4  C   UNL     1      -0.518  11.278  22.451  0.00  0.00    +0.000 A 
ATOM      5  C   UNL     1       0.231  11.284  21.265  0.00  0.00    +0.000 A 
ATOM      6  C   UNL     1       0.918  10.130  20.840  0.00  0.00    +0.000 A 
ENDROOT
BRANCH   1   9
ATOM      7  C   UNL     1       1.975   7.590  19.845  0.00  0.00    +0.000 C 
ATOM      8  O   UNL     1       1.931   8.414  18.935  0.00  0.00    +0.000 OA
ATOM      9  N   UNL     1       1.538   7.787  21.148  0.00  0.00    +0.000 N 
ATOM     10  H   UNL     1       1.830   7.128  21.858  0.00  0.00    +0.000 HD
BRANCH   7  14
ATOM     11  C   UNL     1       3.674   3.855  18.634  0.00  0.00    +0.000 A 
ATOM     12  C   UNL     1       3.797   4.996  17.847  0.00  0.00    +0.000 A 
ATOM     13  C   UNL     1       3.274   6.207  18.285  0.00  0.00    +0.000 A 
ATOM     14  C   UNL     1       2.609   6.291  19.516  0.00  0.00    +0.000 A 
ATOM     15  C   UNL     1       2.466   5.146  20.304  0.00  0.00    +0.000 A 
ATOM     16  C   UNL     1       3.000   3.927  19.859  0.00  0.00    +0.000 A 
BRANCH  11  18
ATOM     17  C   UNL     1       3.587   1.499  18.495  0.00  0.00    +0.000 C 
ATOM     18  O   UNL     1       4.186   2.718  18.074  0.00  0.00    +0.000 OA
ENDBRANCH  11  18
ENDBRANCH   7  14
ENDBRANCH   1   9
BRANCH   4  19
ATOM     19  N   UNL     1      -1.161  12.465  22.863  0.00  0.00    +0.000 N 
ATOM     20  C   UNL     1      -2.415  12.564  23.452  0.00  0.00    +0.000 C 
ATOM     21  O   UNL     1      -3.190  11.640  23.687  0.00  0.00    +0.000 OA
ATOM     22  H   UNL     1      -0.590  13.309  22.847  0.00  0.00    +0.000 HD
BRANCH  20  23
ATOM     23  C   UNL     1      -2.798  13.980  23.844  0.00  0.00    +0.000 C 
BRANCH  23  24
ATOM     24  S   UNL     1      -3.664  14.799  22.479  0.00  0.00    +0.000 S 
BRANCH  24  25
ATOM     25  C   UNL     1      -2.915  14.064  21.106  0.00  0.00    +0.000 A 
ATOM     26  N   UNL     1      -1.739  14.360  20.611  0.00  0.00    +0.000 NA
ATOM     27  N   UNL     1      -1.533  13.531  19.534  0.00  0.00    +0.000 NA
ATOM     28  C   UNL     1      -2.595  12.755  19.373  0.00  0.00    +0.000 A 
ATOM     29  N   UNL     1      -3.492  13.055  20.382  0.00  0.00    +0.000 N 
ATOM     30  C   UNL     1      -4.758  12.435  20.685  0.00  0.00    +0.000 C 
BRANCH  28  31
ATOM     31  C   UNL     1      -2.727  11.729  18.331  0.00  0.00    +0.000 A 
ATOM     32  C   UNL     1      -3.862  11.725  17.513  0.00  0.00    +0.000 A 
ATOM     33  C   UNL     1      -3.965  10.771  16.512  0.00  0.00    +0.000 A 
ATOM     34  N   UNL     1      -3.024   9.834  16.272  0.00  0.00    +0.000 NA
ATOM     35  C   UNL     1      -1.955   9.828  17.090  0.00  0.00    +0.000 A 
ATOM     36  C   UNL     1      -1.775  10.726  18.131  0.00  0.00    +0.000 A 
ENDBRANCH  28  31
ENDBRANCH  24  25
ENDBRANCH  23  24
ENDBRANCH  20  23
ENDBRANCH   4  19
TORSDOF 8
ENDMDL
MODEL 6
REMARK VINA RESULT:      -7.9      3.898      6.916
REMARK  Name = 
REMARK  10 active torsions:
REMARK  status: ('A' for Active; 'I' for Inactive)
REMARK    1  A    between atoms: C_1  and  O_2
REMARK    2  A    between atoms: O_2  and  C_3
REMARK    3  A    between atoms: C_6  and  C_7
REMARK    4  A    between atoms: N_9  and  C_10
REMARK    5  A    between atoms: C_13  and  N_14
REMARK    6  A    between atoms: C_15  and  C_17
REMARK    7  A    between atoms: C_17  and  S_18
REMARK    8  A    between atoms: S_18  and  C_19
REMARK    9  A    between atoms: C_22  and  C_23
REMARK   10  A    between atoms: N_29  and  C_30
REMARK                            x       y       z     vdW  Elec       q    Type
REMARK                         _______ _______ _______ _____ _____    ______ ____
ROOT
ATOM      1  C   UNL     1       1.693   8.444  19.779  0.00  0.00    +0.000 A 
ATOM      2  C   UNL     1       2.274   7.801  18.687  0.00  0.00    +0.000 A 
ATOM      3  C   UNL     1       2.379   6.413  18.631  0.00  0.00    +0.000 A 
ATOM      4  C   UNL     1       1.934   5.621  19.681  0.00  0.00    +0.000 A 
ATOM      5  C   UNL     1       1.358   6.255  20.792  0.00  0.00    +0.000 A 
ATOM      6  C   UNL     1       1.246   7.659  20.845  0.00  0.00    +0.000 A 
ENDROOT
BRANCH   1   9
ATOM      7  C   UNL     1       0.483  10.562  19.333  0.00  0.00    +0.000 C 
ATOM      8  O   UNL     1      -0.550  10.073  18.883  0.00  0.00    +0.000 OA
ATOM      9  N   UNL     1       1.570   9.859  19.833  0.00  0.00    +0.000 N 
ATOM     10  H   UNL     1       2.258  10.362  20.379  0.00  0.00    +0.000 HD
BRANCH   7  14
ATOM     11  C   UNL     1       0.339  14.837  19.411  0.00  0.00    +0.000 A 
ATOM     12  C   UNL     1      -0.601  14.068  20.090  0.00  0.00    +0.000 A 
ATOM     13  C   UNL     1      -0.505  12.681  20.085  0.00  0.00    +0.000 A 
ATOM     14  C   UNL     1       0.530  12.043  19.388  0.00  0.00    +0.000 A 
ATOM     15  C   UNL     1       1.467  12.807  18.689  0.00  0.00    +0.000 A 
ATOM     16  C   UNL     1       1.368  14.207  18.702  0.00  0.00    +0.000 A 
BRANCH  11  18
ATOM     17  C   UNL     1      -0.408  16.757  18.256  0.00  0.00    +0.000 C 
ATOM     18  O   UNL     1       0.109  16.184  19.450  0.00  0.00    +0.000 OA
ENDBRANCH  11  18
ENDBRANCH   7  14
ENDBRANCH   1   9
BRANCH   4  19
ATOM     19  N   UNL     1       2.063   4.216  19.683  0.00  0.00    +0.000 N 
ATOM     20  C   UNL     1       1.562   3.339  18.729  0.00  0.00    +0.000 C 
ATOM     21  O   UNL     1       0.896   3.635  17.739  0.00  0.00    +0.000 OA
ATOM     22  H   UNL     1       2.698   3.828  20.379  0.00  0.00    +0.000 HD
BRANCH  20  23
ATOM     23  C   UNL     1       1.928   1.888  18.979  0.00  0.00    +0.000 C 
BRANCH  23  24
ATOM     24  S   UNL     1       3.509   1.491  18.186  0.00  0.00    +0.000 S 
BRANCH  24  25
ATOM     25  C   UNL     1       4.496   2.809  18.710  0.00  0.00    +0.000 A 
ATOM     26  N   UNL     1       4.941   3.012  19.925  0.00  0.00    +0.000 NA
ATOM     27  N   UNL     1       5.691   4.163  19.896  0.00  0.00    +0.000 NA
ATOM     28  C   UNL     1       5.675   4.661  18.667  0.00  0.00    +0.000 A 
ATOM     29  N   UNL     1       4.937   3.801  17.875  0.00  0.00    +0.000 N 
ATOM     30  C   UNL     1       4.692   3.861  16.455  0.00  0.00    +0.000 C 
BRANCH  28  31
ATOM     31  C   UNL     1       6.384   5.878  18.252  0.00  0.00    +0.000 A 
ATOM     32  C   UNL     1       7.616   6.188  18.839  0.00  0.00    +0.000 A 
ATOM     33  C   UNL     1       8.292   7.324  18.421  0.00  0.00    +0.000 A 
ATOM     34  N   UNL     1       7.833   8.159  17.466  0.00  0.00    +0.000 NA
ATOM     35  C   UNL     1       6.630   7.867  16.936  0.00  0.00    +0.000 A 
ATOM     36  C   UNL     1       5.869   6.769  17.306  0.00  0.00    +0.000 A 
ENDBRANCH  28  31
ENDBRANCH  24  25
ENDBRANCH  23  24
ENDBRANCH  20  23
ENDBRANCH   4  19
TORSDOF 8
ENDMDL
MODEL 7
REMARK VINA RESULT:      -7.8      4.846      7.135
REMARK  Name = 
REMARK  10 active torsions:
REMARK  status: ('A' for Active; 'I' for Inactive)
REMARK    1  A    between atoms: C_1  and  O_2
REMARK    2  A    between atoms: O_2  and  C_3
REMARK    3  A    between atoms: C_6  and  C_7
REMARK    4  A    between atoms: N_9  and  C_10
REMARK    5  A    between atoms: C_13  and  N_14
REMARK    6  A    between atoms: C_15  and  C_17
REMARK    7  A    between atoms: C_17  and  S_18
REMARK    8  A    between atoms: S_18  and  C_19
REMARK    9  A    between atoms: C_22  and  C_23
REMARK   10  A    between atoms: N_29  and  C_30
REMARK                            x       y       z     vdW  Elec       q    Type
REMARK                         _______ _______ _______ _____ _____    ______ ____
ROOT
ATOM      1  C   UNL     1       1.308   9.511  19.836  0.00  0.00    +0.000 A 
ATOM      2  C   UNL     1       0.797   9.091  21.064  0.00  0.00    +0.000 A 
ATOM      3  C   UNL     1       1.017   7.800  21.540  0.00  0.00    +0.000 A 
ATOM      4  C   UNL     1       1.730   6.875  20.790  0.00  0.00    +0.000 A 
ATOM      5  C   UNL     1       2.240   7.280  19.548  0.00  0.00    +0.000 A 
ATOM      6  C   UNL     1       2.023   8.587  19.069  0.00  0.00    +0.000 A 
ENDROOT
BRANCH   1   9
ATOM      7  C   UNL     1       1.256  11.973  20.126  0.00  0.00    +0.000 C 
ATOM      8  O   UNL     1       1.692  12.015  21.274  0.00  0.00    +0.000 OA
ATOM      9  N   UNL     1       1.099  10.831  19.353  0.00  0.00    +0.000 N 
ATOM     10  H   UNL     1       0.949  10.941  18.358  0.00  0.00    +0.000 HD
BRANCH   7  14
ATOM     11  C   UNL     1       0.504  15.864  18.515  0.00  0.00    +0.000 A 
ATOM     12  C   UNL     1       1.789  15.335  18.559  0.00  0.00    +0.000 A 
ATOM     13  C   UNL     1       2.000  14.050  19.047  0.00  0.00    +0.000 A 
ATOM     14  C   UNL     1       0.925  13.279  19.508  0.00  0.00    +0.000 A 
ATOM     15  C   UNL     1      -0.368  13.811  19.484  0.00  0.00    +0.000 A 
ATOM     16  C   UNL     1      -0.575  15.106  18.986  0.00  0.00    +0.000 A 
BRANCH  11  18
ATOM     17  C   UNL     1      -0.878  17.684  17.920  0.00  0.00    +0.000 C 
ATOM     18  O   UNL     1       0.432  17.152  18.061  0.00  0.00    +0.000 OA
ENDBRANCH  11  18
ENDBRANCH   7  14
ENDBRANCH   1   9
BRANCH   4  19
ATOM     19  N   UNL     1       1.936   5.546  21.217  0.00  0.00    +0.000 N 
ATOM     20  C   UNL     1       1.264   4.418  20.763  0.00  0.00    +0.000 C 
ATOM     21  O   UNL     1       0.355   4.389  19.936  0.00  0.00    +0.000 OA
ATOM     22  H   UNL     1       2.747   5.391  21.814  0.00  0.00    +0.000 HD
BRANCH  20  23
ATOM     23  C   UNL     1       1.765   3.120  21.369  0.00  0.00    +0.000 C 
BRANCH  23  24
ATOM     24  S   UNL     1       2.229   1.952  20.063  0.00  0.00    +0.000 S 
BRANCH  24  25
ATOM     25  C   UNL     1       3.585   2.753  19.351  0.00  0.00    +0.000 A 
ATOM     26  N   UNL     1       4.761   2.928  19.900  0.00  0.00    +0.000 NA
ATOM     27  N   UNL     1       5.538   3.599  18.988  0.00  0.00    +0.000 NA
ATOM     28  C   UNL     1       4.820   3.846  17.901  0.00  0.00    +0.000 A 
ATOM     29  N   UNL     1       3.567   3.293  18.093  0.00  0.00    +0.000 N 
ATOM     30  C   UNL     1       2.455   3.226  17.177  0.00  0.00    +0.000 C 
BRANCH  28  31
ATOM     31  C   UNL     1       5.325   4.532  16.705  0.00  0.00    +0.000 A 
ATOM     32  C   UNL     1       6.185   3.851  15.837  0.00  0.00    +0.000 A 
ATOM     33  C   UNL     1       6.634   4.496  14.694  0.00  0.00    +0.000 A 
ATOM     34  N   UNL     1       6.285   5.756  14.360  0.00  0.00    +0.000 NA
ATOM     35  C   UNL     1       5.486   6.410  15.224  0.00  0.00    +0.000 A 
ATOM     36  C   UNL     1       5.006   5.858  16.401  0.00  0.00    +0.000 A 
ENDBRANCH  28  31
ENDBRANCH  24  25
ENDBRANCH  23  24
ENDBRANCH  20  23
ENDBRANCH   4  19
TORSDOF 8
ENDMDL
MODEL 8
REMARK VINA RESULT:      -7.7      5.191      9.130
REMARK  Name = 
REMARK  10 active torsions:
REMARK  status: ('A' for Active; 'I' for Inactive)
REMARK    1  A    between atoms: C_1  and  O_2
REMARK    2  A    between atoms: O_2  and  C_3
REMARK    3  A    between atoms: C_6  and  C_7
REMARK    4  A    between atoms: N_9  and  C_10
REMARK    5  A    between atoms: C_13  and  N_14
REMARK    6  A    between atoms: C_15  and  C_17
REMARK    7  A    between atoms: C_17  and  S_18
REMARK    8  A    between atoms: S_18  and  C_19
REMARK    9  A    between atoms: C_22  and  C_23
REMARK   10  A    between atoms: N_29  and  C_30
REMARK                            x       y       z     vdW  Elec       q    Type
REMARK                         _______ _______ _______ _____ _____    ______ ____
ROOT
ATOM      1  C   UNL     1       1.999   8.207  19.027  0.00  0.00    +0.000 A 
ATOM      2  C   UNL     1       1.769   7.839  20.352  0.00  0.00    +0.000 A 
ATOM      3  C   UNL     1       0.861   8.530  21.152  0.00  0.00    +0.000 A 
ATOM      4  C   UNL     1       0.177   9.634  20.663  0.00  0.00    +0.000 A 
ATOM      5  C   UNL     1       0.407  10.023  19.336  0.00  0.00    +0.000 A 
ATOM      6  C   UNL     1       1.320   9.320  18.525  0.00  0.00    +0.000 A 
ENDROOT
BRANCH   1   9
ATOM      7  C   UNL     1       3.588   6.351  18.603  0.00  0.00    +0.000 C 
ATOM      8  O   UNL     1       3.416   5.741  19.656  0.00  0.00    +0.000 OA
ATOM      9  N   UNL     1       2.913   7.496  18.203  0.00  0.00    +0.000 N 
ATOM     10  H   UNL     1       2.974   7.774  17.232  0.00  0.00    +0.000 HD
BRANCH   7  14
ATOM     11  C   UNL     1       6.460   4.916  15.777  0.00  0.00    +0.000 A 
ATOM     12  C   UNL     1       6.733   6.006  16.596  0.00  0.00    +0.000 A 
ATOM     13  C   UNL     1       5.799   6.425  17.537  0.00  0.00    +0.000 A 
ATOM     14  C   UNL     1       4.571   5.762  17.664  0.00  0.00    +0.000 A 
ATOM     15  C   UNL     1       4.282   4.676  16.832  0.00  0.00    +0.000 A 
ATOM     16  C   UNL     1       5.231   4.255  15.887  0.00  0.00    +0.000 A 
BRANCH  11  18
ATOM     17  C   UNL     1       6.980   4.334  13.548  0.00  0.00    +0.000 C 
ATOM     18  O   UNL     1       7.435   4.633  14.861  0.00  0.00    +0.000 OA
ENDBRANCH  11  18
ENDBRANCH   7  14
ENDBRANCH   1   9
BRANCH   4  19
ATOM     19  N   UNL     1      -0.717  10.388  21.454  0.00  0.00    +0.000 N 
ATOM     20  C   UNL     1      -0.463  11.621  22.040  0.00  0.00    +0.000 C 
ATOM     21  O   UNL     1       0.591  12.252  21.995  0.00  0.00    +0.000 OA
ATOM     22  H   UNL     1      -1.679  10.053  21.481  0.00  0.00    +0.000 HD
BRANCH  20  23
ATOM     23  C   UNL     1      -1.655  12.208  22.775  0.00  0.00    +0.000 C 
BRANCH  23  24
ATOM     24  S   UNL     1      -2.882  12.827  21.593  0.00  0.00    +0.000 S 
BRANCH  24  25
ATOM     25  C   UNL     1      -1.868  13.419  20.324  0.00  0.00    +0.000 A 
ATOM     26  N   UNL     1      -1.551  12.786  19.223  0.00  0.00    +0.000 NA
ATOM     27  N   UNL     1      -0.740  13.622  18.494  0.00  0.00    +0.000 NA
ATOM     28  C   UNL     1      -0.553  14.746  19.171  0.00  0.00    +0.000 A 
ATOM     29  N   UNL     1      -1.285  14.658  20.341  0.00  0.00    +0.000 N 
ATOM     30  C   UNL     1      -1.471  15.650  21.371  0.00  0.00    +0.000 C 
BRANCH  28  31
ATOM     31  C   UNL     1       0.246  15.883  18.695  0.00  0.00    +0.000 A 
ATOM     32  C   UNL     1       1.637  15.851  18.842  0.00  0.00    +0.000 A 
ATOM     33  C   UNL     1       2.387  16.915  18.363  0.00  0.00    +0.000 A 
ATOM     34  N   UNL     1       1.852  17.992  17.753  0.00  0.00    +0.000 NA
ATOM     35  C   UNL     1       0.510  18.025  17.651  0.00  0.00    +0.000 A 
ATOM     36  C   UNL     1      -0.324  17.021  18.120  0.00  0.00    +0.000 A 
ENDBRANCH  28  31
ENDBRANCH  24  25
ENDBRANCH  23  24
ENDBRANCH  20  23
ENDBRANCH   4  19
TORSDOF 8
ENDMDL
MODEL 9
REMARK VINA RESULT:      -7.6      4.678      7.881
REMARK  Name = 
REMARK  10 active torsions:
REMARK  status: ('A' for Active; 'I' for Inactive)
REMARK    1  A    between atoms: C_1  and  O_2
REMARK    2  A    between atoms: O_2  and  C_3
REMARK    3  A    between atoms: C_6  and  C_7
REMARK    4  A    between atoms: N_9  and  C_10
REMARK    5  A    between atoms: C_13  and  N_14
REMARK    6  A    between atoms: C_15  and  C_17
REMARK    7  A    between atoms: C_17  and  S_18
REMARK    8  A    between atoms: S_18  and  C_19
REMARK    9  A    between atoms: C_22  and  C_23
REMARK   10  A    between atoms: N_29  and  C_30
REMARK                            x       y       z     vdW  Elec       q    Type
REMARK                         _______ _______ _______ _____ _____    ______ ____
ROOT
ATOM      1  C   UNL     1       0.688  10.176  20.135  0.00  0.00    +0.000 A 
ATOM      2  C   UNL     1       1.322   9.399  19.165  0.00  0.00    +0.000 A 
ATOM      3  C   UNL     1       1.761   8.106  19.442  0.00  0.00    +0.000 A 
ATOM      4  C   UNL     1       1.611   7.558  20.708  0.00  0.00    +0.000 A 
ATOM      5  C   UNL     1       0.986   8.332  21.696  0.00  0.00    +0.000 A 
ATOM      6  C   UNL     1       0.536   9.637  21.415  0.00  0.00    +0.000 A 
ENDROOT
BRANCH   1   9
ATOM      7  C   UNL     1       0.770  12.639  20.410  0.00  0.00    +0.000 C 
ATOM      8  O   UNL     1       1.772  12.695  21.119  0.00  0.00    +0.000 OA
ATOM      9  N   UNL     1       0.225  11.490  19.853  0.00  0.00    +0.000 N 
ATOM     10  H   UNL     1      -0.455  11.591  19.112  0.00  0.00    +0.000 HD
BRANCH   7  14
ATOM     11  C   UNL     1      -0.812  16.479  19.383  0.00  0.00    +0.000 A 
ATOM     12  C   UNL     1      -0.064  15.738  18.474  0.00  0.00    +0.000 A 
ATOM     13  C   UNL     1       0.401  14.473  18.818  0.00  0.00    +0.000 A 
ATOM     14  C   UNL     1       0.131  13.937  20.084  0.00  0.00    +0.000 A 
ATOM     15  C   UNL     1      -0.604  14.683  21.009  0.00  0.00    +0.000 A 
ATOM     16  C   UNL     1      -1.075  15.957  20.654  0.00  0.00    +0.000 A 
BRANCH  11  18
ATOM     17  C   UNL     1      -2.563  18.002  18.947  0.00  0.00    +0.000 C 
ATOM     18  O   UNL     1      -1.169  17.724  18.945  0.00  0.00    +0.000 OA
ENDBRANCH  11  18
ENDBRANCH   7  14
ENDBRANCH   1   9
BRANCH   4  19
ATOM     19  N   UNL     1       2.082   6.269  21.040  0.00  0.00    +0.000 N 
ATOM     20  C   UNL     1       1.433   5.065  20.801  0.00  0.00    +0.000 C 
ATOM     21  O   UNL     1       0.325   4.918  20.288  0.00  0.00    +0.000 OA
ATOM     22  H   UNL     1       3.047   6.218  21.362  0.00  0.00    +0.000 HD
BRANCH  20  23
ATOM     23  C   UNL     1       2.234   3.844  21.215  0.00  0.00    +0.000 C 
BRANCH  23  24
ATOM     24  S   UNL     1       1.913   2.466  20.083  0.00  0.00    +0.000 S 
BRANCH  24  25
ATOM     25  C   UNL     1       2.505   3.103  18.590  0.00  0.00    +0.000 A 
ATOM     26  N   UNL     1       1.798   3.350  17.516  0.00  0.00    +0.000 NA
ATOM     27  N   UNL     1       2.659   3.856  16.571  0.00  0.00    +0.000 NA
ATOM     28  C   UNL     1       3.885   3.889  17.074  0.00  0.00    +0.000 A 
ATOM     29  N   UNL     1       3.816   3.435  18.378  0.00  0.00    +0.000 N 
ATOM     30  C   UNL     1       4.863   3.354  19.367  0.00  0.00    +0.000 C 
BRANCH  28  31
ATOM     31  C   UNL     1       5.067   4.387  16.358  0.00  0.00    +0.000 A 
ATOM     32  C   UNL     1       5.716   5.536  16.823  0.00  0.00    +0.000 A 
ATOM     33  C   UNL     1       6.848   5.982  16.159  0.00  0.00    +0.000 A 
ATOM     34  N   UNL     1       7.373   5.368  15.079  0.00  0.00    +0.000 NA
ATOM     35  C   UNL     1       6.717   4.284  14.622  0.00  0.00    +0.000 A 
ATOM     36  C   UNL     1       5.566   3.777  15.204  0.00  0.00    +0.000 A 
ENDBRANCH  28  31
ENDBRANCH  24  25
ENDBRANCH  23  24
ENDBRANCH  20  23
ENDBRANCH   4  19
TORSDOF 8
ENDMDL
