MODEL 1
REMARK VINA RESULT:      -7.4      0.000      0.000
REMARK  Name = 
REMARK  1 active torsions:
REMARK  status: ('A' for Active; 'I' for Inactive)
REMARK    1  A    between atoms: C_13  and  O_14
REMARK                            x       y       z     vdW  Elec       q    Type
REMARK                         _______ _______ _______ _____ _____    ______ ____
ROOT
ATOM      1  O   UNL     1       3.746   6.429  19.487  0.00  0.00    +0.000 OA
ATOM      2  C   UNL     1       3.772   5.432  18.775  0.00  0.00    +0.000 A 
ATOM      3  C   UNL     1       2.738   4.378  18.914  0.00  0.00    +0.000 A 
ATOM      4  C   UNL     1       1.720   4.519  19.863  0.00  0.00    +0.000 A 
ATOM      5  C   UNL     1       0.753   3.525  19.986  0.00  0.00    +0.000 A 
ATOM      6  C   UNL     1       0.805   2.398  19.165  0.00  0.00    +0.000 A 
ATOM      7  C   UNL     1       1.824   2.260  18.217  0.00  0.00    +0.000 A 
ATOM      8  C   UNL     1       2.802   3.250  18.080  0.00  0.00    +0.000 A 
ATOM      9  N   UNL     1       3.833   3.127  17.138  0.00  0.00    +0.000 N 
ATOM     10  C   UNL     1       4.829   4.096  16.963  0.00  0.00    +0.000 A 
ATOM     11  C   UNL     1       5.836   3.932  16.005  0.00  0.00    +0.000 A 
ATOM     12  C   UNL     1       6.826   4.908  15.845  0.00  0.00    +0.000 A 
ATOM     13  C   UNL     1       6.810   6.048  16.645  0.00  0.00    +0.000 A 
ATOM     14  C   UNL     1       5.822   6.232  17.602  0.00  0.00    +0.000 A 
ATOM     15  C   UNL     1       4.835   5.255  17.758  0.00  0.00    +0.000 A 
ATOM     16  H   UNL     1       3.845   2.308  16.547  0.00  0.00    +0.000 HD
ENDROOT
BRANCH  13  17
ATOM     17  O   UNL     1       7.757   7.020  16.519  0.00  0.00    +0.000 OA
ATOM     18  H   UNL     1       8.380   6.954  17.260  0.00  0.00    +0.000 HD
ENDBRANCH  13  17
TORSDOF 1
ENDMDL
MODEL 2
REMARK VINA RESULT:      -7.4      1.530      1.631
REMARK  Name = 
REMARK  1 active torsions:
REMARK  status: ('A' for Active; 'I' for Inactive)
REMARK    1  A    between atoms: C_13  and  O_14
REMARK                            x       y       z     vdW  Elec       q    Type
REMARK                         _______ _______ _______ _____ _____    ______ ____
ROOT
ATOM      1  O   UNL     1       2.792   6.494  17.515  0.00  0.00    +0.000 OA
ATOM      2  C   UNL     1       3.513   5.570  17.874  0.00  0.00    +0.000 A 
ATOM      3  C   UNL     1       2.926   4.277  18.300  0.00  0.00    +0.000 A 
ATOM      4  C   UNL     1       1.538   4.104  18.293  0.00  0.00    +0.000 A 
ATOM      5  C   UNL     1       0.995   2.886  18.695  0.00  0.00    +0.000 A 
ATOM      6  C   UNL     1       1.836   1.849  19.101  0.00  0.00    +0.000 A 
ATOM      7  C   UNL     1       3.224   2.026  19.108  0.00  0.00    +0.000 A 
ATOM      8  C   UNL     1       3.784   3.242  18.706  0.00  0.00    +0.000 A 
ATOM      9  N   UNL     1       5.172   3.439  18.709  0.00  0.00    +0.000 N 
ATOM     10  C   UNL     1       5.777   4.638  18.310  0.00  0.00    +0.000 A 
ATOM     11  C   UNL     1       7.168   4.786  18.325  0.00  0.00    +0.000 A 
ATOM     12  C   UNL     1       7.756   5.991  17.926  0.00  0.00    +0.000 A 
ATOM     13  C   UNL     1       6.951   7.050  17.513  0.00  0.00    +0.000 A 
ATOM     14  C   UNL     1       5.570   6.927  17.491  0.00  0.00    +0.000 A 
ATOM     15  C   UNL     1       4.987   5.722  17.890  0.00  0.00    +0.000 A 
ATOM     16  H   UNL     1       5.763   2.671  18.996  0.00  0.00    +0.000 HD
ENDROOT
BRANCH  13  17
ATOM     17  O   UNL     1       7.487   8.240  17.118  0.00  0.00    +0.000 OA
ATOM     18  H   UNL     1       8.139   8.077  16.418  0.00  0.00    +0.000 HD
ENDBRANCH  13  17
TORSDOF 1
ENDMDL
MODEL 3
REMARK VINA RESULT:      -7.3      1.715      2.400
REMARK  Name = 
REMARK  1 active torsions:
REMARK  status: ('A' for Active; 'I' for Inactive)
REMARK    1  A    between atoms: C_13  and  O_14
REMARK                            x       y       z     vdW  Elec       q    Type
REMARK                         _______ _______ _______ _____ _____    ______ ____
ROOT
ATOM      1  O   UNL     1       3.158   3.282  16.294  0.00  0.00    +0.000 OA
ATOM      2  C   UNL     1       3.553   3.904  17.274  0.00  0.00    +0.000 A 
ATOM      3  C   UNL     1       2.759   3.921  18.526  0.00  0.00    +0.000 A 
ATOM      4  C   UNL     1       1.550   3.221  18.596  0.00  0.00    +0.000 A 
ATOM      5  C   UNL     1       0.812   3.242  19.777  0.00  0.00    +0.000 A 
ATOM      6  C   UNL     1       1.281   3.958  20.879  0.00  0.00    +0.000 A 
ATOM      7  C   UNL     1       2.490   4.658  20.805  0.00  0.00    +0.000 A 
ATOM      8  C   UNL     1       3.244   4.646  19.627  0.00  0.00    +0.000 A 
ATOM      9  N   UNL     1       4.456   5.343  19.533  0.00  0.00    +0.000 N 
ATOM     10  C   UNL     1       5.246   5.354  18.376  0.00  0.00    +0.000 A 
ATOM     11  C   UNL     1       6.452   6.061  18.331  0.00  0.00    +0.000 A 
ATOM     12  C   UNL     1       7.228   6.065  17.166  0.00  0.00    +0.000 A 
ATOM     13  C   UNL     1       6.795   5.362  16.046  0.00  0.00    +0.000 A 
ATOM     14  C   UNL     1       5.602   4.654  16.066  0.00  0.00    +0.000 A 
ATOM     15  C   UNL     1       4.830   4.653  17.231  0.00  0.00    +0.000 A 
ATOM     16  H   UNL     1       4.782   5.846  20.346  0.00  0.00    +0.000 HD
ENDROOT
BRANCH  13  17
ATOM     17  O   UNL     1       7.522   5.341  14.893  0.00  0.00    +0.000 OA
ATOM     18  H   UNL     1       7.841   6.237  14.702  0.00  0.00    +0.000 HD
ENDBRANCH  13  17
TORSDOF 1
ENDMDL
MODEL 4
REMARK VINA RESULT:      -7.2      1.786      5.285
REMARK  Name = 
REMARK  1 active torsions:
REMARK  status: ('A' for Active; 'I' for Inactive)
REMARK    1  A    between atoms: C_13  and  O_14
REMARK                            x       y       z     vdW  Elec       q    Type
REMARK                         _______ _______ _______ _____ _____    ______ ____
ROOT
ATOM      1  O   UNL     1       5.843   4.372  19.951  0.00  0.00    +0.000 OA
ATOM      2  C   UNL     1       5.097   4.146  19.005  0.00  0.00    +0.000 A 
ATOM      3  C   UNL     1       5.558   4.360  17.613  0.00  0.00    +0.000 A 
ATOM      4  C   UNL     1       6.856   4.822  17.371  0.00  0.00    +0.000 A 
ATOM      5  C   UNL     1       7.282   5.019  16.059  0.00  0.00    +0.000 A 
ATOM      6  C   UNL     1       6.414   4.757  14.999  0.00  0.00    +0.000 A 
ATOM      7  C   UNL     1       5.116   4.296  15.245  0.00  0.00    +0.000 A 
ATOM      8  C   UNL     1       4.674   4.091  16.555  0.00  0.00    +0.000 A 
ATOM      9  N   UNL     1       3.377   3.633  16.821  0.00  0.00    +0.000 N 
ATOM     10  C   UNL     1       2.894   3.408  18.117  0.00  0.00    +0.000 A 
ATOM     11  C   UNL     1       1.591   2.945  18.333  0.00  0.00    +0.000 A 
ATOM     12  C   UNL     1       1.124   2.729  19.635  0.00  0.00    +0.000 A 
ATOM     13  C   UNL     1       1.959   2.979  20.720  0.00  0.00    +0.000 A 
ATOM     14  C   UNL     1       3.254   3.440  20.531  0.00  0.00    +0.000 A 
ATOM     15  C   UNL     1       3.717   3.654  19.229  0.00  0.00    +0.000 A 
ATOM     16  H   UNL     1       2.768   3.438  16.038  0.00  0.00    +0.000 HD
ENDROOT
BRANCH  13  17
ATOM     17  O   UNL     1       1.540   2.781  22.002  0.00  0.00    +0.000 OA
ATOM     18  H   UNL     1       0.799   3.379  22.190  0.00  0.00    +0.000 HD
ENDBRANCH  13  17
TORSDOF 1
ENDMDL
MODEL 5
REMARK VINA RESULT:      -7.2      2.051      5.279
REMARK  Name = 
REMARK  1 active torsions:
REMARK  status: ('A' for Active; 'I' for Inactive)
REMARK    1  A    between atoms: C_13  and  O_14
REMARK                            x       y       z     vdW  Elec       q    Type
REMARK                         _______ _______ _______ _____ _____    ______ ____
ROOT
ATOM      1  O   UNL     1       2.862   6.404  17.458  0.00  0.00    +0.000 OA
ATOM      2  C   UNL     1       3.682   5.585  17.857  0.00  0.00    +0.000 A 
ATOM      3  C   UNL     1       5.127   5.916  17.883  0.00  0.00    +0.000 A 
ATOM      4  C   UNL     1       5.563   7.174  17.453  0.00  0.00    +0.000 A 
ATOM      5  C   UNL     1       6.922   7.477  17.482  0.00  0.00    +0.000 A 
ATOM      6  C   UNL     1       7.837   6.527  17.938  0.00  0.00    +0.000 A 
ATOM      7  C   UNL     1       7.398   5.270  18.367  0.00  0.00    +0.000 A 
ATOM      8  C   UNL     1       6.037   4.951  18.345  0.00  0.00    +0.000 A 
ATOM      9  N   UNL     1       5.578   3.696  18.768  0.00  0.00    +0.000 N 
ATOM     10  C   UNL     1       4.224   3.335  18.768  0.00  0.00    +0.000 A 
ATOM     11  C   UNL     1       3.812   2.071  19.204  0.00  0.00    +0.000 A 
ATOM     12  C   UNL     1       2.456   1.726  19.195  0.00  0.00    +0.000 A 
ATOM     13  C   UNL     1       1.512   2.646  18.748  0.00  0.00    +0.000 A 
ATOM     14  C   UNL     1       1.896   3.905  18.310  0.00  0.00    +0.000 A 
ATOM     15  C   UNL     1       3.251   4.245  18.320  0.00  0.00    +0.000 A 
ATOM     16  H   UNL     1       6.256   3.028  19.104  0.00  0.00    +0.000 HD
ENDROOT
BRANCH  13  17
ATOM     17  O   UNL     1       0.182   2.347  18.724  0.00  0.00    +0.000 OA
ATOM     18  H   UNL     1      -0.197   2.513  19.602  0.00  0.00    +0.000 HD
ENDBRANCH  13  17
TORSDOF 1
ENDMDL
MODEL 6
REMARK VINA RESULT:      -7.1      2.132      2.808
REMARK  Name = 
REMARK  1 active torsions:
REMARK  status: ('A' for Active; 'I' for Inactive)
REMARK    1  A    between atoms: C_13  and  O_14
REMARK                            x       y       z     vdW  Elec       q    Type
REMARK                         _______ _______ _______ _____ _____    ______ ____
ROOT
ATOM      1  O   UNL     1       3.631   1.997  17.682  0.00  0.00    +0.000 OA
ATOM      2  C   UNL     1       3.658   3.219  17.769  0.00  0.00    +0.000 A 
ATOM      3  C   UNL     1       2.908   3.915  18.842  0.00  0.00    +0.000 A 
ATOM      4  C   UNL     1       2.163   3.174  19.767  0.00  0.00    +0.000 A 
ATOM      5  C   UNL     1       1.462   3.836  20.772  0.00  0.00    +0.000 A 
ATOM      6  C   UNL     1       1.506   5.229  20.850  0.00  0.00    +0.000 A 
ATOM      7  C   UNL     1       2.251   5.966  19.923  0.00  0.00    +0.000 A 
ATOM      8  C   UNL     1       2.961   5.317  18.910  0.00  0.00    +0.000 A 
ATOM      9  N   UNL     1       3.710   6.039  17.970  0.00  0.00    +0.000 N 
ATOM     10  C   UNL     1       4.441   5.430  16.942  0.00  0.00    +0.000 A 
ATOM     11  C   UNL     1       5.179   6.193  16.030  0.00  0.00    +0.000 A 
ATOM     12  C   UNL     1       5.902   5.569  15.007  0.00  0.00    +0.000 A 
ATOM     13  C   UNL     1       5.884   4.181  14.895  0.00  0.00    +0.000 A 
ATOM     14  C   UNL     1       5.159   3.404  15.786  0.00  0.00    +0.000 A 
ATOM     15  C   UNL     1       4.439   4.031  16.807  0.00  0.00    +0.000 A 
ATOM     16  H   UNL     1       3.737   7.045  18.052  0.00  0.00    +0.000 HD
ENDROOT
BRANCH  13  17
ATOM     17  O   UNL     1       6.575   3.537  13.911  0.00  0.00    +0.000 OA
ATOM     18  H   UNL     1       7.337   4.078  13.653  0.00  0.00    +0.000 HD
ENDBRANCH  13  17
TORSDOF 1
ENDMDL
MODEL 7
REMARK VINA RESULT:      -7.1      2.417      5.564
REMARK  Name = 
REMARK  1 active torsions:
REMARK  status: ('A' for Active; 'I' for Inactive)
REMARK    1  A    between atoms: C_13  and  O_14
REMARK                            x       y       z     vdW  Elec       q    Type
REMARK                         _______ _______ _______ _____ _____    ______ ____
ROOT
ATOM      1  O   UNL     1       3.878   1.930  17.619  0.00  0.00    +0.000 OA
ATOM      2  C   UNL     1       3.824   3.150  17.727  0.00  0.00    +0.000 A 
ATOM      3  C   UNL     1       4.575   4.024  16.794  0.00  0.00    +0.000 A 
ATOM      4  C   UNL     1       5.353   3.457  15.779  0.00  0.00    +0.000 A 
ATOM      5  C   UNL     1       6.055   4.286  14.907  0.00  0.00    +0.000 A 
ATOM      6  C   UNL     1       5.979   5.672  15.051  0.00  0.00    +0.000 A 
ATOM      7  C   UNL     1       5.201   6.235  16.068  0.00  0.00    +0.000 A 
ATOM      8  C   UNL     1       4.489   5.417  16.950  0.00  0.00    +0.000 A 
ATOM      9  N   UNL     1       3.707   5.964  17.977  0.00  0.00    +0.000 N 
ATOM     10  C   UNL     1       2.973   5.183  18.880  0.00  0.00    +0.000 A 
ATOM     11  C   UNL     1       2.202   5.774  19.887  0.00  0.00    +0.000 A 
ATOM     12  C   UNL     1       1.478   4.980  20.782  0.00  0.00    +0.000 A 
ATOM     13  C   UNL     1       1.527   3.593  20.672  0.00  0.00    +0.000 A 
ATOM     14  C   UNL     1       2.286   2.984  19.683  0.00  0.00    +0.000 A 
ATOM     15  C   UNL     1       3.007   3.781  18.791  0.00  0.00    +0.000 A 
ATOM     16  H   UNL     1       3.658   6.970  18.057  0.00  0.00    +0.000 HD
ENDROOT
BRANCH  13  17
ATOM     17  O   UNL     1       0.835   2.785  21.525  0.00  0.00    +0.000 OA
ATOM     18  H   UNL     1       1.398   2.037  21.780  0.00  0.00    +0.000 HD
ENDBRANCH  13  17
TORSDOF 1
ENDMDL
MODEL 8
REMARK VINA RESULT:      -7.0      3.147      4.625
REMARK  Name = 
REMARK  1 active torsions:
REMARK  status: ('A' for Active; 'I' for Inactive)
REMARK    1  A    between atoms: C_13  and  O_14
REMARK                            x       y       z     vdW  Elec       q    Type
REMARK                         _______ _______ _______ _____ _____    ______ ____
ROOT
ATOM      1  O   UNL     1       3.720   5.759  17.338  0.00  0.00    +0.000 OA
ATOM      2  C   UNL     1       3.129   5.899  18.403  0.00  0.00    +0.000 A 
ATOM      3  C   UNL     1       3.037   4.776  19.368  0.00  0.00    +0.000 A 
ATOM      4  C   UNL     1       3.629   3.546  19.066  0.00  0.00    +0.000 A 
ATOM      5  C   UNL     1       3.539   2.498  19.979  0.00  0.00    +0.000 A 
ATOM      6  C   UNL     1       2.859   2.680  21.183  0.00  0.00    +0.000 A 
ATOM      7  C   UNL     1       2.266   3.912  21.481  0.00  0.00    +0.000 A 
ATOM      8  C   UNL     1       2.350   4.975  20.577  0.00  0.00    +0.000 A 
ATOM      9  N   UNL     1       1.760   6.215  20.857  0.00  0.00    +0.000 N 
ATOM     10  C   UNL     1       1.824   7.309  19.983  0.00  0.00    +0.000 A 
ATOM     11  C   UNL     1       1.224   8.530  20.308  0.00  0.00    +0.000 A 
ATOM     12  C   UNL     1       1.294   9.611  19.422  0.00  0.00    +0.000 A 
ATOM     13  C   UNL     1       1.963   9.469  18.210  0.00  0.00    +0.000 A 
ATOM     14  C   UNL     1       2.565   8.267  17.865  0.00  0.00    +0.000 A 
ATOM     15  C   UNL     1       2.493   7.191  18.752  0.00  0.00    +0.000 A 
ATOM     16  H   UNL     1       1.283   6.329  21.739  0.00  0.00    +0.000 HD
ENDROOT
BRANCH  13  17
ATOM     17  O   UNL     1       2.053  10.499  17.321  0.00  0.00    +0.000 OA
ATOM     18  H   UNL     1       2.988  10.712  17.176  0.00  0.00    +0.000 HD
ENDBRANCH  13  17
TORSDOF 1
ENDMDL
MODEL 9
REMARK VINA RESULT:      -6.9      1.599      5.195
REMARK  Name = 
REMARK  1 active torsions:
REMARK  status: ('A' for Active; 'I' for Inactive)
REMARK    1  A    between atoms: C_13  and  O_14
REMARK                            x       y       z     vdW  Elec       q    Type
REMARK                         _______ _______ _______ _____ _____    ______ ____
ROOT
ATOM      1  O   UNL     1       3.188   6.556  17.859  0.00  0.00    +0.000 OA
ATOM      2  C   UNL     1       3.597   5.427  17.610  0.00  0.00    +0.000 A 
ATOM      3  C   UNL     1       4.716   5.223  16.659  0.00  0.00    +0.000 A 
ATOM      4  C   UNL     1       5.316   6.324  16.040  0.00  0.00    +0.000 A 
ATOM      5  C   UNL     1       6.367   6.122  15.149  0.00  0.00    +0.000 A 
ATOM      6  C   UNL     1       6.813   4.827  14.880  0.00  0.00    +0.000 A 
ATOM      7  C   UNL     1       6.210   3.728  15.501  0.00  0.00    +0.000 A 
ATOM      8  C   UNL     1       5.155   3.914  16.399  0.00  0.00    +0.000 A 
ATOM      9  N   UNL     1       4.536   2.825  17.028  0.00  0.00    +0.000 N 
ATOM     10  C   UNL     1       3.480   2.964  17.938  0.00  0.00    +0.000 A 
ATOM     11  C   UNL     1       2.897   1.847  18.546  0.00  0.00    +0.000 A 
ATOM     12  C   UNL     1       1.841   2.004  19.450  0.00  0.00    +0.000 A 
ATOM     13  C   UNL     1       1.367   3.279  19.745  0.00  0.00    +0.000 A 
ATOM     14  C   UNL     1       1.928   4.402  19.155  0.00  0.00    +0.000 A 
ATOM     15  C   UNL     1       2.983   4.241  18.252  0.00  0.00    +0.000 A 
ATOM     16  H   UNL     1       4.882   1.897  16.828  0.00  0.00    +0.000 HD
ENDROOT
BRANCH  13  17
ATOM     17  O   UNL     1       0.340   3.473  20.621  0.00  0.00    +0.000 OA
ATOM     18  H   UNL     1       0.679   3.404  21.528  0.00  0.00    +0.000 HD
ENDBRANCH  13  17
TORSDOF 1
ENDMDL
