MODEL 1
REMARK VINA RESULT:      -7.7      0.000      0.000
REMARK  Name = 
REMARK  3 active torsions:
REMARK  status: ('A' for Active; 'I' for Inactive)
REMARK    1  A    between atoms: C_5  and  C_6
REMARK    2  A    between atoms: C_6  and  C_7
REMARK    3  A    between atoms: C_6  and  N_14
REMARK                            x       y       z     vdW  Elec       q    Type
REMARK                         _______ _______ _______ _____ _____    ______ ____
ROOT
ATOM      1  C   UNL     1       3.858   4.854  18.886  0.00  0.00    +0.000 C 
ENDROOT
BRANCH   1   6
ATOM      2 CL   UNL     1       7.495   5.148  14.026  0.00  0.00    +0.000 Cl
ATOM      3  C   UNL     1       6.491   5.020  15.418  0.00  0.00    +0.000 A 
ATOM      4  C   UNL     1       6.796   5.755  16.561  0.00  0.00    +0.000 A 
ATOM      5  C   UNL     1       5.955   5.675  17.675  0.00  0.00    +0.000 A 
ATOM      6  C   UNL     1       4.806   4.856  17.670  0.00  0.00    +0.000 A 
ATOM      7  C   UNL     1       4.554   4.094  16.519  0.00  0.00    +0.000 A 
ATOM      8  C   UNL     1       5.383   4.187  15.393  0.00  0.00    +0.000 A 
ENDBRANCH   1   6
BRANCH   1   9
ATOM      9  C   UNL     1       3.007   6.124  18.979  0.00  0.00    +0.000 A 
ATOM     10  C   UNL     1       2.448   6.556  20.192  0.00  0.00    +0.000 A 
ATOM     11  C   UNL     1       1.812   7.791  20.301  0.00  0.00    +0.000 A 
ATOM     12  C   UNL     1       1.687   8.594  19.175  0.00  0.00    +0.000 A 
ATOM     13 CL   UNL     1       0.985  10.160  19.322  0.00  0.00    +0.000 Cl
ATOM     14  C   UNL     1       2.132   8.147  17.935  0.00  0.00    +0.000 A 
ATOM     15  C   UNL     1       2.793   6.919  17.835  0.00  0.00    +0.000 A 
ENDBRANCH   1   9
BRANCH   1  16
ATOM     16  N   UNL     1       3.128   3.574  19.039  0.00  0.00    +0.000 NA
ATOM     17  C   UNL     1       1.685   3.502  18.768  0.00  0.00    +0.000 C 
ATOM     18  C   UNL     1       0.750   3.567  19.993  0.00  0.00    +0.000 C 
ATOM     19  O   UNL     1       1.168   2.679  21.034  0.00  0.00    +0.000 OA
ATOM     20  C   UNL     1       2.514   2.975  21.417  0.00  0.00    +0.000 C 
ATOM     21  C   UNL     1       3.468   2.780  20.230  0.00  0.00    +0.000 C 
ENDBRANCH   1  16
TORSDOF 3
ENDMDL
MODEL 2
REMARK VINA RESULT:      -7.6      0.244      1.079
REMARK  Name = 
REMARK  3 active torsions:
REMARK  status: ('A' for Active; 'I' for Inactive)
REMARK    1  A    between atoms: C_5  and  C_6
REMARK    2  A    between atoms: C_6  and  C_7
REMARK    3  A    between atoms: C_6  and  N_14
REMARK                            x       y       z     vdW  Elec       q    Type
REMARK                         _______ _______ _______ _____ _____    ______ ____
ROOT
ATOM      1  C   UNL     1       3.732   5.069  18.924  0.00  0.00    +0.000 C 
ENDROOT
BRANCH   1   6
ATOM      2 CL   UNL     1       7.500   5.010  14.156  0.00  0.00    +0.000 Cl
ATOM      3  C   UNL     1       6.408   5.071  15.485  0.00  0.00    +0.000 A 
ATOM      4  C   UNL     1       5.270   4.268  15.483  0.00  0.00    +0.000 A 
ATOM      5  C   UNL     1       4.408   4.293  16.583  0.00  0.00    +0.000 A 
ATOM      6  C   UNL     1       4.660   5.125  17.694  0.00  0.00    +0.000 A 
ATOM      7  C   UNL     1       5.790   5.956  17.643  0.00  0.00    +0.000 A 
ATOM      8  C   UNL     1       6.669   5.918  16.551  0.00  0.00    +0.000 A 
ENDBRANCH   1   6
BRANCH   1   9
ATOM      9  C   UNL     1       2.862   6.322  19.070  0.00  0.00    +0.000 A 
ATOM     10  C   UNL     1       2.313   6.704  20.304  0.00  0.00    +0.000 A 
ATOM     11  C   UNL     1       1.659   7.925  20.462  0.00  0.00    +0.000 A 
ATOM     12  C   UNL     1       1.506   8.761  19.365  0.00  0.00    +0.000 A 
ATOM     13 CL   UNL     1       0.781  10.311  19.573  0.00  0.00    +0.000 Cl
ATOM     14  C   UNL     1       1.940   8.363  18.105  0.00  0.00    +0.000 A 
ATOM     15  C   UNL     1       2.619   7.150  17.956  0.00  0.00    +0.000 A 
ENDBRANCH   1   9
BRANCH   1  16
ATOM     16  N   UNL     1       3.026   3.773  19.050  0.00  0.00    +0.000 NA
ATOM     17  C   UNL     1       1.575   3.690  18.826  0.00  0.00    +0.000 C 
ATOM     18  C   UNL     1       0.684   3.691  20.086  0.00  0.00    +0.000 C 
ATOM     19  O   UNL     1       1.152   2.766  21.073  0.00  0.00    +0.000 OA
ATOM     20  C   UNL     1       2.506   3.067  21.420  0.00  0.00    +0.000 C 
ATOM     21  C   UNL     1       3.419   2.936  20.193  0.00  0.00    +0.000 C 
ENDBRANCH   1  16
TORSDOF 3
ENDMDL
MODEL 3
REMARK VINA RESULT:      -7.6      0.203      1.071
REMARK  Name = 
REMARK  3 active torsions:
REMARK  status: ('A' for Active; 'I' for Inactive)
REMARK    1  A    between atoms: C_5  and  C_6
REMARK    2  A    between atoms: C_6  and  C_7
REMARK    3  A    between atoms: C_6  and  N_14
REMARK                            x       y       z     vdW  Elec       q    Type
REMARK                         _______ _______ _______ _____ _____    ______ ____
ROOT
ATOM      1  C   UNL     1       3.882   4.899  18.812  0.00  0.00    +0.000 C 
ENDROOT
BRANCH   1   6
ATOM      2 CL   UNL     1       7.539   5.079  13.961  0.00  0.00    +0.000 Cl
ATOM      3  C   UNL     1       6.527   4.981  15.350  0.00  0.00    +0.000 A 
ATOM      4  C   UNL     1       6.875   5.668  16.510  0.00  0.00    +0.000 A 
ATOM      5  C   UNL     1       6.029   5.615  17.622  0.00  0.00    +0.000 A 
ATOM      6  C   UNL     1       4.831   4.871  17.597  0.00  0.00    +0.000 A 
ATOM      7  C   UNL     1       4.533   4.153  16.428  0.00  0.00    +0.000 A 
ATOM      8  C   UNL     1       5.368   4.220  15.304  0.00  0.00    +0.000 A 
ENDBRANCH   1   6
BRANCH   1   9
ATOM      9  C   UNL     1       3.144   6.234  18.959  0.00  0.00    +0.000 A 
ATOM     10  C   UNL     1       2.974   7.110  17.876  0.00  0.00    +0.000 A 
ATOM     11  C   UNL     1       2.168   8.242  17.977  0.00  0.00    +0.000 A 
ATOM     12  C   UNL     1       1.558   8.537  19.188  0.00  0.00    +0.000 A 
ATOM     13 CL   UNL     1       0.487   9.883  19.294  0.00  0.00    +0.000 Cl
ATOM     14  C   UNL     1       1.795   7.751  20.310  0.00  0.00    +0.000 A 
ATOM     15  C   UNL     1       2.583   6.601  20.198  0.00  0.00    +0.000 A 
ENDBRANCH   1   9
BRANCH   1  16
ATOM     16  N   UNL     1       3.044   3.682  18.912  0.00  0.00    +0.000 NA
ATOM     17  C   UNL     1       1.581   3.772  18.792  0.00  0.00    +0.000 C 
ATOM     18  C   UNL     1       0.782   3.784  20.112  0.00  0.00    +0.000 C 
ATOM     19  O   UNL     1       1.208   2.750  21.005  0.00  0.00    +0.000 OA
ATOM     20  C   UNL     1       2.607   2.878  21.268  0.00  0.00    +0.000 C 
ATOM     21  C   UNL     1       3.416   2.732  19.971  0.00  0.00    +0.000 C 
ENDBRANCH   1  16
TORSDOF 3
ENDMDL
MODEL 4
REMARK VINA RESULT:      -7.4      0.315      1.519
REMARK  Name = 
REMARK  3 active torsions:
REMARK  status: ('A' for Active; 'I' for Inactive)
REMARK    1  A    between atoms: C_5  and  C_6
REMARK    2  A    between atoms: C_6  and  C_7
REMARK    3  A    between atoms: C_6  and  N_14
REMARK                            x       y       z     vdW  Elec       q    Type
REMARK                         _______ _______ _______ _____ _____    ______ ____
ROOT
ATOM      1  C   UNL     1       3.815   5.087  18.810  0.00  0.00    +0.000 C 
ENDROOT
BRANCH   1   6
ATOM      2 CL   UNL     1       7.560   4.956  14.024  0.00  0.00    +0.000 Cl
ATOM      3  C   UNL     1       6.478   5.040  15.360  0.00  0.00    +0.000 A 
ATOM      4  C   UNL     1       5.289   4.314  15.334  0.00  0.00    +0.000 A 
ATOM      5  C   UNL     1       4.433   4.356  16.438  0.00  0.00    +0.000 A 
ATOM      6  C   UNL     1       4.742   5.127  17.578  0.00  0.00    +0.000 A 
ATOM      7  C   UNL     1       5.925   5.882  17.552  0.00  0.00    +0.000 A 
ATOM      8  C   UNL     1       6.797   5.826  16.456  0.00  0.00    +0.000 A 
ENDBRANCH   1   6
BRANCH   1   9
ATOM      9  C   UNL     1       3.044   6.395  19.016  0.00  0.00    +0.000 A 
ATOM     10  C   UNL     1       2.834   7.305  17.968  0.00  0.00    +0.000 A 
ATOM     11  C   UNL     1       1.999   8.411  18.122  0.00  0.00    +0.000 A 
ATOM     12  C   UNL     1       1.400   8.644  19.352  0.00  0.00    +0.000 A 
ATOM     13 CL   UNL     1       0.295   9.955  19.522  0.00  0.00    +0.000 Cl
ATOM     14  C   UNL     1       1.675   7.824  20.441  0.00  0.00    +0.000 A 
ATOM     15  C   UNL     1       2.492   6.701  20.275  0.00  0.00    +0.000 A 
ENDBRANCH   1   9
BRANCH   1  16
ATOM     16  N   UNL     1       3.012   3.844  18.881  0.00  0.00    +0.000 NA
ATOM     17  C   UNL     1       1.546   3.898  18.796  0.00  0.00    +0.000 C 
ATOM     18  C   UNL     1       0.777   3.839  20.132  0.00  0.00    +0.000 C 
ATOM     19  O   UNL     1       1.250   2.785  20.976  0.00  0.00    +0.000 OA
ATOM     20  C   UNL     1       2.651   2.942  21.214  0.00  0.00    +0.000 C 
ATOM     21  C   UNL     1       3.434   2.866  19.895  0.00  0.00    +0.000 C 
ENDBRANCH   1  16
TORSDOF 3
ENDMDL
MODEL 5
REMARK VINA RESULT:      -7.2      0.871      1.760
REMARK  Name = 
REMARK  3 active torsions:
REMARK  status: ('A' for Active; 'I' for Inactive)
REMARK    1  A    between atoms: C_5  and  C_6
REMARK    2  A    between atoms: C_6  and  C_7
REMARK    3  A    between atoms: C_6  and  N_14
REMARK                            x       y       z     vdW  Elec       q    Type
REMARK                         _______ _______ _______ _____ _____    ______ ____
ROOT
ATOM      1  C   UNL     1       4.393   4.600  18.114  0.00  0.00    +0.000 C 
ENDROOT
BRANCH   1   6
ATOM      2 CL   UNL     1       7.893   5.026  13.163  0.00  0.00    +0.000 Cl
ATOM      3  C   UNL     1       6.886   4.957  14.557  0.00  0.00    +0.000 A 
ATOM      4  C   UNL     1       5.608   4.411  14.462  0.00  0.00    +0.000 A 
ATOM      5  C   UNL     1       4.810   4.323  15.606  0.00  0.00    +0.000 A 
ATOM      6  C   UNL     1       5.268   4.785  16.857  0.00  0.00    +0.000 A 
ATOM      7  C   UNL     1       6.542   5.372  16.909  0.00  0.00    +0.000 A 
ATOM      8  C   UNL     1       7.354   5.443  15.768  0.00  0.00    +0.000 A 
ENDBRANCH   1   6
BRANCH   1   9
ATOM      9  C   UNL     1       3.632   5.872  18.502  0.00  0.00    +0.000 A 
ATOM     10  C   UNL     1       3.467   6.940  17.606  0.00  0.00    +0.000 A 
ATOM     11  C   UNL     1       2.642   8.021  17.908  0.00  0.00    +0.000 A 
ATOM     12  C   UNL     1       2.006   8.068  19.141  0.00  0.00    +0.000 A 
ATOM     13 CL   UNL     1       0.912   9.355  19.484  0.00  0.00    +0.000 Cl
ATOM     14  C   UNL     1       2.235   7.081  20.093  0.00  0.00    +0.000 A 
ATOM     15  C   UNL     1       3.043   5.984  19.776  0.00  0.00    +0.000 A 
ENDBRANCH   1   9
BRANCH   1  16
ATOM     16  N   UNL     1       3.593   3.353  18.075  0.00  0.00    +0.000 NA
ATOM     17  C   UNL     1       2.163   3.396  17.736  0.00  0.00    +0.000 C 
ATOM     18  C   UNL     1       1.175   3.362  18.919  0.00  0.00    +0.000 C 
ATOM     19  O   UNL     1       1.497   2.331  19.858  0.00  0.00    +0.000 OA
ATOM     20  C   UNL     1       2.835   2.503  20.331  0.00  0.00    +0.000 C 
ATOM     21  C   UNL     1       3.835   2.402  19.170  0.00  0.00    +0.000 C 
ENDBRANCH   1  16
TORSDOF 3
ENDMDL
MODEL 6
REMARK VINA RESULT:      -7.2      1.059      1.636
REMARK  Name = 
REMARK  3 active torsions:
REMARK  status: ('A' for Active; 'I' for Inactive)
REMARK    1  A    between atoms: C_5  and  C_6
REMARK    2  A    between atoms: C_6  and  C_7
REMARK    3  A    between atoms: C_6  and  N_14
REMARK                            x       y       z     vdW  Elec       q    Type
REMARK                         _______ _______ _______ _____ _____    ______ ____
ROOT
ATOM      1  C   UNL     1       3.422   5.521  19.726  0.00  0.00    +0.000 C 
ENDROOT
BRANCH   1   6
ATOM      2 CL   UNL     1       7.313   4.597  15.150  0.00  0.00    +0.000 Cl
ATOM      3  C   UNL     1       6.207   4.804  16.452  0.00  0.00    +0.000 A 
ATOM      4  C   UNL     1       6.688   5.049  17.736  0.00  0.00    +0.000 A 
ATOM      5  C   UNL     1       5.784   5.256  18.782  0.00  0.00    +0.000 A 
ATOM      6  C   UNL     1       4.391   5.210  18.567  0.00  0.00    +0.000 A 
ATOM      7  C   UNL     1       3.940   4.916  17.271  0.00  0.00    +0.000 A 
ATOM      8  C   UNL     1       4.843   4.729  16.215  0.00  0.00    +0.000 A 
ENDBRANCH   1   6
BRANCH   1   9
ATOM      9  C   UNL     1       2.585   6.781  19.480  0.00  0.00    +0.000 A 
ATOM     10  C   UNL     1       1.858   7.401  20.508  0.00  0.00    +0.000 A 
ATOM     11  C   UNL     1       1.231   8.630  20.315  0.00  0.00    +0.000 A 
ATOM     12  C   UNL     1       1.286   9.234  19.066  0.00  0.00    +0.000 A 
ATOM     13 CL   UNL     1       0.592  10.796  18.846  0.00  0.00    +0.000 Cl
ATOM     14  C   UNL     1       1.904   8.593  17.997  0.00  0.00    +0.000 A 
ATOM     15  C   UNL     1       2.555   7.373  18.202  0.00  0.00    +0.000 A 
ENDBRANCH   1   9
BRANCH   1  16
ATOM     16  N   UNL     1       2.675   4.327  20.183  0.00  0.00    +0.000 NA
ATOM     17  C   UNL     1       3.338   3.018  20.262  0.00  0.00    +0.000 C 
ATOM     18  C   UNL     1       3.103   2.055  19.080  0.00  0.00    +0.000 C 
ATOM     19  O   UNL     1       1.717   1.960  18.735  0.00  0.00    +0.000 OA
ATOM     20  C   UNL     1       1.200   3.258  18.431  0.00  0.00    +0.000 C 
ATOM     21  C   UNL     1       1.311   4.182  19.653  0.00  0.00    +0.000 C 
ENDBRANCH   1  16
TORSDOF 3
ENDMDL
MODEL 7
REMARK VINA RESULT:      -7.0      1.298      2.197
REMARK  Name = 
REMARK  3 active torsions:
REMARK  status: ('A' for Active; 'I' for Inactive)
REMARK    1  A    between atoms: C_5  and  C_6
REMARK    2  A    between atoms: C_6  and  C_7
REMARK    3  A    between atoms: C_6  and  N_14
REMARK                            x       y       z     vdW  Elec       q    Type
REMARK                         _______ _______ _______ _____ _____    ______ ____
ROOT
ATOM      1  C   UNL     1       2.845   6.014  19.804  0.00  0.00    +0.000 C 
ENDROOT
BRANCH   1   6
ATOM      2 CL   UNL     1       7.311   4.706  15.895  0.00  0.00    +0.000 Cl
ATOM      3  C   UNL     1       6.023   5.028  16.990  0.00  0.00    +0.000 A 
ATOM      4  C   UNL     1       6.185   4.761  18.347  0.00  0.00    +0.000 A 
ATOM      5  C   UNL     1       5.149   5.061  19.237  0.00  0.00    +0.000 A 
ATOM      6  C   UNL     1       3.935   5.621  18.787  0.00  0.00    +0.000 A 
ATOM      7  C   UNL     1       3.788   5.835  17.407  0.00  0.00    +0.000 A 
ATOM      8  C   UNL     1       4.832   5.555  16.515  0.00  0.00    +0.000 A 
ENDBRANCH   1   6
BRANCH   1   9
ATOM      9  C   UNL     1       2.237   7.392  19.521  0.00  0.00    +0.000 A 
ATOM     10  C   UNL     1       2.292   7.979  18.248  0.00  0.00    +0.000 A 
ATOM     11  C   UNL     1       1.601   9.155  17.959  0.00  0.00    +0.000 A 
ATOM     12  C   UNL     1       0.881   9.785  18.965  0.00  0.00    +0.000 A 
ATOM     13 CL   UNL     1      -0.049  11.187  18.593  0.00  0.00    +0.000 Cl
ATOM     14  C   UNL     1       0.898   9.289  20.265  0.00  0.00    +0.000 A 
ATOM     15  C   UNL     1       1.570   8.095  20.543  0.00  0.00    +0.000 A 
ENDBRANCH   1   9
BRANCH   1  16
ATOM     16  N   UNL     1       1.879   4.920  20.058  0.00  0.00    +0.000 NA
ATOM     17  C   UNL     1       2.029   4.052  21.235  0.00  0.00    +0.000 C 
ATOM     18  C   UNL     1       2.702   2.684  21.000  0.00  0.00    +0.000 C 
ATOM     19  O   UNL     1       2.150   2.003  19.869  0.00  0.00    +0.000 OA
ATOM     20  C   UNL     1       2.264   2.822  18.702  0.00  0.00    +0.000 C 
ATOM     21  C   UNL     1       1.481   4.130  18.883  0.00  0.00    +0.000 C 
ENDBRANCH   1  16
TORSDOF 3
ENDMDL
MODEL 8
REMARK VINA RESULT:      -7.0      1.147      1.951
REMARK  Name = 
REMARK  3 active torsions:
REMARK  status: ('A' for Active; 'I' for Inactive)
REMARK    1  A    between atoms: C_5  and  C_6
REMARK    2  A    between atoms: C_6  and  C_7
REMARK    3  A    between atoms: C_6  and  N_14
REMARK                            x       y       z     vdW  Elec       q    Type
REMARK                         _______ _______ _______ _____ _____    ______ ____
ROOT
ATOM      1  C   UNL     1       3.442   5.646  19.720  0.00  0.00    +0.000 C 
ENDROOT
BRANCH   1   6
ATOM      2 CL   UNL     1       7.351   4.555  15.196  0.00  0.00    +0.000 Cl
ATOM      3  C   UNL     1       6.256   4.917  16.473  0.00  0.00    +0.000 A 
ATOM      4  C   UNL     1       4.895   5.045  16.202  0.00  0.00    +0.000 A 
ATOM      5  C   UNL     1       4.006   5.301  17.250  0.00  0.00    +0.000 A 
ATOM      6  C   UNL     1       4.458   5.444  18.578  0.00  0.00    +0.000 A 
ATOM      7  C   UNL     1       5.840   5.354  18.809  0.00  0.00    +0.000 A 
ATOM      8  C   UNL     1       6.733   5.077  17.765  0.00  0.00    +0.000 A 
ENDBRANCH   1   6
BRANCH   1   9
ATOM      9  C   UNL     1       2.563   6.885  19.521  0.00  0.00    +0.000 A 
ATOM     10  C   UNL     1       1.825   7.448  20.574  0.00  0.00    +0.000 A 
ATOM     11  C   UNL     1       1.158   8.662  20.426  0.00  0.00    +0.000 A 
ATOM     12  C   UNL     1       1.182   9.307  19.197  0.00  0.00    +0.000 A 
ATOM     13 CL   UNL     1       0.437  10.852  19.034  0.00  0.00    +0.000 Cl
ATOM     14  C   UNL     1       1.811   8.721  18.103  0.00  0.00    +0.000 A 
ATOM     15  C   UNL     1       2.502   7.516  18.263  0.00  0.00    +0.000 A 
ENDBRANCH   1   9
BRANCH   1  16
ATOM     16  N   UNL     1       2.729   4.397  20.079  0.00  0.00    +0.000 NA
ATOM     17  C   UNL     1       3.447   3.115  20.119  0.00  0.00    +0.000 C 
ATOM     18  C   UNL     1       3.306   2.209  18.879  0.00  0.00    +0.000 C 
ATOM     19  O   UNL     1       1.943   2.074  18.465  0.00  0.00    +0.000 OA
ATOM     20  C   UNL     1       1.382   3.364  18.206  0.00  0.00    +0.000 C 
ATOM     21  C   UNL     1       1.398   4.224  19.478  0.00  0.00    +0.000 C 
ENDBRANCH   1  16
TORSDOF 3
ENDMDL
MODEL 9
REMARK VINA RESULT:      -6.9      1.080      5.281
REMARK  Name = 
REMARK  3 active torsions:
REMARK  status: ('A' for Active; 'I' for Inactive)
REMARK    1  A    between atoms: C_5  and  C_6
REMARK    2  A    between atoms: C_6  and  C_7
REMARK    3  A    between atoms: C_6  and  N_14
REMARK                            x       y       z     vdW  Elec       q    Type
REMARK                         _______ _______ _______ _____ _____    ______ ____
ROOT
ATOM      1  C   UNL     1       2.484   5.464  18.284  0.00  0.00    +0.000 C 
ENDROOT
BRANCH   1   6
ATOM      2 CL   UNL     1       0.953  11.171  19.705  0.00  0.00    +0.000 Cl
ATOM      3  C   UNL     1       1.439   9.570  19.302  0.00  0.00    +0.000 A 
ATOM      4  C   UNL     1       1.585   8.617  20.308  0.00  0.00    +0.000 A 
ATOM      5  C   UNL     1       1.943   7.309  19.970  0.00  0.00    +0.000 A 
ATOM      6  C   UNL     1       2.170   6.934  18.630  0.00  0.00    +0.000 A 
ATOM      7  C   UNL     1       2.059   7.929  17.646  0.00  0.00    +0.000 A 
ATOM      8  C   UNL     1       1.680   9.237  17.979  0.00  0.00    +0.000 A 
ENDBRANCH   1   6
BRANCH   1   9
ATOM      9  C   UNL     1       3.793   5.303  17.504  0.00  0.00    +0.000 A 
ATOM     10  C   UNL     1       3.997   4.244  16.606  0.00  0.00    +0.000 A 
ATOM     11  C   UNL     1       5.121   4.193  15.785  0.00  0.00    +0.000 A 
ATOM     12  C   UNL     1       6.085   5.186  15.889  0.00  0.00    +0.000 A 
ATOM     13 CL   UNL     1       7.431   5.180  14.813  0.00  0.00    +0.000 Cl
ATOM     14  C   UNL     1       5.968   6.189  16.846  0.00  0.00    +0.000 A 
ATOM     15  C   UNL     1       4.825   6.251  17.650  0.00  0.00    +0.000 A 
ENDBRANCH   1   9
BRANCH   1  16
ATOM     16  N   UNL     1       2.304   4.554  19.439  0.00  0.00    +0.000 NA
ATOM     17  C   UNL     1       3.423   3.734  19.924  0.00  0.00    +0.000 C 
ATOM     18  C   UNL     1       3.455   2.265  19.453  0.00  0.00    +0.000 C 
ATOM     19  O   UNL     1       2.185   1.625  19.608  0.00  0.00    +0.000 OA
ATOM     20  C   UNL     1       1.181   2.355  18.898  0.00  0.00    +0.000 C 
ATOM     21  C   UNL     1       1.053   3.780  19.456  0.00  0.00    +0.000 C 
ENDBRANCH   1  16
TORSDOF 3
ENDMDL
