MODEL 1
REMARK VINA RESULT:      -8.3      0.000      0.000
REMARK  Name = 
REMARK  6 active torsions:
REMARK  status: ('A' for Active; 'I' for Inactive)
REMARK    1  A    between atoms: C_1  and  C_2
REMARK    2  A    between atoms: C_2  and  N_3
REMARK    3  A    between atoms: C_2  and  C_12
REMARK    4  A    between atoms: C_4  and  C_6
REMARK    5  A    between atoms: N_14  and  N_15
REMARK    6  A    between atoms: C_16  and  C_18
REMARK                            x       y       z     vdW  Elec       q    Type
REMARK                         _______ _______ _______ _____ _____    ______ ____
ROOT
ATOM      1  C   UNL     1       1.966   4.378  20.210  0.00  0.00    +0.000 C 
ATOM      2  O   UNL     1       0.750   4.205  20.314  0.00  0.00    +0.000 OA
ATOM      3  N   UNL     1       2.566   5.597  20.449  0.00  0.00    +0.000 N 
ATOM      4  H   UNL     1       3.587   5.684  20.544  0.00  0.00    +0.000 HD
ENDROOT
BRANCH   3   5
ATOM      5  N   UNL     1       1.781   6.637  20.939  0.00  0.00    +0.000 N 
ATOM      6  C   UNL     1       1.700   7.816  20.230  0.00  0.00    +0.000 C 
ATOM      7  O   UNL     1       2.211   7.979  19.124  0.00  0.00    +0.000 OA
ATOM      8  H   UNL     1       1.512   6.568  21.919  0.00  0.00    +0.000 HD
BRANCH   6   9
ATOM      9  C   UNL     1       0.875   8.896  20.837  0.00  0.00    +0.000 A 
ATOM     10  C   UNL     1       0.728   8.852  22.236  0.00  0.00    +0.000 A 
ATOM     11  C   UNL     1       0.024   9.848  22.914  0.00  0.00    +0.000 A 
ATOM     12  C   UNL     1      -0.548  10.898  22.202  0.00  0.00    +0.000 A 
ATOM     13  C   UNL     1      -0.430  10.945  20.814  0.00  0.00    +0.000 A 
ATOM     14  C   UNL     1       0.270   9.944  20.126  0.00  0.00    +0.000 A 
ATOM     15 CL   UNL     1       0.292  10.079  18.403  0.00  0.00    +0.000 Cl
ENDBRANCH   6   9
ENDBRANCH   3   5
BRANCH   1  17
ATOM     16  C   UNL     1       2.179   1.932  19.590  0.00  0.00    +0.000 C 
ATOM     17  C   UNL     1       2.905   3.269  19.702  0.00  0.00    +0.000 C 
BRANCH  17  18
ATOM     18  N   UNL     1       3.628   3.651  18.489  0.00  0.00    +0.000 N 
ATOM     19  C   UNL     1       4.954   4.019  18.478  0.00  0.00    +0.000 C 
ATOM     20  O   UNL     1       5.649   4.064  19.485  0.00  0.00    +0.000 OA
ATOM     21  H   UNL     1       3.185   3.429  17.606  0.00  0.00    +0.000 HD
BRANCH  19  22
ATOM     22  C   UNL     1       5.546   4.281  17.148  0.00  0.00    +0.000 A 
ATOM     23  C   UNL     1       4.822   4.046  15.974  0.00  0.00    +0.000 A 
ATOM     24  C   UNL     1       5.410   4.306  14.736  0.00  0.00    +0.000 A 
ATOM     25  C   UNL     1       6.714   4.797  14.671  0.00  0.00    +0.000 A 
ATOM     26  C   UNL     1       7.433   5.041  15.842  0.00  0.00    +0.000 A 
ATOM     27  C   UNL     1       6.849   4.787  17.083  0.00  0.00    +0.000 A 
ENDBRANCH  19  22
ENDBRANCH  17  18
ENDBRANCH   1  17
TORSDOF 5
ENDMDL
MODEL 2
REMARK VINA RESULT:      -8.2      0.206      1.010
REMARK  Name = 
REMARK  6 active torsions:
REMARK  status: ('A' for Active; 'I' for Inactive)
REMARK    1  A    between atoms: C_1  and  C_2
REMARK    2  A    between atoms: C_2  and  N_3
REMARK    3  A    between atoms: C_2  and  C_12
REMARK    4  A    between atoms: C_4  and  C_6
REMARK    5  A    between atoms: N_14  and  N_15
REMARK    6  A    between atoms: C_16  and  C_18
REMARK                            x       y       z     vdW  Elec       q    Type
REMARK                         _______ _______ _______ _____ _____    ______ ____
ROOT
ATOM      1  C   UNL     1       2.044   4.514  20.060  0.00  0.00    +0.000 C 
ATOM      2  O   UNL     1       0.829   4.442  19.858  0.00  0.00    +0.000 OA
ATOM      3  N   UNL     1       2.637   5.619  20.633  0.00  0.00    +0.000 N 
ATOM      4  H   UNL     1       3.609   5.594  20.968  0.00  0.00    +0.000 HD
ENDROOT
BRANCH   3   5
ATOM      5  N   UNL     1       1.818   6.640  21.106  0.00  0.00    +0.000 N 
ATOM      6  C   UNL     1       1.660   7.785  20.354  0.00  0.00    +0.000 C 
ATOM      7  O   UNL     1       2.132   7.927  19.228  0.00  0.00    +0.000 OA
ATOM      8  H   UNL     1       1.580   6.598  22.095  0.00  0.00    +0.000 HD
BRANCH   6   9
ATOM      9  C   UNL     1       0.802   8.849  20.943  0.00  0.00    +0.000 A 
ATOM     10  C   UNL     1       0.656   8.824  22.343  0.00  0.00    +0.000 A 
ATOM     11  C   UNL     1      -0.079   9.809  23.004  0.00  0.00    +0.000 A 
ATOM     12  C   UNL     1      -0.681  10.829  22.275  0.00  0.00    +0.000 A 
ATOM     13  C   UNL     1      -0.565  10.856  20.886  0.00  0.00    +0.000 A 
ATOM     14  C   UNL     1       0.167   9.866  20.215  0.00  0.00    +0.000 A 
ATOM     15 CL   UNL     1       0.185   9.973  18.490  0.00  0.00    +0.000 Cl
ENDBRANCH   6   9
ENDBRANCH   3   5
BRANCH   1  17
ATOM     16  C   UNL     1       2.317   2.058  19.506  0.00  0.00    +0.000 C 
ATOM     17  C   UNL     1       3.013   3.412  19.594  0.00  0.00    +0.000 C 
BRANCH  17  18
ATOM     18  N   UNL     1       3.744   3.778  18.380  0.00  0.00    +0.000 N 
ATOM     19  C   UNL     1       5.095   4.038  18.356  0.00  0.00    +0.000 C 
ATOM     20  O   UNL     1       5.809   3.989  19.351  0.00  0.00    +0.000 OA
ATOM     21  H   UNL     1       3.270   3.626  17.499  0.00  0.00    +0.000 HD
BRANCH  19  22
ATOM     22  C   UNL     1       5.684   4.299  17.025  0.00  0.00    +0.000 A 
ATOM     23  C   UNL     1       6.997   4.764  16.893  0.00  0.00    +0.000 A 
ATOM     24  C   UNL     1       7.522   4.998  15.622  0.00  0.00    +0.000 A 
ATOM     25  C   UNL     1       6.740   4.769  14.489  0.00  0.00    +0.000 A 
ATOM     26  C   UNL     1       5.434   4.295  14.621  0.00  0.00    +0.000 A 
ATOM     27  C   UNL     1       4.905   4.055  15.888  0.00  0.00    +0.000 A 
ENDBRANCH  19  22
ENDBRANCH  17  18
ENDBRANCH   1  17
TORSDOF 5
ENDMDL
MODEL 3
REMARK VINA RESULT:      -8.2      5.582      7.963
REMARK  Name = 
REMARK  6 active torsions:
REMARK  status: ('A' for Active; 'I' for Inactive)
REMARK    1  A    between atoms: C_1  and  C_2
REMARK    2  A    between atoms: C_2  and  N_3
REMARK    3  A    between atoms: C_2  and  C_12
REMARK    4  A    between atoms: C_4  and  C_6
REMARK    5  A    between atoms: N_14  and  N_15
REMARK    6  A    between atoms: C_16  and  C_18
REMARK                            x       y       z     vdW  Elec       q    Type
REMARK                         _______ _______ _______ _____ _____    ______ ____
ROOT
ATOM      1  C   UNL     1       7.497   7.134  17.924  0.00  0.00    +0.000 C 
ATOM      2  O   UNL     1       8.168   6.580  18.798  0.00  0.00    +0.000 OA
ATOM      3  N   UNL     1       7.670   8.458  17.583  0.00  0.00    +0.000 N 
ATOM      4  H   UNL     1       7.244   8.856  16.735  0.00  0.00    +0.000 HD
ENDROOT
BRANCH   3   5
ATOM      5  N   UNL     1       8.720   9.161  18.168  0.00  0.00    +0.000 N 
ATOM      6  C   UNL     1       8.781  10.531  18.026  0.00  0.00    +0.000 C 
ATOM      7  O   UNL     1       7.900  11.196  17.485  0.00  0.00    +0.000 OA
ATOM      8  H   UNL     1       9.524   8.604  18.453  0.00  0.00    +0.000 HD
BRANCH   6   9
ATOM      9  C   UNL     1       9.954  11.207  18.643  0.00  0.00    +0.000 A 
ATOM     10  C   UNL     1      10.956  11.642  17.757  0.00  0.00    +0.000 A 
ATOM     11  C   UNL     1      12.072  12.339  18.224  0.00  0.00    +0.000 A 
ATOM     12  C   UNL     1      12.202  12.607  19.582  0.00  0.00    +0.000 A 
ATOM     13  C   UNL     1      11.229  12.164  20.477  0.00  0.00    +0.000 A 
ATOM     14  C   UNL     1      10.109  11.457  20.015  0.00  0.00    +0.000 A 
ATOM     15 CL   UNL     1       9.006  10.907  21.227  0.00  0.00    +0.000 Cl
ENDBRANCH   6   9
ENDBRANCH   3   5
BRANCH   1  17
ATOM     16  C   UNL     1       6.843   5.533  16.074  0.00  0.00    +0.000 C 
ATOM     17  C   UNL     1       6.337   6.415  17.211  0.00  0.00    +0.000 C 
BRANCH  17  18
ATOM     18  N   UNL     1       5.443   5.723  18.140  0.00  0.00    +0.000 N 
ATOM     19  C   UNL     1       4.111   6.034  18.287  0.00  0.00    +0.000 C 
ATOM     20  O   UNL     1       3.553   6.922  17.654  0.00  0.00    +0.000 OA
ATOM     21  H   UNL     1       5.777   4.850  18.528  0.00  0.00    +0.000 HD
BRANCH  19  22
ATOM     22  C   UNL     1       3.337   5.168  19.203  0.00  0.00    +0.000 A 
ATOM     23  C   UNL     1       2.180   5.635  19.836  0.00  0.00    +0.000 A 
ATOM     24  C   UNL     1       1.473   4.790  20.692  0.00  0.00    +0.000 A 
ATOM     25  C   UNL     1       1.919   3.487  20.913  0.00  0.00    +0.000 A 
ATOM     26  C   UNL     1       3.067   3.018  20.273  0.00  0.00    +0.000 A 
ATOM     27  C   UNL     1       3.775   3.856  19.413  0.00  0.00    +0.000 A 
ENDBRANCH  19  22
ENDBRANCH  17  18
ENDBRANCH   1  17
TORSDOF 5
ENDMDL
MODEL 4
REMARK VINA RESULT:      -8.0      0.907      1.339
REMARK  Name = 
REMARK  6 active torsions:
REMARK  status: ('A' for Active; 'I' for Inactive)
REMARK    1  A    between atoms: C_1  and  C_2
REMARK    2  A    between atoms: C_2  and  N_3
REMARK    3  A    between atoms: C_2  and  C_12
REMARK    4  A    between atoms: C_4  and  C_6
REMARK    5  A    between atoms: N_14  and  N_15
REMARK    6  A    between atoms: C_16  and  C_18
REMARK                            x       y       z     vdW  Elec       q    Type
REMARK                         _______ _______ _______ _____ _____    ______ ____
ROOT
ATOM      1  C   UNL     1       1.883   4.283  20.386  0.00  0.00    +0.000 C 
ATOM      2  O   UNL     1       0.658   4.223  20.267  0.00  0.00    +0.000 OA
ATOM      3  N   UNL     1       2.540   5.445  20.732  0.00  0.00    +0.000 N 
ATOM      4  H   UNL     1       3.530   5.441  21.012  0.00  0.00    +0.000 HD
ENDROOT
BRANCH   3   5
ATOM      5  N   UNL     1       1.778   6.561  21.070  0.00  0.00    +0.000 N 
ATOM      6  C   UNL     1       1.796   7.667  20.249  0.00  0.00    +0.000 C 
ATOM      7  O   UNL     1       2.380   7.700  19.168  0.00  0.00    +0.000 OA
ATOM      8  H   UNL     1       1.448   6.599  22.033  0.00  0.00    +0.000 HD
BRANCH   6   9
ATOM      9  C   UNL     1       0.990   8.835  20.697  0.00  0.00    +0.000 A 
ATOM     10  C   UNL     1       0.770   8.942  22.083  0.00  0.00    +0.000 A 
ATOM     11  C   UNL     1       0.077  10.030  22.616  0.00  0.00    +0.000 A 
ATOM     12  C   UNL     1      -0.411  11.021  21.772  0.00  0.00    +0.000 A 
ATOM     13  C   UNL     1      -0.221  10.919  20.394  0.00  0.00    +0.000 A 
ATOM     14  C   UNL     1       0.469   9.827  19.851  0.00  0.00    +0.000 A 
ATOM     15 CL   UNL     1       0.584   9.781  18.127  0.00  0.00    +0.000 Cl
ENDBRANCH   6   9
ENDBRANCH   3   5
BRANCH   1  17
ATOM     16  C   UNL     1       1.984   1.889  19.566  0.00  0.00    +0.000 C 
ATOM     17  C   UNL     1       2.793   3.084  20.059  0.00  0.00    +0.000 C 
BRANCH  17  18
ATOM     18  N   UNL     1       3.908   3.443  19.183  0.00  0.00    +0.000 N 
ATOM     19  C   UNL     1       3.760   3.739  17.847  0.00  0.00    +0.000 C 
ATOM     20  O   UNL     1       2.680   3.727  17.270  0.00  0.00    +0.000 OA
ATOM     21  H   UNL     1       4.782   3.683  19.633  0.00  0.00    +0.000 HD
BRANCH  19  22
ATOM     22  C   UNL     1       4.984   4.173  17.138  0.00  0.00    +0.000 A 
ATOM     23  C   UNL     1       6.149   4.503  17.838  0.00  0.00    +0.000 A 
ATOM     24  C   UNL     1       7.285   4.907  17.138  0.00  0.00    +0.000 A 
ATOM     25  C   UNL     1       7.258   4.979  15.745  0.00  0.00    +0.000 A 
ATOM     26  C   UNL     1       6.099   4.640  15.045  0.00  0.00    +0.000 A 
ATOM     27  C   UNL     1       4.961   4.232  15.740  0.00  0.00    +0.000 A 
ENDBRANCH  19  22
ENDBRANCH  17  18
ENDBRANCH   1  17
TORSDOF 5
ENDMDL
MODEL 5
REMARK VINA RESULT:      -7.9      3.330      8.091
REMARK  Name = 
REMARK  6 active torsions:
REMARK  status: ('A' for Active; 'I' for Inactive)
REMARK    1  A    between atoms: C_1  and  C_2
REMARK    2  A    between atoms: C_2  and  N_3
REMARK    3  A    between atoms: C_2  and  C_12
REMARK    4  A    between atoms: C_4  and  C_6
REMARK    5  A    between atoms: N_14  and  N_15
REMARK    6  A    between atoms: C_16  and  C_18
REMARK                            x       y       z     vdW  Elec       q    Type
REMARK                         _______ _______ _______ _____ _____    ______ ____
ROOT
ATOM      1  C   UNL     1       0.136   9.226  21.291  0.00  0.00    +0.000 C 
ATOM      2  O   UNL     1      -0.581   8.528  22.011  0.00  0.00    +0.000 OA
ATOM      3  N   UNL     1       1.310   8.760  20.737  0.00  0.00    +0.000 N 
ATOM      4  H   UNL     1       1.798   9.278  19.994  0.00  0.00    +0.000 HD
ENDROOT
BRANCH   3   5
ATOM      5  N   UNL     1       1.635   7.416  20.906  0.00  0.00    +0.000 N 
ATOM      6  C   UNL     1       2.109   6.694  19.833  0.00  0.00    +0.000 C 
ATOM      7  O   UNL     1       2.357   7.192  18.737  0.00  0.00    +0.000 OA
ATOM      8  H   UNL     1       1.266   6.972  21.745  0.00  0.00    +0.000 HD
BRANCH   6   9
ATOM      9  C   UNL     1       2.394   5.254  20.080  0.00  0.00    +0.000 A 
ATOM     10  C   UNL     1       1.344   4.501  20.637  0.00  0.00    +0.000 A 
ATOM     11  C   UNL     1       1.485   3.129  20.856  0.00  0.00    +0.000 A 
ATOM     12  C   UNL     1       2.678   2.495  20.526  0.00  0.00    +0.000 A 
ATOM     13  C   UNL     1       3.735   3.231  19.993  0.00  0.00    +0.000 A 
ATOM     14  C   UNL     1       3.603   4.609  19.777  0.00  0.00    +0.000 A 
ATOM     15 CL   UNL     1       5.004   5.422  19.172  0.00  0.00    +0.000 Cl
ENDBRANCH   6   9
ENDBRANCH   3   5
BRANCH   1  17
ATOM     16  C   UNL     1       1.109  11.519  20.837  0.00  0.00    +0.000 C 
ATOM     17  C   UNL     1      -0.170  10.712  21.032  0.00  0.00    +0.000 C 
BRANCH  17  18
ATOM     18  N   UNL     1      -1.159  10.910  19.973  0.00  0.00    +0.000 N 
ATOM     19  C   UNL     1      -0.994  10.456  18.684  0.00  0.00    +0.000 C 
ATOM     20  O   UNL     1      -0.001   9.845  18.307  0.00  0.00    +0.000 OA
ATOM     21  H   UNL     1      -2.083  11.207  20.261  0.00  0.00    +0.000 HD
BRANCH  19  22
ATOM     22  C   UNL     1      -2.138  10.662  17.770  0.00  0.00    +0.000 A 
ATOM     23  C   UNL     1      -3.213  11.482  18.129  0.00  0.00    +0.000 A 
ATOM     24  C   UNL     1      -4.276  11.656  17.241  0.00  0.00    +0.000 A 
ATOM     25  C   UNL     1      -4.263  11.016  16.002  0.00  0.00    +0.000 A 
ATOM     26  C   UNL     1      -3.185  10.207  15.639  0.00  0.00    +0.000 A 
ATOM     27  C   UNL     1      -2.119  10.032  16.520  0.00  0.00    +0.000 A 
ENDBRANCH  19  22
ENDBRANCH  17  18
ENDBRANCH   1  17
TORSDOF 5
ENDMDL
MODEL 6
REMARK VINA RESULT:      -7.9      0.930      1.020
REMARK  Name = 
REMARK  6 active torsions:
REMARK  status: ('A' for Active; 'I' for Inactive)
REMARK    1  A    between atoms: C_1  and  C_2
REMARK    2  A    between atoms: C_2  and  N_3
REMARK    3  A    between atoms: C_2  and  C_12
REMARK    4  A    between atoms: C_4  and  C_6
REMARK    5  A    between atoms: N_14  and  N_15
REMARK    6  A    between atoms: C_16  and  C_18
REMARK                            x       y       z     vdW  Elec       q    Type
REMARK                         _______ _______ _______ _____ _____    ______ ____
ROOT
ATOM      1  C   UNL     1       1.889   4.328  20.421  0.00  0.00    +0.000 C 
ATOM      2  O   UNL     1       0.661   4.224  20.384  0.00  0.00    +0.000 OA
ATOM      3  N   UNL     1       2.526   5.517  20.708  0.00  0.00    +0.000 N 
ATOM      4  H   UNL     1       3.532   5.550  20.921  0.00  0.00    +0.000 HD
ENDROOT
BRANCH   3   5
ATOM      5  N   UNL     1       1.750   6.610  21.083  0.00  0.00    +0.000 N 
ATOM      6  C   UNL     1       1.731   7.733  20.285  0.00  0.00    +0.000 C 
ATOM      7  O   UNL     1       2.292   7.799  19.193  0.00  0.00    +0.000 OA
ATOM      8  H   UNL     1       1.438   6.622  22.053  0.00  0.00    +0.000 HD
BRANCH   6   9
ATOM      9  C   UNL     1       0.911   8.876  20.772  0.00  0.00    +0.000 A 
ATOM     10  C   UNL     1       0.690   8.933  22.160  0.00  0.00    +0.000 A 
ATOM     11  C   UNL     1      -0.016   9.994  22.730  0.00  0.00    +0.000 A 
ATOM     12  C   UNL     1      -0.514  11.008  21.920  0.00  0.00    +0.000 A 
ATOM     13  C   UNL     1      -0.322  10.956  20.539  0.00  0.00    +0.000 A 
ATOM     14  C   UNL     1       0.380   9.890  19.960  0.00  0.00    +0.000 A 
ATOM     15 CL   UNL     1       0.497   9.905  18.236  0.00  0.00    +0.000 Cl
ENDBRANCH   6   9
ENDBRANCH   3   5
BRANCH   1  17
ATOM     16  C   UNL     1       2.019   1.935  19.602  0.00  0.00    +0.000 C 
ATOM     17  C   UNL     1       2.816   3.156  20.048  0.00  0.00    +0.000 C 
BRANCH  17  18
ATOM     18  N   UNL     1       3.871   3.545  19.111  0.00  0.00    +0.000 N 
ATOM     19  C   UNL     1       3.632   4.219  17.936  0.00  0.00    +0.000 C 
ATOM     20  O   UNL     1       2.513   4.553  17.565  0.00  0.00    +0.000 OA
ATOM     21  H   UNL     1       4.823   3.498  19.452  0.00  0.00    +0.000 HD
BRANCH  19  22
ATOM     22  C   UNL     1       4.827   4.615  17.158  0.00  0.00    +0.000 A 
ATOM     23  C   UNL     1       5.055   4.110  15.874  0.00  0.00    +0.000 A 
ATOM     24  C   UNL     1       6.191   4.506  15.167  0.00  0.00    +0.000 A 
ATOM     25  C   UNL     1       7.093   5.402  15.741  0.00  0.00    +0.000 A 
ATOM     26  C   UNL     1       6.860   5.914  17.018  0.00  0.00    +0.000 A 
ATOM     27  C   UNL     1       5.724   5.526  17.727  0.00  0.00    +0.000 A 
ENDBRANCH  19  22
ENDBRANCH  17  18
ENDBRANCH   1  17
TORSDOF 5
ENDMDL
MODEL 7
REMARK VINA RESULT:      -7.8      1.188      1.870
REMARK  Name = 
REMARK  6 active torsions:
REMARK  status: ('A' for Active; 'I' for Inactive)
REMARK    1  A    between atoms: C_1  and  C_2
REMARK    2  A    between atoms: C_2  and  N_3
REMARK    3  A    between atoms: C_2  and  C_12
REMARK    4  A    between atoms: C_4  and  C_6
REMARK    5  A    between atoms: N_14  and  N_15
REMARK    6  A    between atoms: C_16  and  C_18
REMARK                            x       y       z     vdW  Elec       q    Type
REMARK                         _______ _______ _______ _____ _____    ______ ____
ROOT
ATOM      1  C   UNL     1       2.267   4.986  20.285  0.00  0.00    +0.000 C 
ATOM      2  O   UNL     1       1.111   4.714  20.615  0.00  0.00    +0.000 OA
ATOM      3  N   UNL     1       2.710   6.283  20.129  0.00  0.00    +0.000 N 
ATOM      4  H   UNL     1       3.711   6.504  20.041  0.00  0.00    +0.000 HD
ENDROOT
BRANCH   3   5
ATOM      5  N   UNL     1       1.848   7.322  20.468  0.00  0.00    +0.000 N 
ATOM      6  C   UNL     1       1.688   8.381  19.601  0.00  0.00    +0.000 C 
ATOM      7  O   UNL     1       2.197   8.424  18.483  0.00  0.00    +0.000 OA
ATOM      8  H   UNL     1       1.575   7.372  21.448  0.00  0.00    +0.000 HD
BRANCH   6   9
ATOM      9  C   UNL     1       0.783   9.473  20.051  0.00  0.00    +0.000 A 
ATOM     10  C   UNL     1       0.057  10.133  19.042  0.00  0.00    +0.000 A 
ATOM     11  C   UNL     1      -0.864  11.133  19.359  0.00  0.00    +0.000 A 
ATOM     12  C   UNL     1      -1.068  11.490  20.687  0.00  0.00    +0.000 A 
ATOM     13  C   UNL     1      -0.342  10.861  21.698  0.00  0.00    +0.000 A 
ATOM     14  C   UNL     1       0.590   9.861  21.386  0.00  0.00    +0.000 A 
ATOM     15 CL   UNL     1       1.472   9.202  22.718  0.00  0.00    +0.000 Cl
ENDBRANCH   6   9
ENDBRANCH   3   5
BRANCH   1  17
ATOM     16  C   UNL     1       2.687   2.499  20.063  0.00  0.00    +0.000 C 
ATOM     17  C   UNL     1       3.289   3.893  19.922  0.00  0.00    +0.000 C 
BRANCH  17  18
ATOM     18  N   UNL     1       3.934   4.128  18.630  0.00  0.00    +0.000 N 
ATOM     19  C   UNL     1       5.286   4.336  18.482  0.00  0.00    +0.000 C 
ATOM     20  O   UNL     1       6.073   4.347  19.421  0.00  0.00    +0.000 OA
ATOM     21  H   UNL     1       3.388   3.918  17.803  0.00  0.00    +0.000 HD
BRANCH  19  22
ATOM     22  C   UNL     1       5.777   4.462  17.092  0.00  0.00    +0.000 A 
ATOM     23  C   UNL     1       7.107   4.802  16.823  0.00  0.00    +0.000 A 
ATOM     24  C   UNL     1       7.538   4.910  15.500  0.00  0.00    +0.000 A 
ATOM     25  C   UNL     1       6.645   4.679  14.453  0.00  0.00    +0.000 A 
ATOM     26  C   UNL     1       5.321   4.329  14.723  0.00  0.00    +0.000 A 
ATOM     27  C   UNL     1       4.885   4.216  16.042  0.00  0.00    +0.000 A 
ENDBRANCH  19  22
ENDBRANCH  17  18
ENDBRANCH   1  17
TORSDOF 5
ENDMDL
MODEL 8
REMARK VINA RESULT:      -7.8      6.055      7.511
REMARK  Name = 
REMARK  6 active torsions:
REMARK  status: ('A' for Active; 'I' for Inactive)
REMARK    1  A    between atoms: C_1  and  C_2
REMARK    2  A    between atoms: C_2  and  N_3
REMARK    3  A    between atoms: C_2  and  C_12
REMARK    4  A    between atoms: C_4  and  C_6
REMARK    5  A    between atoms: N_14  and  N_15
REMARK    6  A    between atoms: C_16  and  C_18
REMARK                            x       y       z     vdW  Elec       q    Type
REMARK                         _______ _______ _______ _____ _____    ______ ____
ROOT
ATOM      1  C   UNL     1       7.606   7.404  17.839  0.00  0.00    +0.000 C 
ATOM      2  O   UNL     1       7.029   7.833  16.837  0.00  0.00    +0.000 OA
ATOM      3  N   UNL     1       8.514   8.157  18.553  0.00  0.00    +0.000 N 
ATOM      4  H   UNL     1       8.842   7.866  19.483  0.00  0.00    +0.000 HD
ENDROOT
BRANCH   3   5
ATOM      5  N   UNL     1       8.698   9.490  18.192  0.00  0.00    +0.000 N 
ATOM      6  C   UNL     1       9.180  10.383  19.124  0.00  0.00    +0.000 C 
ATOM      7  O   UNL     1       9.554  10.055  20.248  0.00  0.00    +0.000 OA
ATOM      8  H   UNL     1       8.228   9.788  17.339  0.00  0.00    +0.000 HD
BRANCH   6   9
ATOM      9  C   UNL     1       9.311  11.797  18.677  0.00  0.00    +0.000 A 
ATOM     10  C   UNL     1       8.288  12.279  17.839  0.00  0.00    +0.000 A 
ATOM     11  C   UNL     1       8.282  13.608  17.409  0.00  0.00    +0.000 A 
ATOM     12  C   UNL     1       9.298  14.469  17.807  0.00  0.00    +0.000 A 
ATOM     13  C   UNL     1      10.331  14.001  18.619  0.00  0.00    +0.000 A 
ATOM     14  C   UNL     1      10.347  12.667  19.049  0.00  0.00    +0.000 A 
ATOM     15 CL   UNL     1      11.711  12.191  19.999  0.00  0.00    +0.000 Cl
ENDBRANCH   6   9
ENDBRANCH   3   5
BRANCH   1  17
ATOM     16  C   UNL     1       8.136   5.717  19.651  0.00  0.00    +0.000 C 
ATOM     17  C   UNL     1       7.433   5.951  18.318  0.00  0.00    +0.000 C 
BRANCH  17  18
ATOM     18  N   UNL     1       6.037   5.513  18.304  0.00  0.00    +0.000 N 
ATOM     19  C   UNL     1       5.519   4.657  17.359  0.00  0.00    +0.000 C 
ATOM     20  O   UNL     1       6.180   4.186  16.442  0.00  0.00    +0.000 OA
ATOM     21  H   UNL     1       5.497   5.684  19.142  0.00  0.00    +0.000 HD
BRANCH  19  22
ATOM     22  C   UNL     1       4.111   4.246  17.555  0.00  0.00    +0.000 A 
ATOM     23  C   UNL     1       3.736   2.900  17.498  0.00  0.00    +0.000 A 
ATOM     24  C   UNL     1       2.400   2.547  17.689  0.00  0.00    +0.000 A 
ATOM     25  C   UNL     1       1.445   3.534  17.936  0.00  0.00    +0.000 A 
ATOM     26  C   UNL     1       1.822   4.876  18.004  0.00  0.00    +0.000 A 
ATOM     27  C   UNL     1       3.156   5.234  17.818  0.00  0.00    +0.000 A 
ENDBRANCH  19  22
ENDBRANCH  17  18
ENDBRANCH   1  17
TORSDOF 5
ENDMDL
MODEL 9
REMARK VINA RESULT:      -7.8      1.450      2.118
REMARK  Name = 
REMARK  6 active torsions:
REMARK  status: ('A' for Active; 'I' for Inactive)
REMARK    1  A    between atoms: C_1  and  C_2
REMARK    2  A    between atoms: C_2  and  N_3
REMARK    3  A    between atoms: C_2  and  C_12
REMARK    4  A    between atoms: C_4  and  C_6
REMARK    5  A    between atoms: N_14  and  N_15
REMARK    6  A    between atoms: C_16  and  C_18
REMARK                            x       y       z     vdW  Elec       q    Type
REMARK                         _______ _______ _______ _____ _____    ______ ____
ROOT
ATOM      1  C   UNL     1       2.314   7.204  19.749  0.00  0.00    +0.000 C 
ATOM      2  O   UNL     1       2.256   7.957  18.775  0.00  0.00    +0.000 OA
ATOM      3  N   UNL     1       1.920   7.592  21.013  0.00  0.00    +0.000 N 
ATOM      4  H   UNL     1       1.794   6.908  21.771  0.00  0.00    +0.000 HD
ENDROOT
BRANCH   3   5
ATOM      5  N   UNL     1       1.328   8.843  21.167  0.00  0.00    +0.000 N 
ATOM      6  C   UNL     1      -0.013   8.924  21.475  0.00  0.00    +0.000 C 
ATOM      7  O   UNL     1      -0.713   7.943  21.720  0.00  0.00    +0.000 OA
ATOM      8  H   UNL     1       1.852   9.632  20.794  0.00  0.00    +0.000 HD
BRANCH   6   9
ATOM      9  C   UNL     1      -0.584  10.294  21.583  0.00  0.00    +0.000 A 
ATOM     10  C   UNL     1      -0.901  10.733  22.882  0.00  0.00    +0.000 A 
ATOM     11  C   UNL     1      -1.388  12.022  23.103  0.00  0.00    +0.000 A 
ATOM     12  C   UNL     1      -1.569  12.887  22.030  0.00  0.00    +0.000 A 
ATOM     13  C   UNL     1      -1.281  12.460  20.734  0.00  0.00    +0.000 A 
ATOM     14  C   UNL     1      -0.798  11.165  20.504  0.00  0.00    +0.000 A 
ATOM     15 CL   UNL     1      -0.538  10.733  18.851  0.00  0.00    +0.000 Cl
ENDBRANCH   6   9
ENDBRANCH   3   5
BRANCH   1  17
ATOM     16  C   UNL     1       1.877   4.713  19.867  0.00  0.00    +0.000 C 
ATOM     17  C   UNL     1       2.929   5.796  19.653  0.00  0.00    +0.000 C 
BRANCH  17  18
ATOM     18  N   UNL     1       3.729   5.609  18.443  0.00  0.00    +0.000 N 
ATOM     19  C   UNL     1       4.910   4.903  18.414  0.00  0.00    +0.000 C 
ATOM     20  O   UNL     1       5.400   4.369  19.401  0.00  0.00    +0.000 OA
ATOM     21  H   UNL     1       3.282   5.831  17.562  0.00  0.00    +0.000 HD
BRANCH  19  22
ATOM     22  C   UNL     1       5.535   4.735  17.084  0.00  0.00    +0.000 A 
ATOM     23  C   UNL     1       4.794   4.283  15.987  0.00  0.00    +0.000 A 
ATOM     24  C   UNL     1       5.414   4.138  14.746  0.00  0.00    +0.000 A 
ATOM     25  C   UNL     1       6.768   4.443  14.602  0.00  0.00    +0.000 A 
ATOM     26  C   UNL     1       7.505   4.904  15.694  0.00  0.00    +0.000 A 
ATOM     27  C   UNL     1       6.890   5.056  16.935  0.00  0.00    +0.000 A 
ENDBRANCH  19  22
ENDBRANCH  17  18
ENDBRANCH   1  17
TORSDOF 5
ENDMDL
