MODEL 1
REMARK VINA RESULT:     -10.9      0.000      0.000
REMARK  Name = 
REMARK  4 active torsions:
REMARK  status: ('A' for Active; 'I' for Inactive)
REMARK    1  A    between atoms: C_1  and  C_2
REMARK    2  A    between atoms: C_5  and  C_6
REMARK    3  A    between atoms: C_10  and  C_11
REMARK    4  A    between atoms: C_12  and  C_13
REMARK                            x       y       z     vdW  Elec       q    Type
REMARK                         _______ _______ _______ _____ _____    ______ ____
ROOT
ATOM      1  C   UNL     1       2.414   7.166  18.667  0.00  0.00    +0.000 A 
ATOM      2  C   UNL     1       2.012   8.220  17.799  0.00  0.00    +0.000 A 
ATOM      3  C   UNL     1       1.396   9.404  18.264  0.00  0.00    +0.000 A 
ATOM      4  C   UNL     1       1.141   9.522  19.616  0.00  0.00    +0.000 A 
ATOM      5  C   UNL     1       1.551   8.506  20.467  0.00  0.00    +0.000 A 
ATOM      6  C   UNL     1       2.219   7.380  20.038  0.00  0.00    +0.000 A 
ATOM      7  N   UNL     1       1.175   8.777  21.767  0.00  0.00    +0.000 N 
ATOM      8  C   UNL     1       0.495   9.975  21.853  0.00  0.00    +0.000 C 
ATOM      9  O   UNL     1       0.025  10.425  22.887  0.00  0.00    +0.000 OA
ATOM     10  C   UNL     1       0.462  10.609  20.431  0.00  0.00    +0.000 C 
ATOM     11  C   UNL     1       1.276  11.909  20.434  0.00  0.00    +0.000 C 
ATOM     12  C   UNL     1       0.529  13.022  21.158  0.00  0.00    +0.000 C 
ATOM     13  O   UNL     1      -0.769  13.199  20.592  0.00  0.00    +0.000 OA
ATOM     14  C   UNL     1      -1.590  12.042  20.747  0.00  0.00    +0.000 C 
ATOM     15  C   UNL     1      -0.988  10.858  19.998  0.00  0.00    +0.000 C 
ATOM     16  H   UNL     1       1.311   8.168  22.559  0.00  0.00    +0.000 HD
ENDROOT
BRANCH   1  23
ATOM     17  C   UNL     1       4.710   4.815  16.684  0.00  0.00    +0.000 A 
ATOM     18  C   UNL     1       4.260   3.564  17.096  0.00  0.00    +0.000 A 
ATOM     19  C   UNL     1       3.218   3.468  18.002  0.00  0.00    +0.000 A 
ATOM     20  F   UNL     1       2.825   2.237  18.364  0.00  0.00    +0.000 F 
ATOM     21  C   UNL     1       2.567   4.595  18.527  0.00  0.00    +0.000 A 
ATOM     22  C   UNL     1       1.413   4.315  19.456  0.00  0.00    +0.000 C 
ATOM     23  C   UNL     1       3.018   5.893  18.157  0.00  0.00    +0.000 A 
ATOM     24  C   UNL     1       4.096   5.957  17.233  0.00  0.00    +0.000 A 
BRANCH  17  29
ATOM     25  C   UNL     1       7.277   4.405  12.448  0.00  0.00    +0.000 C 
ATOM     26  C   UNL     1       6.942   4.787  13.838  0.00  0.00    +0.000 A 
ATOM     27  N   UNL     1       7.675   5.441  14.704  0.00  0.00    +0.000 NA
ATOM     28  N   UNL     1       6.953   5.548  15.873  0.00  0.00    +0.000 NA
ATOM     29  C   UNL     1       5.789   4.951  15.707  0.00  0.00    +0.000 A 
ATOM     30  N   UNL     1       5.750   4.467  14.420  0.00  0.00    +0.000 N 
ATOM     31  H   UNL     1       4.989   3.975  13.983  0.00  0.00    +0.000 HD
ENDBRANCH  17  29
ENDBRANCH   1  23
TORSDOF 2
ENDMDL
MODEL 2
REMARK VINA RESULT:      -9.9      1.137      1.968
REMARK  Name = 
REMARK  4 active torsions:
REMARK  status: ('A' for Active; 'I' for Inactive)
REMARK    1  A    between atoms: C_1  and  C_2
REMARK    2  A    between atoms: C_5  and  C_6
REMARK    3  A    between atoms: C_10  and  C_11
REMARK    4  A    between atoms: C_12  and  C_13
REMARK                            x       y       z     vdW  Elec       q    Type
REMARK                         _______ _______ _______ _____ _____    ______ ____
ROOT
ATOM      1  C   UNL     1       2.222   7.180  18.962  0.00  0.00    +0.000 A 
ATOM      2  C   UNL     1       1.792   7.375  20.305  0.00  0.00    +0.000 A 
ATOM      3  C   UNL     1       1.205   8.580  20.754  0.00  0.00    +0.000 A 
ATOM      4  C   UNL     1       1.079   9.622  19.856  0.00  0.00    +0.000 A 
ATOM      5  C   UNL     1       1.477   9.426  18.542  0.00  0.00    +0.000 A 
ATOM      6  C   UNL     1       1.983   8.234  18.071  0.00  0.00    +0.000 A 
ATOM      7  N   UNL     1       1.318  10.583  17.806  0.00  0.00    +0.000 N 
ATOM      8  C   UNL     1       0.814  11.606  18.584  0.00  0.00    +0.000 C 
ATOM      9  O   UNL     1       0.615  12.742  18.180  0.00  0.00    +0.000 OA
ATOM     10  C   UNL     1       0.555  11.039  20.011  0.00  0.00    +0.000 C 
ATOM     11  C   UNL     1      -0.952  11.059  20.301  0.00  0.00    +0.000 C 
ATOM     12  C   UNL     1      -1.439  12.477  20.567  0.00  0.00    +0.000 C 
ATOM     13  O   UNL     1      -0.680  13.076  21.616  0.00  0.00    +0.000 OA
ATOM     14  C   UNL     1       0.698  13.218  21.274  0.00  0.00    +0.000 C 
ATOM     15  C   UNL     1       1.336  11.850  21.051  0.00  0.00    +0.000 C 
ATOM     16  H   UNL     1       1.585  10.712  16.843  0.00  0.00    +0.000 HD
ENDROOT
BRANCH   1  23
ATOM     17  C   UNL     1       4.589   4.855  17.032  0.00  0.00    +0.000 A 
ATOM     18  C   UNL     1       4.249   3.608  17.550  0.00  0.00    +0.000 A 
ATOM     19  C   UNL     1       3.258   3.507  18.512  0.00  0.00    +0.000 A 
ATOM     20  F   UNL     1       2.971   2.281  18.977  0.00  0.00    +0.000 F 
ATOM     21  C   UNL     1       2.553   4.621  18.990  0.00  0.00    +0.000 A 
ATOM     22  C   UNL     1       1.466   4.331  19.993  0.00  0.00    +0.000 C 
ATOM     23  C   UNL     1       2.892   5.918  18.510  0.00  0.00    +0.000 A 
ATOM     24  C   UNL     1       3.920   5.988  17.532  0.00  0.00    +0.000 A 
BRANCH  17  29
ATOM     25  C   UNL     1       7.033   4.240  12.748  0.00  0.00    +0.000 C 
ATOM     26  C   UNL     1       6.707   4.742  14.102  0.00  0.00    +0.000 A 
ATOM     27  N   UNL     1       7.391   5.567  14.853  0.00  0.00    +0.000 NA
ATOM     28  N   UNL     1       6.704   5.728  16.037  0.00  0.00    +0.000 NA
ATOM     29  C   UNL     1       5.610   4.994  15.994  0.00  0.00    +0.000 A 
ATOM     30  N   UNL     1       5.580   4.363  14.773  0.00  0.00    +0.000 N 
ATOM     31  H   UNL     1       4.865   3.743  14.430  0.00  0.00    +0.000 HD
ENDBRANCH  17  29
ENDBRANCH   1  23
TORSDOF 2
ENDMDL
MODEL 3
REMARK VINA RESULT:      -9.4      0.986      1.187
REMARK  Name = 
REMARK  4 active torsions:
REMARK  status: ('A' for Active; 'I' for Inactive)
REMARK    1  A    between atoms: C_1  and  C_2
REMARK    2  A    between atoms: C_5  and  C_6
REMARK    3  A    between atoms: C_10  and  C_11
REMARK    4  A    between atoms: C_12  and  C_13
REMARK                            x       y       z     vdW  Elec       q    Type
REMARK                         _______ _______ _______ _____ _____    ______ ____
ROOT
ATOM      1  C   UNL     1       2.702   7.164  18.604  0.00  0.00    +0.000 A 
ATOM      2  C   UNL     1       2.456   8.136  17.593  0.00  0.00    +0.000 A 
ATOM      3  C   UNL     1       1.699   9.307  17.824  0.00  0.00    +0.000 A 
ATOM      4  C   UNL     1       1.144   9.492  19.075  0.00  0.00    +0.000 A 
ATOM      5  C   UNL     1       1.400   8.558  20.067  0.00  0.00    +0.000 A 
ATOM      6  C   UNL     1       2.198   7.450  19.880  0.00  0.00    +0.000 A 
ATOM      7  N   UNL     1       0.732   8.885  21.230  0.00  0.00    +0.000 N 
ATOM      8  C   UNL     1      -0.004  10.043  21.077  0.00  0.00    +0.000 C 
ATOM      9  O   UNL     1      -0.712  10.527  21.946  0.00  0.00    +0.000 OA
ATOM     10  C   UNL     1       0.251  10.585  19.639  0.00  0.00    +0.000 C 
ATOM     11  C   UNL     1       0.984  11.929  19.724  0.00  0.00    +0.000 C 
ATOM     12  C   UNL     1       0.044  13.037  20.183  0.00  0.00    +0.000 C 
ATOM     13  O   UNL     1      -1.101  13.100  19.335  0.00  0.00    +0.000 OA
ATOM     14  C   UNL     1      -1.883  11.907  19.391  0.00  0.00    +0.000 C 
ATOM     15  C   UNL     1      -1.075  10.717  18.882  0.00  0.00    +0.000 C 
ATOM     16  H   UNL     1       0.715   8.336  22.075  0.00  0.00    +0.000 HD
ENDROOT
BRANCH   1  23
ATOM     17  C   UNL     1       4.937   4.630  16.784  0.00  0.00    +0.000 A 
ATOM     18  C   UNL     1       4.947   3.564  17.680  0.00  0.00    +0.000 A 
ATOM     19  C   UNL     1       4.235   3.651  18.864  0.00  0.00    +0.000 A 
ATOM     20  F   UNL     1       4.280   2.594  19.691  0.00  0.00    +0.000 F 
ATOM     21  C   UNL     1       3.473   4.777  19.207  0.00  0.00    +0.000 A 
ATOM     22  C   UNL     1       2.710   4.686  20.504  0.00  0.00    +0.000 C 
ATOM     23  C   UNL     1       3.462   5.901  18.334  0.00  0.00    +0.000 A 
ATOM     24  C   UNL     1       4.212   5.785  17.132  0.00  0.00    +0.000 A 
BRANCH  17  29
ATOM     25  C   UNL     1       8.200   5.662  13.180  0.00  0.00    +0.000 C 
ATOM     26  C   UNL     1       7.094   4.996  13.904  0.00  0.00    +0.000 A 
ATOM     27  N   UNL     1       6.327   4.015  13.498  0.00  0.00    +0.000 NA
ATOM     28  N   UNL     1       5.428   3.739  14.505  0.00  0.00    +0.000 NA
ATOM     29  C   UNL     1       5.655   4.560  15.512  0.00  0.00    +0.000 A 
ATOM     30  N   UNL     1       6.714   5.364  15.162  0.00  0.00    +0.000 N 
ATOM     31  H   UNL     1       7.137   6.084  15.723  0.00  0.00    +0.000 HD
ENDBRANCH  17  29
ENDBRANCH   1  23
TORSDOF 2
ENDMDL
MODEL 4
REMARK VINA RESULT:      -9.3      4.453      9.730
REMARK  Name = 
REMARK  4 active torsions:
REMARK  status: ('A' for Active; 'I' for Inactive)
REMARK    1  A    between atoms: C_1  and  C_2
REMARK    2  A    between atoms: C_5  and  C_6
REMARK    3  A    between atoms: C_10  and  C_11
REMARK    4  A    between atoms: C_12  and  C_13
REMARK                            x       y       z     vdW  Elec       q    Type
REMARK                         _______ _______ _______ _____ _____    ______ ____
ROOT
ATOM      1  C   UNL     1       1.175   9.790  19.254  0.00  0.00    +0.000 A 
ATOM      2  C   UNL     1       1.665   9.472  17.955  0.00  0.00    +0.000 A 
ATOM      3  C   UNL     1       2.218   8.213  17.632  0.00  0.00    +0.000 A 
ATOM      4  C   UNL     1       2.321   7.266  18.632  0.00  0.00    +0.000 A 
ATOM      5  C   UNL     1       1.824   7.565  19.892  0.00  0.00    +0.000 A 
ATOM      6  C   UNL     1       1.214   8.761  20.204  0.00  0.00    +0.000 A 
ATOM      7  N   UNL     1       2.052   6.522  20.767  0.00  0.00    +0.000 N 
ATOM      8  C   UNL     1       2.711   5.481  20.144  0.00  0.00    +0.000 C 
ATOM      9  O   UNL     1       3.060   4.455  20.707  0.00  0.00    +0.000 OA
ATOM     10  C   UNL     1       2.898   5.861  18.645  0.00  0.00    +0.000 C 
ATOM     11  C   UNL     1       2.081   4.902  17.771  0.00  0.00    +0.000 C 
ATOM     12  C   UNL     1       2.737   3.529  17.704  0.00  0.00    +0.000 C 
ATOM     13  O   UNL     1       4.088   3.644  17.261  0.00  0.00    +0.000 OA
ATOM     14  C   UNL     1       4.894   4.393  18.170  0.00  0.00    +0.000 C 
ATOM     15  C   UNL     1       4.386   5.827  18.276  0.00  0.00    +0.000 C 
ATOM     16  H   UNL     1       1.833   6.518  21.751  0.00  0.00    +0.000 HD
ENDROOT
BRANCH   1  23
ATOM     17  C   UNL     1      -1.128  12.477  20.740  0.00  0.00    +0.000 A 
ATOM     18  C   UNL     1      -0.501  13.649  20.327  0.00  0.00    +0.000 A 
ATOM     19  C   UNL     1       0.656  13.584  19.569  0.00  0.00    +0.000 A 
ATOM     20  F   UNL     1       1.219  14.745  19.199  0.00  0.00    +0.000 F 
ATOM     21  C   UNL     1       1.231  12.368  19.172  0.00  0.00    +0.000 A 
ATOM     22  C   UNL     1       2.455  12.473  18.298  0.00  0.00    +0.000 C 
ATOM     23  C   UNL     1       0.639  11.146  19.599  0.00  0.00    +0.000 A 
ATOM     24  C   UNL     1      -0.540  11.248  20.386  0.00  0.00    +0.000 A 
BRANCH  17  29
ATOM     25  C   UNL     1      -4.223  12.465  24.628  0.00  0.00    +0.000 C 
ATOM     26  C   UNL     1      -3.756  12.512  23.225  0.00  0.00    +0.000 A 
ATOM     27  N   UNL     1      -4.469  12.583  22.130  0.00  0.00    +0.000 NA
ATOM     28  N   UNL     1      -3.601  12.585  21.060  0.00  0.00    +0.000 NA
ATOM     29  C   UNL     1      -2.366  12.510  21.517  0.00  0.00    +0.000 A 
ATOM     30  N   UNL     1      -2.433  12.472  22.890  0.00  0.00    +0.000 N 
ATOM     31  H   UNL     1      -1.659  12.428  23.532  0.00  0.00    +0.000 HD
ENDBRANCH  17  29
ENDBRANCH   1  23
TORSDOF 2
ENDMDL
MODEL 5
REMARK VINA RESULT:      -9.3      4.622      8.610
REMARK  Name = 
REMARK  4 active torsions:
REMARK  status: ('A' for Active; 'I' for Inactive)
REMARK    1  A    between atoms: C_1  and  C_2
REMARK    2  A    between atoms: C_5  and  C_6
REMARK    3  A    between atoms: C_10  and  C_11
REMARK    4  A    between atoms: C_12  and  C_13
REMARK                            x       y       z     vdW  Elec       q    Type
REMARK                         _______ _______ _______ _____ _____    ______ ____
ROOT
ATOM      1  C   UNL     1       1.887   8.264  18.649  0.00  0.00    +0.000 A 
ATOM      2  C   UNL     1       2.808   8.615  17.621  0.00  0.00    +0.000 A 
ATOM      3  C   UNL     1       3.897   7.792  17.254  0.00  0.00    +0.000 A 
ATOM      4  C   UNL     1       4.094   6.617  17.952  0.00  0.00    +0.000 A 
ATOM      5  C   UNL     1       3.186   6.262  18.938  0.00  0.00    +0.000 A 
ATOM      6  C   UNL     1       2.077   7.016  19.257  0.00  0.00    +0.000 A 
ATOM      7  N   UNL     1       3.566   5.086  19.552  0.00  0.00    +0.000 N 
ATOM      8  C   UNL     1       4.741   4.598  19.016  0.00  0.00    +0.000 C 
ATOM      9  O   UNL     1       5.307   3.589  19.408  0.00  0.00    +0.000 OA
ATOM     10  C   UNL     1       5.169   5.548  17.858  0.00  0.00    +0.000 C 
ATOM     11  C   UNL     1       5.101   4.789  16.527  0.00  0.00    +0.000 C 
ATOM     12  C   UNL     1       6.254   3.801  16.400  0.00  0.00    +0.000 C 
ATOM     13  O   UNL     1       7.502   4.468  16.579  0.00  0.00    +0.000 OA
ATOM     14  C   UNL     1       7.636   5.025  17.886  0.00  0.00    +0.000 C 
ATOM     15  C   UNL     1       6.576   6.097  18.120  0.00  0.00    +0.000 C 
ATOM     16  H   UNL     1       3.100   4.650  20.333  0.00  0.00    +0.000 HD
ENDROOT
BRANCH   1  23
ATOM     17  C   UNL     1      -1.338  10.334  18.426  0.00  0.00    +0.000 A 
ATOM     18  C   UNL     1      -1.417  10.876  19.706  0.00  0.00    +0.000 A 
ATOM     19  C   UNL     1      -0.437  10.586  20.641  0.00  0.00    +0.000 A 
ATOM     20  F   UNL     1      -0.564  11.135  21.859  0.00  0.00    +0.000 F 
ATOM     21  C   UNL     1       0.665   9.769  20.351  0.00  0.00    +0.000 A 
ATOM     22  C   UNL     1       1.671   9.603  21.461  0.00  0.00    +0.000 C 
ATOM     23  C   UNL     1       0.767   9.169  19.064  0.00  0.00    +0.000 A 
ATOM     24  C   UNL     1      -0.260   9.477  18.132  0.00  0.00    +0.000 A 
BRANCH  17  29
ATOM     25  C   UNL     1      -3.850  10.226  14.140  0.00  0.00    +0.000 C 
ATOM     26  C   UNL     1      -3.472  10.607  15.518  0.00  0.00    +0.000 A 
ATOM     27  N   UNL     1      -4.028  11.497  16.301  0.00  0.00    +0.000 NA
ATOM     28  N   UNL     1      -3.323  11.518  17.485  0.00  0.00    +0.000 NA
ATOM     29  C   UNL     1      -2.340  10.642  17.407  0.00  0.00    +0.000 A 
ATOM     30  N   UNL     1      -2.416  10.041  16.172  0.00  0.00    +0.000 N 
ATOM     31  H   UNL     1      -1.814   9.318  15.814  0.00  0.00    +0.000 HD
ENDBRANCH  17  29
ENDBRANCH   1  23
TORSDOF 2
ENDMDL
MODEL 6
REMARK VINA RESULT:      -9.3      4.636      8.224
REMARK  Name = 
REMARK  4 active torsions:
REMARK  status: ('A' for Active; 'I' for Inactive)
REMARK    1  A    between atoms: C_1  and  C_2
REMARK    2  A    between atoms: C_5  and  C_6
REMARK    3  A    between atoms: C_10  and  C_11
REMARK    4  A    between atoms: C_12  and  C_13
REMARK                            x       y       z     vdW  Elec       q    Type
REMARK                         _______ _______ _______ _____ _____    ______ ____
ROOT
ATOM      1  C   UNL     1       1.640   9.441  18.674  0.00  0.00    +0.000 A 
ATOM      2  C   UNL     1       2.306   8.807  17.587  0.00  0.00    +0.000 A 
ATOM      3  C   UNL     1       2.719   7.456  17.624  0.00  0.00    +0.000 A 
ATOM      4  C   UNL     1       2.498   6.735  18.780  0.00  0.00    +0.000 A 
ATOM      5  C   UNL     1       1.830   7.343  19.833  0.00  0.00    +0.000 A 
ATOM      6  C   UNL     1       1.355   8.636  19.785  0.00  0.00    +0.000 A 
ATOM      7  N   UNL     1       1.740   6.489  20.913  0.00  0.00    +0.000 N 
ATOM      8  C   UNL     1       2.342   5.276  20.644  0.00  0.00    +0.000 C 
ATOM      9  O   UNL     1       2.429   4.359  21.447  0.00  0.00    +0.000 OA
ATOM     10  C   UNL     1       2.852   5.311  19.172  0.00  0.00    +0.000 C 
ATOM     11  C   UNL     1       2.077   4.282  18.340  0.00  0.00    +0.000 C 
ATOM     12  C   UNL     1       2.527   2.863  18.665  0.00  0.00    +0.000 C 
ATOM     13  O   UNL     1       3.938   2.739  18.499  0.00  0.00    +0.000 OA
ATOM     14  C   UNL     1       4.665   3.571  19.401  0.00  0.00    +0.000 C 
ATOM     15  C   UNL     1       4.361   5.042  19.132  0.00  0.00    +0.000 C 
ATOM     16  H   UNL     1       1.347   6.714  21.813  0.00  0.00    +0.000 HD
ENDROOT
BRANCH   1  23
ATOM     17  C   UNL     1       1.995  13.255  18.431  0.00  0.00    +0.000 A 
ATOM     18  C   UNL     1       0.675  13.673  18.573  0.00  0.00    +0.000 A 
ATOM     19  C   UNL     1      -0.330  12.739  18.752  0.00  0.00    +0.000 A 
ATOM     20  F   UNL     1      -1.585  13.198  18.882  0.00  0.00    +0.000 F 
ATOM     21  C   UNL     1      -0.078  11.361  18.817  0.00  0.00    +0.000 A 
ATOM     22  C   UNL     1      -1.277  10.483  19.076  0.00  0.00    +0.000 C 
ATOM     23  C   UNL     1       1.254  10.888  18.644  0.00  0.00    +0.000 A 
ATOM     24  C   UNL     1       2.261  11.872  18.451  0.00  0.00    +0.000 A 
BRANCH  17  29
ATOM     25  C   UNL     1       6.556  15.094  17.712  0.00  0.00    +0.000 C 
ATOM     26  C   UNL     1       5.095  15.054  17.947  0.00  0.00    +0.000 A 
ATOM     27  N   UNL     1       4.270  16.055  18.125  0.00  0.00    +0.000 NA
ATOM     28  N   UNL     1       3.010  15.532  18.324  0.00  0.00    +0.000 NA
ATOM     29  C   UNL     1       3.085  14.217  18.269  0.00  0.00    +0.000 A 
ATOM     30  N   UNL     1       4.396  13.885  18.021  0.00  0.00    +0.000 N 
ATOM     31  H   UNL     1       4.774  12.958  17.910  0.00  0.00    +0.000 HD
ENDBRANCH  17  29
ENDBRANCH   1  23
TORSDOF 2
ENDMDL
MODEL 7
REMARK VINA RESULT:      -9.2      4.463      8.874
REMARK  Name = 
REMARK  4 active torsions:
REMARK  status: ('A' for Active; 'I' for Inactive)
REMARK    1  A    between atoms: C_1  and  C_2
REMARK    2  A    between atoms: C_5  and  C_6
REMARK    3  A    between atoms: C_10  and  C_11
REMARK    4  A    between atoms: C_12  and  C_13
REMARK                            x       y       z     vdW  Elec       q    Type
REMARK                         _______ _______ _______ _____ _____    ______ ____
ROOT
ATOM      1  C   UNL     1       1.844   8.279  18.916  0.00  0.00    +0.000 A 
ATOM      2  C   UNL     1       2.645   8.591  17.781  0.00  0.00    +0.000 A 
ATOM      3  C   UNL     1       3.683   7.749  17.321  0.00  0.00    +0.000 A 
ATOM      4  C   UNL     1       3.952   6.595  18.029  0.00  0.00    +0.000 A 
ATOM      5  C   UNL     1       3.159   6.278  19.122  0.00  0.00    +0.000 A 
ATOM      6  C   UNL     1       2.096   7.050  19.539  0.00  0.00    +0.000 A 
ATOM      7  N   UNL     1       3.601   5.118  19.726  0.00  0.00    +0.000 N 
ATOM      8  C   UNL     1       4.707   4.605  19.077  0.00  0.00    +0.000 C 
ATOM      9  O   UNL     1       5.310   3.605  19.434  0.00  0.00    +0.000 OA
ATOM     10  C   UNL     1       5.006   5.515  17.849  0.00  0.00    +0.000 C 
ATOM     11  C   UNL     1       4.786   4.716  16.558  0.00  0.00    +0.000 C 
ATOM     12  C   UNL     1       5.914   3.716  16.335  0.00  0.00    +0.000 C 
ATOM     13  O   UNL     1       7.177   4.379  16.351  0.00  0.00    +0.000 OA
ATOM     14  C   UNL     1       7.459   4.975  17.617  0.00  0.00    +0.000 C 
ATOM     15  C   UNL     1       6.436   6.061  17.934  0.00  0.00    +0.000 C 
ATOM     16  H   UNL     1       3.225   4.710  20.568  0.00  0.00    +0.000 HD
ENDROOT
BRANCH   1  23
ATOM     17  C   UNL     1      -1.299  10.483  18.942  0.00  0.00    +0.000 A 
ATOM     18  C   UNL     1      -1.300  10.961  20.249  0.00  0.00    +0.000 A 
ATOM     19  C   UNL     1      -0.294  10.586  21.123  0.00  0.00    +0.000 A 
ATOM     20  F   UNL     1      -0.346  11.076  22.372  0.00  0.00    +0.000 F 
ATOM     21  C   UNL     1       0.759   9.741  20.744  0.00  0.00    +0.000 A 
ATOM     22  C   UNL     1       1.804   9.479  21.799  0.00  0.00    +0.000 C 
ATOM     23  C   UNL     1       0.782   9.205  19.426  0.00  0.00    +0.000 A 
ATOM     24  C   UNL     1      -0.271   9.600  18.557  0.00  0.00    +0.000 A 
BRANCH  17  29
ATOM     25  C   UNL     1      -5.577  12.237  17.120  0.00  0.00    +0.000 C 
ATOM     26  C   UNL     1      -4.215  11.660  17.154  0.00  0.00    +0.000 A 
ATOM     27  N   UNL     1      -3.469  11.269  16.152  0.00  0.00    +0.000 NA
ATOM     28  N   UNL     1      -2.287  10.784  16.670  0.00  0.00    +0.000 NA
ATOM     29  C   UNL     1      -2.330  10.882  17.985  0.00  0.00    +0.000 A 
ATOM     30  N   UNL     1      -3.539  11.444  18.320  0.00  0.00    +0.000 N 
ATOM     31  H   UNL     1      -3.867  11.661  19.247  0.00  0.00    +0.000 HD
ENDBRANCH  17  29
ENDBRANCH   1  23
TORSDOF 2
ENDMDL
MODEL 8
REMARK VINA RESULT:      -9.2      4.365      8.991
REMARK  Name = 
REMARK  4 active torsions:
REMARK  status: ('A' for Active; 'I' for Inactive)
REMARK    1  A    between atoms: C_1  and  C_2
REMARK    2  A    between atoms: C_5  and  C_6
REMARK    3  A    between atoms: C_10  and  C_11
REMARK    4  A    between atoms: C_12  and  C_13
REMARK                            x       y       z     vdW  Elec       q    Type
REMARK                         _______ _______ _______ _____ _____    ______ ____
ROOT
ATOM      1  C   UNL     1       1.131   9.238  20.010  0.00  0.00    +0.000 A 
ATOM      2  C   UNL     1       1.520   9.175  18.641  0.00  0.00    +0.000 A 
ATOM      3  C   UNL     1       2.124   8.033  18.068  0.00  0.00    +0.000 A 
ATOM      4  C   UNL     1       2.382   6.949  18.884  0.00  0.00    +0.000 A 
ATOM      5  C   UNL     1       1.985   6.999  20.211  0.00  0.00    +0.000 A 
ATOM      6  C   UNL     1       1.327   8.075  20.768  0.00  0.00    +0.000 A 
ATOM      7  N   UNL     1       2.361   5.851  20.878  0.00  0.00    +0.000 N 
ATOM      8  C   UNL     1       3.029   4.981  20.039  0.00  0.00    +0.000 C 
ATOM      9  O   UNL     1       3.497   3.909  20.392  0.00  0.00    +0.000 OA
ATOM     10  C   UNL     1       3.052   5.612  18.615  0.00  0.00    +0.000 C 
ATOM     11  C   UNL     1       2.224   4.744  17.660  0.00  0.00    +0.000 C 
ATOM     12  C   UNL     1       2.962   3.457  17.311  0.00  0.00    +0.000 C 
ATOM     13  O   UNL     1       4.256   3.752  16.788  0.00  0.00    +0.000 OA
ATOM     14  C   UNL     1       5.089   4.408  17.743  0.00  0.00    +0.000 C 
ATOM     15  C   UNL     1       4.498   5.760  18.127  0.00  0.00    +0.000 C 
ATOM     16  H   UNL     1       2.235   5.670  21.861  0.00  0.00    +0.000 HD
ENDROOT
BRANCH   1  23
ATOM     17  C   UNL     1       0.163  12.926  20.444  0.00  0.00    +0.000 A 
ATOM     18  C   UNL     1      -0.524  12.899  21.655  0.00  0.00    +0.000 A 
ATOM     19  C   UNL     1      -0.674  11.704  22.337  0.00  0.00    +0.000 A 
ATOM     20  F   UNL     1      -1.346  11.736  23.499  0.00  0.00    +0.000 F 
ATOM     21  C   UNL     1      -0.142  10.494  21.868  0.00  0.00    +0.000 A 
ATOM     22  C   UNL     1      -0.344   9.296  22.761  0.00  0.00    +0.000 C 
ATOM     23  C   UNL     1       0.539  10.472  20.619  0.00  0.00    +0.000 A 
ATOM     24  C   UNL     1       0.667  11.713  19.938  0.00  0.00    +0.000 A 
BRANCH  17  29
ATOM     25  C   UNL     1      -0.812  17.240  18.178  0.00  0.00    +0.000 C 
ATOM     26  C   UNL     1      -0.043  16.092  18.708  0.00  0.00    +0.000 A 
ATOM     27  N   UNL     1       1.241  15.856  18.611  0.00  0.00    +0.000 NA
ATOM     28  N   UNL     1       1.498  14.658  19.242  0.00  0.00    +0.000 NA
ATOM     29  C   UNL     1       0.364  14.176  19.712  0.00  0.00    +0.000 A 
ATOM     30  N   UNL     1      -0.631  15.070  19.395  0.00  0.00    +0.000 N 
ATOM     31  H   UNL     1      -1.607  14.995  19.628  0.00  0.00    +0.000 HD
ENDBRANCH  17  29
ENDBRANCH   1  23
TORSDOF 2
ENDMDL
MODEL 9
REMARK VINA RESULT:      -9.1      4.537      9.588
REMARK  Name = 
REMARK  4 active torsions:
REMARK  status: ('A' for Active; 'I' for Inactive)
REMARK    1  A    between atoms: C_1  and  C_2
REMARK    2  A    between atoms: C_5  and  C_6
REMARK    3  A    between atoms: C_10  and  C_11
REMARK    4  A    between atoms: C_12  and  C_13
REMARK                            x       y       z     vdW  Elec       q    Type
REMARK                         _______ _______ _______ _____ _____    ______ ____
ROOT
ATOM      1  C   UNL     1       1.156   9.851  18.988  0.00  0.00    +0.000 A 
ATOM      2  C   UNL     1       1.820   9.468  17.788  0.00  0.00    +0.000 A 
ATOM      3  C   UNL     1       2.414   8.198  17.613  0.00  0.00    +0.000 A 
ATOM      4  C   UNL     1       2.380   7.308  18.668  0.00  0.00    +0.000 A 
ATOM      5  C   UNL     1       1.714   7.670  19.829  0.00  0.00    +0.000 A 
ATOM      6  C   UNL     1       1.066   8.875  19.989  0.00  0.00    +0.000 A 
ATOM      7  N   UNL     1       1.821   6.677  20.783  0.00  0.00    +0.000 N 
ATOM      8  C   UNL     1       2.560   5.610  20.314  0.00  0.00    +0.000 C 
ATOM      9  O   UNL     1       2.830   4.618  20.975  0.00  0.00    +0.000 OA
ATOM     10  C   UNL     1       2.952   5.911  18.837  0.00  0.00    +0.000 C 
ATOM     11  C   UNL     1       2.264   4.899  17.912  0.00  0.00    +0.000 C 
ATOM     12  C   UNL     1       2.925   3.529  18.011  0.00  0.00    +0.000 C 
ATOM     13  O   UNL     1       4.324   3.633  17.752  0.00  0.00    +0.000 OA
ATOM     14  C   UNL     1       4.996   4.437  18.721  0.00  0.00    +0.000 C 
ATOM     15  C   UNL     1       4.476   5.870  18.677  0.00  0.00    +0.000 C 
ATOM     16  H   UNL     1       1.468   6.724  21.726  0.00  0.00    +0.000 HD
ENDROOT
BRANCH   1  23
ATOM     17  C   UNL     1      -1.369  12.591  19.910  0.00  0.00    +0.000 A 
ATOM     18  C   UNL     1      -0.660  13.747  19.599  0.00  0.00    +0.000 A 
ATOM     19  C   UNL     1       0.623  13.655  19.088  0.00  0.00    +0.000 A 
ATOM     20  F   UNL     1       1.260  14.802  18.806  0.00  0.00    +0.000 F 
ATOM     21  C   UNL     1       1.253  12.425  18.847  0.00  0.00    +0.000 A 
ATOM     22  C   UNL     1       2.628  12.500  18.233  0.00  0.00    +0.000 C 
ATOM     23  C   UNL     1       0.576  11.219  19.182  0.00  0.00    +0.000 A 
ATOM     24  C   UNL     1      -0.735  11.349  19.714  0.00  0.00    +0.000 A 
BRANCH  17  29
ATOM     25  C   UNL     1      -6.328  12.905  20.014  0.00  0.00    +0.000 C 
ATOM     26  C   UNL     1      -4.934  12.784  20.495  0.00  0.00    +0.000 A 
ATOM     27  N   UNL     1      -4.498  12.714  21.727  0.00  0.00    +0.000 NA
ATOM     28  N   UNL     1      -3.123  12.628  21.685  0.00  0.00    +0.000 NA
ATOM     29  C   UNL     1      -2.737  12.652  20.424  0.00  0.00    +0.000 A 
ATOM     30  N   UNL     1      -3.866  12.741  19.645  0.00  0.00    +0.000 N 
ATOM     31  H   UNL     1      -3.906  12.765  18.639  0.00  0.00    +0.000 HD
ENDBRANCH  17  29
ENDBRANCH   1  23
TORSDOF 2
ENDMDL
