MODEL 1
REMARK VINA RESULT:      -8.7      0.000      0.000
REMARK  Name = 
REMARK  7 active torsions:
REMARK  status: ('A' for Active; 'I' for Inactive)
REMARK    1  A    between atoms: C_2  and  O_3
REMARK    2  A    between atoms: C_2  and  C_4
REMARK    3  A    between atoms: N_7  and  C_8
REMARK    4  A    between atoms: C_13  and  N_14
REMARK    5  A    between atoms: C_18  and  O_19
REMARK    6  A    between atoms: C_22  and  C_23
REMARK    7  A    between atoms: C_23  and  O_25
REMARK                            x       y       z     vdW  Elec       q    Type
REMARK                         _______ _______ _______ _____ _____    ______ ____
ROOT
ATOM      1  C   UNL     1       2.505   7.205  19.275  0.00  0.00    +0.000 A 
ATOM      2  C   UNL     1       3.330   7.502  17.904  0.00  0.00    +0.000 A 
ATOM      3  C   UNL     1       4.167   6.684  16.999  0.00  0.00    +0.000 A 
ATOM      4  C   UNL     1       3.982   5.607  17.904  0.00  0.00    +0.000 A 
ATOM      5  C   UNL     1       3.950   5.482  19.324  0.00  0.00    +0.000 A 
ATOM      6  C   UNL     1       2.825   6.017  19.859  0.00  0.00    +0.000 A 
ATOM      7  N   UNL     1       3.337   4.430  17.465  0.00  0.00    +0.000 NA
ATOM      8  C   UNL     1       4.232   3.718  16.930  0.00  0.00    +0.000 A 
ATOM      9  C   UNL     1       5.198   4.340  16.157  0.00  0.00    +0.000 A 
ATOM     10  N   UNL     1       6.078   3.733  15.424  0.00  0.00    +0.000 NA
ATOM     11  C   UNL     1       6.294   4.647  14.447  0.00  0.00    +0.000 A 
ATOM     12  N   UNL     1       5.830   5.940  14.788  0.00  0.00    +0.000 NA
ATOM     13  N   UNL     1       5.086   5.729  16.019  0.00  0.00    +0.000 N 
ENDROOT
BRANCH   1  17
ATOM     14  C   UNL     1       0.494   9.193  21.802  0.00  0.00    +0.000 A 
ATOM     15  C   UNL     1       0.294   9.894  20.583  0.00  0.00    +0.000 A 
ATOM     16  C   UNL     1       0.894   9.198  19.551  0.00  0.00    +0.000 A 
ATOM     17  N   UNL     1       1.589   8.111  20.041  0.00  0.00    +0.000 N 
ATOM     18  C   UNL     1       1.240   8.061  21.435  0.00  0.00    +0.000 A 
BRANCH  14  20
ATOM     19  O   UNL     1       0.561   9.488  24.166  0.00  0.00    +0.000 OA
ATOM     20  C   UNL     1      -0.005   9.705  23.107  0.00  0.00    +0.000 C 
BRANCH  20  21
ATOM     21  O   UNL     1      -1.173  10.400  23.081  0.00  0.00    +0.000 OA
ATOM     22  H   UNL     1      -1.764  10.101  22.378  0.00  0.00    +0.000 HD
ENDBRANCH  20  21
ENDBRANCH  14  20
ENDBRANCH   1  17
BRANCH   6  23
ATOM     23  N   UNL     1       1.903   5.092  20.552  0.00  0.00    +0.000 N 
ATOM     24  O   UNL     1       0.818   4.828  20.024  0.00  0.00    +0.000 OA
ATOM     25  O   UNL     1       2.311   4.577  21.606  0.00  0.00    +0.000 OA
ENDBRANCH   6  23
BRANCH   8  26
ATOM     26  O   UNL     1       4.497   2.517  17.432  0.00  0.00    +0.000 OA
ATOM     27  H   UNL     1       4.692   1.969  16.651  0.00  0.00    +0.000 HD
ENDBRANCH   8  26
BRANCH  11  28
ATOM     28  C   UNL     1       6.771   4.007  13.119  0.00  0.00    +0.000 C 
ATOM     29  O   UNL     1       7.475   4.553  12.284  0.00  0.00    +0.000 OA
BRANCH  28  30
ATOM     30  O   UNL     1       6.237   2.754  12.782  0.00  0.00    +0.000 OA
ATOM     31  H   UNL     1       6.826   2.041  12.458  0.00  0.00    +0.000 HD
ENDBRANCH  28  30
ENDBRANCH  11  28
TORSDOF 7
ENDMDL
MODEL 2
REMARK VINA RESULT:      -8.1      0.818      1.300
REMARK  Name = 
REMARK  7 active torsions:
REMARK  status: ('A' for Active; 'I' for Inactive)
REMARK    1  A    between atoms: C_2  and  O_3
REMARK    2  A    between atoms: C_2  and  C_4
REMARK    3  A    between atoms: N_7  and  C_8
REMARK    4  A    between atoms: C_13  and  N_14
REMARK    5  A    between atoms: C_18  and  O_19
REMARK    6  A    between atoms: C_22  and  C_23
REMARK    7  A    between atoms: C_23  and  O_25
REMARK                            x       y       z     vdW  Elec       q    Type
REMARK                         _______ _______ _______ _____ _____    ______ ____
ROOT
ATOM      1  C   UNL     1       2.540   7.103  19.344  0.00  0.00    +0.000 A 
ATOM      2  C   UNL     1       3.360   7.416  17.972  0.00  0.00    +0.000 A 
ATOM      3  C   UNL     1       4.183   6.607  17.048  0.00  0.00    +0.000 A 
ATOM      4  C   UNL     1       3.994   5.516  17.934  0.00  0.00    +0.000 A 
ATOM      5  C   UNL     1       3.970   5.366  19.352  0.00  0.00    +0.000 A 
ATOM      6  C   UNL     1       2.853   5.901  19.904  0.00  0.00    +0.000 A 
ATOM      7  N   UNL     1       3.336   4.353  17.478  0.00  0.00    +0.000 NA
ATOM      8  C   UNL     1       4.221   3.643  16.924  0.00  0.00    +0.000 A 
ATOM      9  C   UNL     1       5.188   4.270  16.156  0.00  0.00    +0.000 A 
ATOM     10  N   UNL     1       6.058   3.669  15.407  0.00  0.00    +0.000 NA
ATOM     11  C   UNL     1       6.275   4.599  14.445  0.00  0.00    +0.000 A 
ATOM     12  N   UNL     1       5.825   5.889  14.813  0.00  0.00    +0.000 NA
ATOM     13  N   UNL     1       5.087   5.662  16.045  0.00  0.00    +0.000 N 
ENDROOT
BRANCH   1  17
ATOM     14  C   UNL     1       0.132   9.702  20.694  0.00  0.00    +0.000 A 
ATOM     15  C   UNL     1       0.216   8.743  21.738  0.00  0.00    +0.000 A 
ATOM     16  C   UNL     1       1.159   7.789  21.408  0.00  0.00    +0.000 A 
ATOM     17  N   UNL     1       1.637   8.002  20.131  0.00  0.00    +0.000 N 
ATOM     18  C   UNL     1       1.065   9.262  19.741  0.00  0.00    +0.000 A 
BRANCH  14  20
ATOM     19  O   UNL     1      -1.101  11.439  21.764  0.00  0.00    +0.000 OA
ATOM     20  C   UNL     1      -0.822  10.843  20.735  0.00  0.00    +0.000 C 
BRANCH  20  21
ATOM     21  O   UNL     1      -1.426  11.173  19.564  0.00  0.00    +0.000 OA
ATOM     22  H   UNL     1      -0.820  11.597  18.943  0.00  0.00    +0.000 HD
ENDBRANCH  20  21
ENDBRANCH  14  20
ENDBRANCH   1  17
BRANCH   6  23
ATOM     23  N   UNL     1       1.928   4.972  20.586  0.00  0.00    +0.000 N 
ATOM     24  O   UNL     1       0.857   4.691  20.038  0.00  0.00    +0.000 OA
ATOM     25  O   UNL     1       2.319   4.471  21.653  0.00  0.00    +0.000 OA
ENDBRANCH   6  23
BRANCH   8  26
ATOM     26  O   UNL     1       4.479   2.431  17.403  0.00  0.00    +0.000 OA
ATOM     27  H   UNL     1       5.038   2.018  16.721  0.00  0.00    +0.000 HD
ENDBRANCH   8  26
BRANCH  11  28
ATOM     28  C   UNL     1       6.738   3.978  13.103  0.00  0.00    +0.000 C 
ATOM     29  O   UNL     1       7.441   4.533  12.273  0.00  0.00    +0.000 OA
BRANCH  28  30
ATOM     30  O   UNL     1       6.191   2.736  12.747  0.00  0.00    +0.000 OA
ATOM     31  H   UNL     1       5.714   2.636  11.897  0.00  0.00    +0.000 HD
ENDBRANCH  28  30
ENDBRANCH  11  28
TORSDOF 7
ENDMDL
MODEL 3
REMARK VINA RESULT:      -7.8      0.791      1.024
REMARK  Name = 
REMARK  7 active torsions:
REMARK  status: ('A' for Active; 'I' for Inactive)
REMARK    1  A    between atoms: C_2  and  O_3
REMARK    2  A    between atoms: C_2  and  C_4
REMARK    3  A    between atoms: N_7  and  C_8
REMARK    4  A    between atoms: C_13  and  N_14
REMARK    5  A    between atoms: C_18  and  O_19
REMARK    6  A    between atoms: C_22  and  C_23
REMARK    7  A    between atoms: C_23  and  O_25
REMARK                            x       y       z     vdW  Elec       q    Type
REMARK                         _______ _______ _______ _____ _____    ______ ____
ROOT
ATOM      1  C   UNL     1       2.425   6.796  19.695  0.00  0.00    +0.000 A 
ATOM      2  C   UNL     1       3.241   7.219  18.351  0.00  0.00    +0.000 A 
ATOM      3  C   UNL     1       4.085   6.493  17.378  0.00  0.00    +0.000 A 
ATOM      4  C   UNL     1       3.920   5.341  18.190  0.00  0.00    +0.000 A 
ATOM      5  C   UNL     1       3.896   5.097  19.594  0.00  0.00    +0.000 A 
ATOM      6  C   UNL     1       2.765   5.568  20.176  0.00  0.00    +0.000 A 
ATOM      7  N   UNL     1       3.291   4.195  17.654  0.00  0.00    +0.000 NA
ATOM      8  C   UNL     1       4.194   3.544  17.059  0.00  0.00    +0.000 A 
ATOM      9  C   UNL     1       5.147   4.244  16.338  0.00  0.00    +0.000 A 
ATOM     10  N   UNL     1       6.033   3.714  15.554  0.00  0.00    +0.000 NA
ATOM     11  C   UNL     1       6.231   4.710  14.657  0.00  0.00    +0.000 A 
ATOM     12  N   UNL     1       5.750   5.963  15.107  0.00  0.00    +0.000 NA
ATOM     13  N   UNL     1       5.014   5.638  16.318  0.00  0.00    +0.000 N 
ENDROOT
BRANCH   1  17
ATOM     14  C   UNL     1       0.524   9.434  21.645  0.00  0.00    +0.000 A 
ATOM     15  C   UNL     1      -0.382   8.342  21.580  0.00  0.00    +0.000 A 
ATOM     16  C   UNL     1       0.242   7.265  20.981  0.00  0.00    +0.000 A 
ATOM     17  N   UNL     1       1.499   7.620  20.537  0.00  0.00    +0.000 N 
ATOM     18  C   UNL     1       1.701   8.946  21.055  0.00  0.00    +0.000 A 
BRANCH  14  20
ATOM     19  O   UNL     1       0.410  11.815  21.663  0.00  0.00    +0.000 OA
ATOM     20  C   UNL     1       0.138  10.756  22.208  0.00  0.00    +0.000 C 
BRANCH  20  21
ATOM     21  O   UNL     1      -0.499  10.745  23.407  0.00  0.00    +0.000 OA
ATOM     22  H   UNL     1      -1.328  10.249  23.380  0.00  0.00    +0.000 HD
ENDBRANCH  20  21
ENDBRANCH  14  20
ENDBRANCH   1  17
BRANCH   6  23
ATOM     23  N   UNL     1       1.861   4.574  20.791  0.00  0.00    +0.000 N 
ATOM     24  O   UNL     1       0.839   4.242  20.181  0.00  0.00    +0.000 OA
ATOM     25  O   UNL     1       2.222   4.076  21.870  0.00  0.00    +0.000 OA
ENDBRANCH   6  23
BRANCH   8  26
ATOM     26  O   UNL     1       4.479   2.310  17.457  0.00  0.00    +0.000 OA
ATOM     27  H   UNL     1       4.879   2.428  18.336  0.00  0.00    +0.000 HD
ENDBRANCH   8  26
BRANCH  11  28
ATOM     28  C   UNL     1       6.712   4.191  13.279  0.00  0.00    +0.000 C 
ATOM     29  O   UNL     1       7.426   4.806  12.502  0.00  0.00    +0.000 OA
BRANCH  28  30
ATOM     30  O   UNL     1       6.170   2.980  12.824  0.00  0.00    +0.000 OA
ATOM     31  H   UNL     1       5.198   2.859  12.790  0.00  0.00    +0.000 HD
ENDBRANCH  28  30
ENDBRANCH  11  28
TORSDOF 7
ENDMDL
MODEL 4
REMARK VINA RESULT:      -7.8      1.206      8.605
REMARK  Name = 
REMARK  7 active torsions:
REMARK  status: ('A' for Active; 'I' for Inactive)
REMARK    1  A    between atoms: C_2  and  O_3
REMARK    2  A    between atoms: C_2  and  C_4
REMARK    3  A    between atoms: N_7  and  C_8
REMARK    4  A    between atoms: C_13  and  N_14
REMARK    5  A    between atoms: C_18  and  O_19
REMARK    6  A    between atoms: C_22  and  C_23
REMARK    7  A    between atoms: C_23  and  O_25
REMARK                            x       y       z     vdW  Elec       q    Type
REMARK                         _______ _______ _______ _____ _____    ______ ____
ROOT
ATOM      1  C   UNL     1       4.407   5.492  16.789  0.00  0.00    +0.000 A 
ATOM      2  C   UNL     1       3.878   7.003  17.087  0.00  0.00    +0.000 A 
ATOM      3  C   UNL     1       3.001   7.612  18.110  0.00  0.00    +0.000 A 
ATOM      4  C   UNL     1       2.789   6.305  18.617  0.00  0.00    +0.000 A 
ATOM      5  C   UNL     1       2.592   5.020  18.031  0.00  0.00    +0.000 A 
ATOM      6  C   UNL     1       3.728   4.531  17.475  0.00  0.00    +0.000 A 
ATOM      7  N   UNL     1       3.181   5.997  19.938  0.00  0.00    +0.000 NA
ATOM      8  C   UNL     1       2.223   6.350  20.680  0.00  0.00    +0.000 A 
ATOM      9  C   UNL     1       1.555   7.527  20.384  0.00  0.00    +0.000 A 
ATOM     10  N   UNL     1       0.664   8.094  21.134  0.00  0.00    +0.000 NA
ATOM     11  C   UNL     1       0.817   9.398  20.798  0.00  0.00    +0.000 A 
ATOM     12  N   UNL     1       1.531   9.577  19.589  0.00  0.00    +0.000 NA
ATOM     13  N   UNL     1       2.022   8.245  19.275  0.00  0.00    +0.000 N 
ENDROOT
BRANCH   1  17
ATOM     14  C   UNL     1       6.332   4.176  13.799  0.00  0.00    +0.000 A 
ATOM     15  C   UNL     1       7.326   4.816  14.587  0.00  0.00    +0.000 A 
ATOM     16  C   UNL     1       6.762   5.247  15.773  0.00  0.00    +0.000 A 
ATOM     17  N   UNL     1       5.400   5.023  15.770  0.00  0.00    +0.000 N 
ATOM     18  C   UNL     1       5.166   4.257  14.577  0.00  0.00    +0.000 A 
BRANCH  14  20
ATOM     19  O   UNL     1       7.277   4.235  11.612  0.00  0.00    +0.000 OA
ATOM     20  C   UNL     1       6.619   3.631  12.445  0.00  0.00    +0.000 C 
BRANCH  20  21
ATOM     21  O   UNL     1       6.065   2.427  12.144  0.00  0.00    +0.000 OA
ATOM     22  H   UNL     1       5.856   2.343  11.204  0.00  0.00    +0.000 HD
ENDBRANCH  20  21
ENDBRANCH  14  20
ENDBRANCH   1  17
BRANCH   6  23
ATOM     23  N   UNL     1       4.289   3.297  18.064  0.00  0.00    +0.000 N 
ATOM     24  O   UNL     1       3.842   2.206  17.695  0.00  0.00    +0.000 OA
ATOM     25  O   UNL     1       5.235   3.433  18.856  0.00  0.00    +0.000 OA
ENDBRANCH   6  23
BRANCH   8  26
ATOM     26  O   UNL     1       1.605   5.441  21.425  0.00  0.00    +0.000 OA
ATOM     27  H   UNL     1       1.464   4.691  20.821  0.00  0.00    +0.000 HD
ENDBRANCH   8  26
BRANCH  11  28
ATOM     28  C   UNL     1       0.388  10.365  21.930  0.00  0.00    +0.000 C 
ATOM     29  O   UNL     1       0.110  11.545  21.784  0.00  0.00    +0.000 OA
BRANCH  28  30
ATOM     30  O   UNL     1       0.460   9.885  23.247  0.00  0.00    +0.000 OA
ATOM     31  H   UNL     1       1.331   9.692  23.651  0.00  0.00    +0.000 HD
ENDBRANCH  28  30
ENDBRANCH  11  28
TORSDOF 7
ENDMDL
MODEL 5
REMARK VINA RESULT:      -7.3      1.534      8.616
REMARK  Name = 
REMARK  7 active torsions:
REMARK  status: ('A' for Active; 'I' for Inactive)
REMARK    1  A    between atoms: C_2  and  O_3
REMARK    2  A    between atoms: C_2  and  C_4
REMARK    3  A    between atoms: N_7  and  C_8
REMARK    4  A    between atoms: C_13  and  N_14
REMARK    5  A    between atoms: C_18  and  O_19
REMARK    6  A    between atoms: C_22  and  C_23
REMARK    7  A    between atoms: C_23  and  O_25
REMARK                            x       y       z     vdW  Elec       q    Type
REMARK                         _______ _______ _______ _____ _____    ______ ____
ROOT
ATOM      1  C   UNL     1       4.301   5.832  16.809  0.00  0.00    +0.000 A 
ATOM      2  C   UNL     1       3.736   7.358  16.853  0.00  0.00    +0.000 A 
ATOM      3  C   UNL     1       2.822   8.101  17.747  0.00  0.00    +0.000 A 
ATOM      4  C   UNL     1       2.622   6.885  18.449  0.00  0.00    +0.000 A 
ATOM      5  C   UNL     1       2.464   5.519  18.070  0.00  0.00    +0.000 A 
ATOM      6  C   UNL     1       3.623   4.975  17.623  0.00  0.00    +0.000 A 
ATOM      7  N   UNL     1       2.986   6.799  19.811  0.00  0.00    +0.000 NA
ATOM      8  C   UNL     1       2.002   7.242  20.467  0.00  0.00    +0.000 A 
ATOM      9  C   UNL     1       1.320   8.342  19.973  0.00  0.00    +0.000 A 
ATOM     10  N   UNL     1       0.400   9.000  20.604  0.00  0.00    +0.000 NA
ATOM     11  C   UNL     1       0.536  10.238  20.070  0.00  0.00    +0.000 A 
ATOM     12  N   UNL     1       1.277  10.240  18.864  0.00  0.00    +0.000 NA
ATOM     13  N   UNL     1       1.801   8.887  18.776  0.00  0.00    +0.000 N 
ENDROOT
BRANCH   1  17
ATOM     14  C   UNL     1       6.358   4.287  14.023  0.00  0.00    +0.000 A 
ATOM     15  C   UNL     1       7.332   4.741  14.952  0.00  0.00    +0.000 A 
ATOM     16  C   UNL     1       6.698   5.232  16.077  0.00  0.00    +0.000 A 
ATOM     17  N   UNL     1       5.329   5.230  15.900  0.00  0.00    +0.000 N 
ATOM     18  C   UNL     1       5.130   4.538  14.656  0.00  0.00    +0.000 A 
BRANCH  14  20
ATOM     19  O   UNL     1       7.358   4.363  11.862  0.00  0.00    +0.000 OA
ATOM     20  C   UNL     1       6.724   3.732  12.693  0.00  0.00    +0.000 C 
BRANCH  20  21
ATOM     21  O   UNL     1       6.271   2.483  12.409  0.00  0.00    +0.000 OA
ATOM     22  H   UNL     1       6.465   2.219  11.500  0.00  0.00    +0.000 HD
ENDBRANCH  20  21
ENDBRANCH  14  20
ENDBRANCH   1  17
BRANCH   6  23
ATOM     23  N   UNL     1       4.192   3.863  18.413  0.00  0.00    +0.000 N 
ATOM     24  O   UNL     1       5.126   4.101  19.187  0.00  0.00    +0.000 OA
ATOM     25  O   UNL     1       3.645   2.754  18.298  0.00  0.00    +0.000 OA
ENDBRANCH   6  23
BRANCH   8  26
ATOM     26  O   UNL     1       1.383   6.448  21.332  0.00  0.00    +0.000 OA
ATOM     27  H   UNL     1       1.619   6.812  22.203  0.00  0.00    +0.000 HD
ENDBRANCH   8  26
BRANCH  11  28
ATOM     28  C   UNL     1       0.060  11.361  21.024  0.00  0.00    +0.000 C 
ATOM     29  O   UNL     1       0.346  11.451  22.208  0.00  0.00    +0.000 OA
BRANCH  28  30
ATOM     30  O   UNL     1      -0.889  12.268  20.527  0.00  0.00    +0.000 OA
ATOM     31  H   UNL     1      -1.305  12.112  19.654  0.00  0.00    +0.000 HD
ENDBRANCH  28  30
ENDBRANCH  11  28
TORSDOF 7
ENDMDL
MODEL 6
REMARK VINA RESULT:      -7.1      2.947      4.313
REMARK  Name = 
REMARK  7 active torsions:
REMARK  status: ('A' for Active; 'I' for Inactive)
REMARK    1  A    between atoms: C_2  and  O_3
REMARK    2  A    between atoms: C_2  and  C_4
REMARK    3  A    between atoms: N_7  and  C_8
REMARK    4  A    between atoms: C_13  and  N_14
REMARK    5  A    between atoms: C_18  and  O_19
REMARK    6  A    between atoms: C_22  and  C_23
REMARK    7  A    between atoms: C_23  and  O_25
REMARK                            x       y       z     vdW  Elec       q    Type
REMARK                         _______ _______ _______ _____ _____    ______ ____
ROOT
ATOM      1  C   UNL     1       0.341   9.654  19.096  0.00  0.00    +0.000 A 
ATOM      2  C   UNL     1       1.411   9.251  17.937  0.00  0.00    +0.000 A 
ATOM      3  C   UNL     1       2.508   8.265  17.836  0.00  0.00    +0.000 A 
ATOM      4  C   UNL     1       2.246   7.927  19.188  0.00  0.00    +0.000 A 
ATOM      5  C   UNL     1       1.916   8.666  20.362  0.00  0.00    +0.000 A 
ATOM      6  C   UNL     1       0.650   9.150  20.323  0.00  0.00    +0.000 A 
ATOM      7  N   UNL     1       1.843   6.613  19.513  0.00  0.00    +0.000 NA
ATOM      8  C   UNL     1       2.904   5.941  19.638  0.00  0.00    +0.000 A 
ATOM      9  C   UNL     1       3.944   6.177  18.754  0.00  0.00    +0.000 A 
ATOM     10  N   UNL     1       5.024   5.466  18.659  0.00  0.00    +0.000 NA
ATOM     11  C   UNL     1       5.350   5.642  17.356  0.00  0.00    +0.000 A 
ATOM     12  N   UNL     1       4.686   6.743  16.764  0.00  0.00    +0.000 NA
ATOM     13  N   UNL     1       3.717   7.146  17.770  0.00  0.00    +0.000 N 
ENDROOT
BRANCH   1  17
ATOM     14  C   UNL     1      -2.930  11.509  18.609  0.00  0.00    +0.000 A 
ATOM     15  C   UNL     1      -2.215  12.320  19.530  0.00  0.00    +0.000 A 
ATOM     16  C   UNL     1      -0.946  11.801  19.706  0.00  0.00    +0.000 A 
ATOM     17  N   UNL     1      -0.813  10.608  19.027  0.00  0.00    +0.000 N 
ATOM     18  C   UNL     1      -2.024  10.494  18.261  0.00  0.00    +0.000 A 
BRANCH  14  20
ATOM     19  O   UNL     1      -5.284  11.565  18.982  0.00  0.00    +0.000 OA
ATOM     20  C   UNL     1      -4.343  11.786  18.235  0.00  0.00    +0.000 C 
BRANCH  20  21
ATOM     21  O   UNL     1      -4.559  12.258  16.980  0.00  0.00    +0.000 OA
ATOM     22  H   UNL     1      -5.492  12.229  16.730  0.00  0.00    +0.000 HD
ENDBRANCH  20  21
ENDBRANCH  14  20
ENDBRANCH   1  17
BRANCH   6  23
ATOM     23  N   UNL     1      -0.297   8.642  21.339  0.00  0.00    +0.000 N 
ATOM     24  O   UNL     1      -0.727   7.489  21.226  0.00  0.00    +0.000 OA
ATOM     25  O   UNL     1      -0.554   9.394  22.294  0.00  0.00    +0.000 OA
ENDBRANCH   6  23
BRANCH   8  26
ATOM     26  O   UNL     1       3.180   5.367  20.804  0.00  0.00    +0.000 OA
ATOM     27  H   UNL     1       3.930   4.778  20.610  0.00  0.00    +0.000 HD
ENDBRANCH   8  26
BRANCH  11  28
ATOM     28  C   UNL     1       6.172   4.463  16.777  0.00  0.00    +0.000 C 
ATOM     29  O   UNL     1       7.349   4.513  16.455  0.00  0.00    +0.000 OA
BRANCH  28  30
ATOM     30  O   UNL     1       5.476   3.285  16.467  0.00  0.00    +0.000 OA
ATOM     31  H   UNL     1       5.430   2.556  17.120  0.00  0.00    +0.000 HD
ENDBRANCH  28  30
ENDBRANCH  11  28
TORSDOF 7
ENDMDL
MODEL 7
REMARK VINA RESULT:      -7.0      1.182      8.580
REMARK  Name = 
REMARK  7 active torsions:
REMARK  status: ('A' for Active; 'I' for Inactive)
REMARK    1  A    between atoms: C_2  and  O_3
REMARK    2  A    between atoms: C_2  and  C_4
REMARK    3  A    between atoms: N_7  and  C_8
REMARK    4  A    between atoms: C_13  and  N_14
REMARK    5  A    between atoms: C_18  and  O_19
REMARK    6  A    between atoms: C_22  and  C_23
REMARK    7  A    between atoms: C_23  and  O_25
REMARK                            x       y       z     vdW  Elec       q    Type
REMARK                         _______ _______ _______ _____ _____    ______ ____
ROOT
ATOM      1  C   UNL     1       4.474   5.606  17.091  0.00  0.00    +0.000 A 
ATOM      2  C   UNL     1       3.942   7.081  17.528  0.00  0.00    +0.000 A 
ATOM      3  C   UNL     1       2.951   7.579  18.506  0.00  0.00    +0.000 A 
ATOM      4  C   UNL     1       2.647   6.223  18.794  0.00  0.00    +0.000 A 
ATOM      5  C   UNL     1       2.502   5.039  18.013  0.00  0.00    +0.000 A 
ATOM      6  C   UNL     1       3.691   4.587  17.543  0.00  0.00    +0.000 A 
ATOM      7  N   UNL     1       2.856   5.723  20.098  0.00  0.00    +0.000 NA
ATOM      8  C   UNL     1       1.816   6.009  20.754  0.00  0.00    +0.000 A 
ATOM      9  C   UNL     1       1.218   7.241  20.543  0.00  0.00    +0.000 A 
ATOM     10  N   UNL     1       0.248   7.734  21.247  0.00  0.00    +0.000 NA
ATOM     11  C   UNL     1       0.471   9.065  21.119  0.00  0.00    +0.000 A 
ATOM     12  N   UNL     1       1.341   9.379  20.048  0.00  0.00    +0.000 NA
ATOM     13  N   UNL     1       1.841   8.084  19.615  0.00  0.00    +0.000 N 
ENDROOT
BRANCH   1  17
ATOM     14  C   UNL     1       6.831   4.936  14.196  0.00  0.00    +0.000 A 
ATOM     15  C   UNL     1       7.664   4.836  15.342  0.00  0.00    +0.000 A 
ATOM     16  C   UNL     1       6.891   4.953  16.482  0.00  0.00    +0.000 A 
ATOM     17  N   UNL     1       5.583   5.241  16.151  0.00  0.00    +0.000 N 
ATOM     18  C   UNL     1       5.540   5.121  14.719  0.00  0.00    +0.000 A 
BRANCH  14  20
ATOM     19  O   UNL     1       7.083   3.999  12.020  0.00  0.00    +0.000 OA
ATOM     20  C   UNL     1       7.371   4.883  12.812  0.00  0.00    +0.000 C 
BRANCH  20  21
ATOM     21  O   UNL     1       8.261   5.851  12.468  0.00  0.00    +0.000 OA
ATOM     22  H   UNL     1       8.182   6.112  11.541  0.00  0.00    +0.000 HD
ENDBRANCH  20  21
ENDBRANCH  14  20
ENDBRANCH   1  17
BRANCH   6  23
ATOM     23  N   UNL     1       4.143   3.263  18.020  0.00  0.00    +0.000 N 
ATOM     24  O   UNL     1       3.746   2.252  17.432  0.00  0.00    +0.000 OA
ATOM     25  O   UNL     1       4.962   3.252  18.954  0.00  0.00    +0.000 OA
ENDBRANCH   6  23
BRANCH   8  26
ATOM     26  O   UNL     1       1.086   5.031  21.280  0.00  0.00    +0.000 OA
ATOM     27  H   UNL     1       1.582   4.762  22.072  0.00  0.00    +0.000 HD
ENDBRANCH   8  26
BRANCH  11  28
ATOM     28  C   UNL     1      -0.083   9.885  22.311  0.00  0.00    +0.000 C 
ATOM     29  O   UNL     1      -0.979  10.711  22.245  0.00  0.00    +0.000 OA
BRANCH  28  30
ATOM     30  O   UNL     1       0.592   9.773  23.536  0.00  0.00    +0.000 OA
ATOM     31  H   UNL     1       1.083   8.953  23.752  0.00  0.00    +0.000 HD
ENDBRANCH  28  30
ENDBRANCH  11  28
TORSDOF 7
ENDMDL
MODEL 8
REMARK VINA RESULT:      -6.8      1.823      8.598
REMARK  Name = 
REMARK  7 active torsions:
REMARK  status: ('A' for Active; 'I' for Inactive)
REMARK    1  A    between atoms: C_2  and  O_3
REMARK    2  A    between atoms: C_2  and  C_4
REMARK    3  A    between atoms: N_7  and  C_8
REMARK    4  A    between atoms: C_13  and  N_14
REMARK    5  A    between atoms: C_18  and  O_19
REMARK    6  A    between atoms: C_22  and  C_23
REMARK    7  A    between atoms: C_23  and  O_25
REMARK                            x       y       z     vdW  Elec       q    Type
REMARK                         _______ _______ _______ _____ _____    ______ ____
ROOT
ATOM      1  C   UNL     1       4.060   6.289  17.234  0.00  0.00    +0.000 A 
ATOM      2  C   UNL     1       3.553   7.834  17.170  0.00  0.00    +0.000 A 
ATOM      3  C   UNL     1       2.580   8.640  17.939  0.00  0.00    +0.000 A 
ATOM      4  C   UNL     1       2.261   7.457  18.654  0.00  0.00    +0.000 A 
ATOM      5  C   UNL     1       2.091   6.085  18.303  0.00  0.00    +0.000 A 
ATOM      6  C   UNL     1       3.269   5.486  17.998  0.00  0.00    +0.000 A 
ATOM      7  N   UNL     1       2.477   7.406  20.049  0.00  0.00    +0.000 NA
ATOM      8  C   UNL     1       1.449   7.906  20.583  0.00  0.00    +0.000 A 
ATOM      9  C   UNL     1       0.865   9.012  19.985  0.00  0.00    +0.000 A 
ATOM     10  N   UNL     1      -0.091   9.723  20.495  0.00  0.00    +0.000 NA
ATOM     11  C   UNL     1       0.149  10.935  19.939  0.00  0.00    +0.000 A 
ATOM     12  N   UNL     1       1.011  10.869  18.819  0.00  0.00    +0.000 NA
ATOM     13  N   UNL     1       1.489   9.496  18.829  0.00  0.00    +0.000 N 
ENDROOT
BRANCH   1  17
ATOM     14  C   UNL     1       6.593   5.012  14.717  0.00  0.00    +0.000 A 
ATOM     15  C   UNL     1       7.110   4.580  15.967  0.00  0.00    +0.000 A 
ATOM     16  C   UNL     1       6.210   4.893  16.968  0.00  0.00    +0.000 A 
ATOM     17  N   UNL     1       5.154   5.620  16.458  0.00  0.00    +0.000 N 
ATOM     18  C   UNL     1       5.355   5.593  15.035  0.00  0.00    +0.000 A 
BRANCH  14  20
ATOM     19  O   UNL     1       7.034   4.039  12.587  0.00  0.00    +0.000 OA
ATOM     20  C   UNL     1       7.347   4.850  13.445  0.00  0.00    +0.000 C 
BRANCH  20  21
ATOM     21  O   UNL     1       8.454   5.621  13.291  0.00  0.00    +0.000 OA
ATOM     22  H   UNL     1       8.369   6.248  12.561  0.00  0.00    +0.000 HD
ENDBRANCH  20  21
ENDBRANCH  14  20
ENDBRANCH   1  17
BRANCH   6  23
ATOM     23  N   UNL     1       3.709   4.382  18.878  0.00  0.00    +0.000 N 
ATOM     24  O   UNL     1       4.417   4.648  19.855  0.00  0.00    +0.000 OA
ATOM     25  O   UNL     1       3.279   3.247  18.615  0.00  0.00    +0.000 OA
ENDBRANCH   6  23
BRANCH   8  26
ATOM     26  O   UNL     1       0.712   7.165  21.402  0.00  0.00    +0.000 OA
ATOM     27  H   UNL     1       1.270   6.391  21.592  0.00  0.00    +0.000 HD
ENDBRANCH   8  26
BRANCH  11  28
ATOM     28  C   UNL     1      -0.381  12.108  20.803  0.00  0.00    +0.000 C 
ATOM     29  O   UNL     1      -1.308  12.844  20.503  0.00  0.00    +0.000 OA
BRANCH  28  30
ATOM     30  O   UNL     1       0.350  12.440  21.954  0.00  0.00    +0.000 OA
ATOM     31  H   UNL     1      -0.079  12.406  22.834  0.00  0.00    +0.000 HD
ENDBRANCH  28  30
ENDBRANCH  11  28
TORSDOF 7
ENDMDL
MODEL 9
REMARK VINA RESULT:      -6.8      2.491      4.584
REMARK  Name = 
REMARK  7 active torsions:
REMARK  status: ('A' for Active; 'I' for Inactive)
REMARK    1  A    between atoms: C_2  and  O_3
REMARK    2  A    between atoms: C_2  and  C_4
REMARK    3  A    between atoms: N_7  and  C_8
REMARK    4  A    between atoms: C_13  and  N_14
REMARK    5  A    between atoms: C_18  and  O_19
REMARK    6  A    between atoms: C_22  and  C_23
REMARK    7  A    between atoms: C_23  and  O_25
REMARK                            x       y       z     vdW  Elec       q    Type
REMARK                         _______ _______ _______ _____ _____    ______ ____
ROOT
ATOM      1  C   UNL     1       0.598  10.020  20.197  0.00  0.00    +0.000 A 
ATOM      2  C   UNL     1       1.363   9.360  18.921  0.00  0.00    +0.000 A 
ATOM      3  C   UNL     1       2.125   8.112  18.700  0.00  0.00    +0.000 A 
ATOM      4  C   UNL     1       1.951   7.835  20.081  0.00  0.00    +0.000 A 
ATOM      5  C   UNL     1       1.986   8.616  21.274  0.00  0.00    +0.000 A 
ATOM      6  C   UNL     1       0.908   9.430  21.385  0.00  0.00    +0.000 A 
ATOM      7  N   UNL     1       1.246   6.677  20.476  0.00  0.00    +0.000 NA
ATOM      8  C   UNL     1       2.089   5.737  20.480  0.00  0.00    +0.000 A 
ATOM      9  C   UNL     1       3.035   5.693  19.469  0.00  0.00    +0.000 A 
ATOM     10  N   UNL     1       3.857   4.715  19.252  0.00  0.00    +0.000 NA
ATOM     11  C   UNL     1       4.053   4.818  17.915  0.00  0.00    +0.000 A 
ATOM     12  N   UNL     1       3.650   6.069  17.392  0.00  0.00    +0.000 NA
ATOM     13  N   UNL     1       2.962   6.705  18.504  0.00  0.00    +0.000 N 
ENDROOT
BRANCH   1  17
ATOM     14  C   UNL     1      -2.103  12.677  20.363  0.00  0.00    +0.000 A 
ATOM     15  C   UNL     1      -0.913  13.384  20.680  0.00  0.00    +0.000 A 
ATOM     16  C   UNL     1       0.172  12.538  20.545  0.00  0.00    +0.000 A 
ATOM     17  N   UNL     1      -0.248  11.255  20.256  0.00  0.00    +0.000 N 
ATOM     18  C   UNL     1      -1.664  11.382  20.040  0.00  0.00    +0.000 A 
BRANCH  14  20
ATOM     19  O   UNL     1      -4.483  12.657  20.491  0.00  0.00    +0.000 OA
ATOM     20  C   UNL     1      -3.449  13.305  20.447  0.00  0.00    +0.000 C 
BRANCH  20  21
ATOM     21  O   UNL     1      -3.489  14.663  20.421  0.00  0.00    +0.000 OA
ATOM     22  H   UNL     1      -3.565  15.047  21.304  0.00  0.00    +0.000 HD
ENDBRANCH  20  21
ENDBRANCH  14  20
ENDBRANCH   1  17
BRANCH   6  23
ATOM     23  N   UNL     1      -0.007   9.184  22.519  0.00  0.00    +0.000 N 
ATOM     24  O   UNL     1       0.144   9.837  23.557  0.00  0.00    +0.000 OA
ATOM     25  O   UNL     1      -0.928   8.371  22.333  0.00  0.00    +0.000 OA
ENDBRANCH   6  23
BRANCH   8  26
ATOM     26  O   UNL     1       2.340   5.089  21.612  0.00  0.00    +0.000 OA
ATOM     27  H   UNL     1       3.280   4.845  21.545  0.00  0.00    +0.000 HD
ENDBRANCH   8  26
BRANCH  11  28
ATOM     28  C   UNL     1       4.441   3.468  17.260  0.00  0.00    +0.000 C 
ATOM     29  O   UNL     1       3.891   2.398  17.466  0.00  0.00    +0.000 OA
BRANCH  28  30
ATOM     30  O   UNL     1       5.604   3.446  16.475  0.00  0.00    +0.000 OA
ATOM     31  H   UNL     1       6.180   2.653  16.475  0.00  0.00    +0.000 HD
ENDBRANCH  28  30
ENDBRANCH  11  28
TORSDOF 7
ENDMDL
