MODEL 1
REMARK VINA RESULT:      -6.8      0.000      0.000
REMARK  Name = 
REMARK  7 active torsions:
REMARK  status: ('A' for Active; 'I' for Inactive)
REMARK    1  A    between atoms: C_1  and  C_2
REMARK    2  A    between atoms: C_2  and  C_3
REMARK    3  A    between atoms: C_9  and  N_10
REMARK    4  A    between atoms: C_11  and  C_13
REMARK    5  A    between atoms: C_14  and  C_15
REMARK    6  A    between atoms: C_15  and  O_17
REMARK    7  A    between atoms: C_18  and  C_19
REMARK                            x       y       z     vdW  Elec       q    Type
REMARK                         _______ _______ _______ _____ _____    ______ ____
ROOT
ATOM      1  C   UNL     1       1.914   3.225  18.765  0.00  0.00    +0.000 C 
ATOM      2  C   UNL     1       2.446   2.571  17.467  0.00  0.00    +0.000 C 
ATOM      3  C   UNL     1       3.867   3.019  17.139  0.00  0.00    +0.000 C 
ATOM      4  C   UNL     1       4.058   4.499  17.307  0.00  0.00    +0.000 A 
ATOM      5  C   UNL     1       3.185   5.295  18.016  0.00  0.00    +0.000 A 
ATOM      6  S   UNL     1       3.742   6.917  18.082  0.00  0.00    +0.000 S 
ATOM      7  C   UNL     1       5.181   6.552  17.202  0.00  0.00    +0.000 A 
ATOM      8  C   UNL     1       5.186   5.226  16.809  0.00  0.00    +0.000 A 
ATOM      9  C   UNL     1       1.895   4.782  18.618  0.00  0.00    +0.000 C 
ENDROOT
BRANCH   7  10
ATOM     10  N   UNL     1       6.079   7.607  17.009  0.00  0.00    +0.000 N 
ATOM     11  C   UNL     1       7.290   7.637  17.682  0.00  0.00    +0.000 C 
ATOM     12  O   UNL     1       7.665   6.761  18.455  0.00  0.00    +0.000 OA
ATOM     13  H   UNL     1       5.755   8.405  16.473  0.00  0.00    +0.000 HD
BRANCH  11  14
ATOM     14  C   UNL     1       8.158   8.836  17.475  0.00  0.00    +0.000 C 
ATOM     15  C   UNL     1       8.558   9.455  18.608  0.00  0.00    +0.000 C 
BRANCH  15  16
ATOM     16  C   UNL     1       9.391  10.667  18.591  0.00  0.00    +0.000 C 
ATOM     17  O   UNL     1      10.384  10.811  19.270  0.00  0.00    +0.000 OA
BRANCH  16  18
ATOM     18  O   UNL     1       8.930  11.594  17.725  0.00  0.00    +0.000 OA
ATOM     19  H   UNL     1       9.591  12.026  17.156  0.00  0.00    +0.000 HD
ENDBRANCH  16  18
ENDBRANCH  15  16
ENDBRANCH  11  14
ENDBRANCH   7  10
BRANCH   1  21
ATOM     20  C   UNL     1       2.191   3.110  21.357  0.00  0.00    +0.000 C 
ATOM     21  C   UNL     1       2.680   2.660  19.989  0.00  0.00    +0.000 C 
ENDBRANCH   1  21
BRANCH   8  22
ATOM     22  C   UNL     1       6.122   4.557  15.974  0.00  0.00    +0.000 C 
ATOM     23  N   UNL     1       6.823   3.831  15.362  0.00  0.00    +0.000 NA
ENDBRANCH   8  22
TORSDOF 6
ENDMDL
MODEL 2
REMARK VINA RESULT:      -6.4      9.505     11.446
REMARK  Name = 
REMARK  7 active torsions:
REMARK  status: ('A' for Active; 'I' for Inactive)
REMARK    1  A    between atoms: C_1  and  C_2
REMARK    2  A    between atoms: C_2  and  C_3
REMARK    3  A    between atoms: C_9  and  N_10
REMARK    4  A    between atoms: C_11  and  C_13
REMARK    5  A    between atoms: C_14  and  C_15
REMARK    6  A    between atoms: C_15  and  O_17
REMARK    7  A    between atoms: C_18  and  C_19
REMARK                            x       y       z     vdW  Elec       q    Type
REMARK                         _______ _______ _______ _____ _____    ______ ____
ROOT
ATOM      1  C   UNL     1      -0.810  12.062  22.677  0.00  0.00    +0.000 C 
ATOM      2  C   UNL     1      -2.144  12.844  22.625  0.00  0.00    +0.000 C 
ATOM      3  C   UNL     1      -3.042  12.374  21.485  0.00  0.00    +0.000 C 
ATOM      4  C   UNL     1      -2.290  12.188  20.199  0.00  0.00    +0.000 A 
ATOM      5  C   UNL     1      -0.917  12.090  20.137  0.00  0.00    +0.000 A 
ATOM      6  S   UNL     1      -0.390  11.798  18.530  0.00  0.00    +0.000 S 
ATOM      7  C   UNL     1      -2.001  11.753  17.915  0.00  0.00    +0.000 A 
ATOM      8  C   UNL     1      -2.912  12.029  18.919  0.00  0.00    +0.000 A 
ATOM      9  C   UNL     1      -0.018  12.256  21.342  0.00  0.00    +0.000 C 
ENDROOT
BRANCH   7  10
ATOM     10  N   UNL     1      -2.143  11.474  16.552  0.00  0.00    +0.000 N 
ATOM     11  C   UNL     1      -2.658  10.259  16.128  0.00  0.00    +0.000 C 
ATOM     12  O   UNL     1      -3.039   9.375  16.888  0.00  0.00    +0.000 OA
ATOM     13  H   UNL     1      -1.729  12.127  15.895  0.00  0.00    +0.000 HD
BRANCH  11  14
ATOM     14  C   UNL     1      -2.705  10.014  14.654  0.00  0.00    +0.000 C 
ATOM     15  C   UNL     1      -3.944  10.016  14.113  0.00  0.00    +0.000 C 
BRANCH  15  16
ATOM     16  C   UNL     1      -4.180   9.762  12.684  0.00  0.00    +0.000 C 
ATOM     17  O   UNL     1      -5.282   9.711  12.182  0.00  0.00    +0.000 OA
BRANCH  16  18
ATOM     18  O   UNL     1      -3.031   9.606  11.995  0.00  0.00    +0.000 OA
ATOM     19  H   UNL     1      -3.100   9.182  11.120  0.00  0.00    +0.000 HD
ENDBRANCH  16  18
ENDBRANCH  15  16
ENDBRANCH  11  14
ENDBRANCH   7  10
BRANCH   1  21
ATOM     20  C   UNL     1      -0.054   9.565  22.663  0.00  0.00    +0.000 C 
ATOM     21  C   UNL     1      -1.077  10.597  23.109  0.00  0.00    +0.000 C 
ENDBRANCH   1  21
BRANCH   8  22
ATOM     22  C   UNL     1      -4.319  12.204  18.811  0.00  0.00    +0.000 C 
ATOM     23  N   UNL     1      -5.446  12.546  18.756  0.00  0.00    +0.000 NA
ENDBRANCH   8  22
TORSDOF 6
ENDMDL
MODEL 3
REMARK VINA RESULT:      -6.2      0.902      1.100
REMARK  Name = 
REMARK  7 active torsions:
REMARK  status: ('A' for Active; 'I' for Inactive)
REMARK    1  A    between atoms: C_1  and  C_2
REMARK    2  A    between atoms: C_2  and  C_3
REMARK    3  A    between atoms: C_9  and  N_10
REMARK    4  A    between atoms: C_11  and  C_13
REMARK    5  A    between atoms: C_14  and  C_15
REMARK    6  A    between atoms: C_15  and  O_17
REMARK    7  A    between atoms: C_18  and  C_19
REMARK                            x       y       z     vdW  Elec       q    Type
REMARK                         _______ _______ _______ _____ _____    ______ ____
ROOT
ATOM      1  C   UNL     1       1.963   3.889  18.181  0.00  0.00    +0.000 C 
ATOM      2  C   UNL     1       2.784   3.087  17.142  0.00  0.00    +0.000 C 
ATOM      3  C   UNL     1       4.264   3.457  17.171  0.00  0.00    +0.000 C 
ATOM      4  C   UNL     1       4.486   4.940  17.244  0.00  0.00    +0.000 A 
ATOM      5  C   UNL     1       3.502   5.831  17.613  0.00  0.00    +0.000 A 
ATOM      6  S   UNL     1       4.111   7.434  17.675  0.00  0.00    +0.000 S 
ATOM      7  C   UNL     1       5.709   6.938  17.255  0.00  0.00    +0.000 A 
ATOM      8  C   UNL     1       5.744   5.578  17.004  0.00  0.00    +0.000 A 
ATOM      9  C   UNL     1       2.071   5.421  17.889  0.00  0.00    +0.000 C 
ENDROOT
BRANCH   7  10
ATOM     10  N   UNL     1       6.684   7.940  17.214  0.00  0.00    +0.000 N 
ATOM     11  C   UNL     1       7.823   7.851  17.998  0.00  0.00    +0.000 C 
ATOM     12  O   UNL     1       8.067   6.910  18.745  0.00  0.00    +0.000 OA
ATOM     13  H   UNL     1       6.463   8.788  16.702  0.00  0.00    +0.000 HD
BRANCH  11  14
ATOM     14  C   UNL     1       8.778   9.000  17.949  0.00  0.00    +0.000 C 
ATOM     15  C   UNL     1       8.206  10.222  18.033  0.00  0.00    +0.000 C 
BRANCH  15  16
ATOM     16  C   UNL     1       8.991  11.465  17.971  0.00  0.00    +0.000 C 
ATOM     17  O   UNL     1       8.502  12.563  17.818  0.00  0.00    +0.000 OA
BRANCH  16  18
ATOM     18  O   UNL     1      10.314  11.243  18.117  0.00  0.00    +0.000 OA
ATOM     19  H   UNL     1      10.660  10.411  17.749  0.00  0.00    +0.000 HD
ENDBRANCH  16  18
ENDBRANCH  15  16
ENDBRANCH  11  14
ENDBRANCH   7  10
BRANCH   1  21
ATOM     20  C   UNL     1       1.321   2.576  20.342  0.00  0.00    +0.000 C 
ATOM     21  C   UNL     1       2.343   3.435  19.614  0.00  0.00    +0.000 C 
ENDBRANCH   1  21
BRANCH   8  22
ATOM     22  C   UNL     1       6.830   4.798  16.520  0.00  0.00    +0.000 C 
ATOM     23  N   UNL     1       7.698   4.035  16.282  0.00  0.00    +0.000 NA
ENDBRANCH   8  22
TORSDOF 6
ENDMDL
MODEL 4
REMARK VINA RESULT:      -6.1      3.510      5.231
REMARK  Name = 
REMARK  7 active torsions:
REMARK  status: ('A' for Active; 'I' for Inactive)
REMARK    1  A    between atoms: C_1  and  C_2
REMARK    2  A    between atoms: C_2  and  C_3
REMARK    3  A    between atoms: C_9  and  N_10
REMARK    4  A    between atoms: C_11  and  C_13
REMARK    5  A    between atoms: C_14  and  C_15
REMARK    6  A    between atoms: C_15  and  O_17
REMARK    7  A    between atoms: C_18  and  C_19
REMARK                            x       y       z     vdW  Elec       q    Type
REMARK                         _______ _______ _______ _____ _____    ______ ____
ROOT
ATOM      1  C   UNL     1       2.001   3.380  21.221  0.00  0.00    +0.000 C 
ATOM      2  C   UNL     1       2.274   4.899  21.329  0.00  0.00    +0.000 C 
ATOM      3  C   UNL     1       2.458   5.549  19.961  0.00  0.00    +0.000 C 
ATOM      4  C   UNL     1       3.342   4.743  19.055  0.00  0.00    +0.000 A 
ATOM      5  C   UNL     1       3.645   3.418  19.282  0.00  0.00    +0.000 A 
ATOM      6  S   UNL     1       4.607   2.777  18.014  0.00  0.00    +0.000 S 
ATOM      7  C   UNL     1       4.582   4.258  17.128  0.00  0.00    +0.000 A 
ATOM      8  C   UNL     1       3.908   5.236  17.836  0.00  0.00    +0.000 A 
ATOM      9  C   UNL     1       3.201   2.664  20.517  0.00  0.00    +0.000 C 
ENDROOT
BRANCH   7  10
ATOM     10  N   UNL     1       5.233   4.256  15.889  0.00  0.00    +0.000 N 
ATOM     11  C   UNL     1       6.505   4.790  15.758  0.00  0.00    +0.000 C 
ATOM     12  O   UNL     1       7.146   5.267  16.688  0.00  0.00    +0.000 OA
ATOM     13  H   UNL     1       4.691   3.982  15.076  0.00  0.00    +0.000 HD
BRANCH  11  14
ATOM     14  C   UNL     1       7.097   4.816  14.385  0.00  0.00    +0.000 C 
ATOM     15  C   UNL     1       6.545   3.948  13.508  0.00  0.00    +0.000 C 
BRANCH  15  16
ATOM     16  C   UNL     1       7.023   3.817  12.123  0.00  0.00    +0.000 C 
ATOM     17  O   UNL     1       7.034   2.772  11.510  0.00  0.00    +0.000 OA
BRANCH  16  18
ATOM     18  O   UNL     1       7.434   4.995  11.610  0.00  0.00    +0.000 OA
ATOM     19  H   UNL     1       6.782   5.495  11.086  0.00  0.00    +0.000 HD
ENDBRANCH  16  18
ENDBRANCH  15  16
ENDBRANCH  11  14
ENDBRANCH   7  10
BRANCH   1  21
ATOM     20  C   UNL     1       0.571   2.466  19.239  0.00  0.00    +0.000 C 
ATOM     21  C   UNL     1       0.600   3.140  20.601  0.00  0.00    +0.000 C 
ENDBRANCH   1  21
BRANCH   8  22
ATOM     22  C   UNL     1       3.762   6.614  17.518  0.00  0.00    +0.000 C 
ATOM     23  N   UNL     1       3.620   7.783  17.455  0.00  0.00    +0.000 NA
ENDBRANCH   8  22
TORSDOF 6
ENDMDL
MODEL 5
REMARK VINA RESULT:      -6.1      5.756      7.266
REMARK  Name = 
REMARK  7 active torsions:
REMARK  status: ('A' for Active; 'I' for Inactive)
REMARK    1  A    between atoms: C_1  and  C_2
REMARK    2  A    between atoms: C_2  and  C_3
REMARK    3  A    between atoms: C_9  and  N_10
REMARK    4  A    between atoms: C_11  and  C_13
REMARK    5  A    between atoms: C_14  and  C_15
REMARK    6  A    between atoms: C_15  and  O_17
REMARK    7  A    between atoms: C_18  and  C_19
REMARK                            x       y       z     vdW  Elec       q    Type
REMARK                         _______ _______ _______ _____ _____    ______ ____
ROOT
ATOM      1  C   UNL     1       5.098   4.699  18.480  0.00  0.00    +0.000 C 
ATOM      2  C   UNL     1       4.670   5.524  17.243  0.00  0.00    +0.000 C 
ATOM      3  C   UNL     1       4.040   6.858  17.631  0.00  0.00    +0.000 C 
ATOM      4  C   UNL     1       3.057   6.725  18.757  0.00  0.00    +0.000 A 
ATOM      5  C   UNL     1       3.001   5.622  19.582  0.00  0.00    +0.000 A 
ATOM      6  S   UNL     1       1.824   5.829  20.813  0.00  0.00    +0.000 S 
ATOM      7  C   UNL     1       1.416   7.418  20.279  0.00  0.00    +0.000 A 
ATOM      8  C   UNL     1       2.124   7.742  19.135  0.00  0.00    +0.000 A 
ATOM      9  C   UNL     1       3.857   4.390  19.380  0.00  0.00    +0.000 C 
ENDROOT
BRANCH   7  10
ATOM     10  N   UNL     1       0.461   8.107  21.035  0.00  0.00    +0.000 N 
ATOM     11  C   UNL     1       0.843   9.100  21.922  0.00  0.00    +0.000 C 
ATOM     12  O   UNL     1       2.004   9.458  22.090  0.00  0.00    +0.000 OA
ATOM     13  H   UNL     1      -0.492   7.759  21.013  0.00  0.00    +0.000 HD
BRANCH  11  14
ATOM     14  C   UNL     1      -0.233   9.733  22.745  0.00  0.00    +0.000 C 
ATOM     15  C   UNL     1      -0.509  11.019  22.433  0.00  0.00    +0.000 C 
BRANCH  15  16
ATOM     16  C   UNL     1      -1.518  11.806  23.159  0.00  0.00    +0.000 C 
ATOM     17  O   UNL     1      -2.621  11.391  23.440  0.00  0.00    +0.000 OA
BRANCH  16  18
ATOM     18  O   UNL     1      -1.069  13.035  23.487  0.00  0.00    +0.000 OA
ATOM     19  H   UNL     1      -1.744  13.705  23.697  0.00  0.00    +0.000 HD
ENDBRANCH  16  18
ENDBRANCH  15  16
ENDBRANCH  11  14
ENDBRANCH   7  10
BRANCH   1  21
ATOM     20  C   UNL     1       7.507   5.686  18.307  0.00  0.00    +0.000 C 
ATOM     21  C   UNL     1       6.298   5.388  19.180  0.00  0.00    +0.000 C 
ENDBRANCH   1  21
BRANCH   8  22
ATOM     22  C   UNL     1       1.998   8.898  18.317  0.00  0.00    +0.000 C 
ATOM     23  N   UNL     1       2.096   9.869  17.654  0.00  0.00    +0.000 NA
ENDBRANCH   8  22
TORSDOF 6
ENDMDL
MODEL 6
REMARK VINA RESULT:      -6.0      5.905      6.940
REMARK  Name = 
REMARK  7 active torsions:
REMARK  status: ('A' for Active; 'I' for Inactive)
REMARK    1  A    between atoms: C_1  and  C_2
REMARK    2  A    between atoms: C_2  and  C_3
REMARK    3  A    between atoms: C_9  and  N_10
REMARK    4  A    between atoms: C_11  and  C_13
REMARK    5  A    between atoms: C_14  and  C_15
REMARK    6  A    between atoms: C_15  and  O_17
REMARK    7  A    between atoms: C_18  and  C_19
REMARK                            x       y       z     vdW  Elec       q    Type
REMARK                         _______ _______ _______ _____ _____    ______ ____
ROOT
ATOM      1  C   UNL     1       2.728   4.521  18.653  0.00  0.00    +0.000 C 
ATOM      2  C   UNL     1       2.806   4.730  20.184  0.00  0.00    +0.000 C 
ATOM      3  C   UNL     1       1.898   5.861  20.657  0.00  0.00    +0.000 C 
ATOM      4  C   UNL     1       1.986   7.075  19.779  0.00  0.00    +0.000 A 
ATOM      5  C   UNL     1       2.524   7.050  18.511  0.00  0.00    +0.000 A 
ATOM      6  S   UNL     1       2.394   8.585  17.754  0.00  0.00    +0.000 S 
ATOM      7  C   UNL     1       1.571   9.279  19.102  0.00  0.00    +0.000 A 
ATOM      8  C   UNL     1       1.470   8.363  20.133  0.00  0.00    +0.000 A 
ATOM      9  C   UNL     1       3.169   5.822  17.906  0.00  0.00    +0.000 C 
ENDROOT
BRANCH   7  10
ATOM     10  N   UNL     1       1.163  10.611  18.967  0.00  0.00    +0.000 N 
ATOM     11  C   UNL     1      -0.178  10.928  18.819  0.00  0.00    +0.000 C 
ATOM     12  O   UNL     1      -1.081  10.098  18.818  0.00  0.00    +0.000 OA
ATOM     13  H   UNL     1       1.886  11.312  18.843  0.00  0.00    +0.000 HD
BRANCH  11  14
ATOM     14  C   UNL     1      -0.520  12.367  18.607  0.00  0.00    +0.000 C 
ATOM     15  C   UNL     1       0.433  13.245  18.993  0.00  0.00    +0.000 C 
BRANCH  15  16
ATOM     16  C   UNL     1       0.253  14.701  18.884  0.00  0.00    +0.000 C 
ATOM     17  O   UNL     1       1.166  15.482  18.727  0.00  0.00    +0.000 OA
BRANCH  16  18
ATOM     18  O   UNL     1      -1.044  15.064  18.967  0.00  0.00    +0.000 OA
ATOM     19  H   UNL     1      -1.230  16.020  18.955  0.00  0.00    +0.000 HD
ENDBRANCH  16  18
ENDBRANCH  15  16
ENDBRANCH  11  14
ENDBRANCH   7  10
BRANCH   1  21
ATOM     20  C   UNL     1       0.907   2.685  18.999  0.00  0.00    +0.000 C 
ATOM     21  C   UNL     1       1.339   3.948  18.271  0.00  0.00    +0.000 C 
ENDBRANCH   1  21
BRANCH   8  22
ATOM     22  C   UNL     1       0.973   8.567  21.450  0.00  0.00    +0.000 C 
ATOM     23  N   UNL     1       0.453   8.888  22.459  0.00  0.00    +0.000 NA
ENDBRANCH   8  22
TORSDOF 6
ENDMDL
MODEL 7
REMARK VINA RESULT:      -5.9      4.416      6.428
REMARK  Name = 
REMARK  7 active torsions:
REMARK  status: ('A' for Active; 'I' for Inactive)
REMARK    1  A    between atoms: C_1  and  C_2
REMARK    2  A    between atoms: C_2  and  C_3
REMARK    3  A    between atoms: C_9  and  N_10
REMARK    4  A    between atoms: C_11  and  C_13
REMARK    5  A    between atoms: C_14  and  C_15
REMARK    6  A    between atoms: C_15  and  O_17
REMARK    7  A    between atoms: C_18  and  C_19
REMARK                            x       y       z     vdW  Elec       q    Type
REMARK                         _______ _______ _______ _____ _____    ______ ____
ROOT
ATOM      1  C   UNL     1      -0.085  10.431  20.565  0.00  0.00    +0.000 C 
ATOM      2  C   UNL     1      -0.484   9.116  21.276  0.00  0.00    +0.000 C 
ATOM      3  C   UNL     1       0.667   8.115  21.319  0.00  0.00    +0.000 C 
ATOM      4  C   UNL     1       1.388   8.010  20.008  0.00  0.00    +0.000 A 
ATOM      5  C   UNL     1       1.276   8.952  19.009  0.00  0.00    +0.000 A 
ATOM      6  S   UNL     1       2.295   8.571  17.681  0.00  0.00    +0.000 S 
ATOM      7  C   UNL     1       2.930   7.167  18.458  0.00  0.00    +0.000 A 
ATOM      8  C   UNL     1       2.311   6.966  19.678  0.00  0.00    +0.000 A 
ATOM      9  C   UNL     1       0.342  10.140  19.089  0.00  0.00    +0.000 C 
ENDROOT
BRANCH   7  10
ATOM     10  N   UNL     1       3.917   6.461  17.763  0.00  0.00    +0.000 N 
ATOM     11  C   UNL     1       3.681   5.172  17.312  0.00  0.00    +0.000 C 
ATOM     12  O   UNL     1       2.618   4.579  17.462  0.00  0.00    +0.000 OA
ATOM     13  H   UNL     1       4.846   6.869  17.725  0.00  0.00    +0.000 HD
BRANCH  11  14
ATOM     14  C   UNL     1       4.815   4.462  16.645  0.00  0.00    +0.000 C 
ATOM     15  C   UNL     1       5.483   5.192  15.723  0.00  0.00    +0.000 C 
BRANCH  15  16
ATOM     16  C   UNL     1       6.606   4.643  14.948  0.00  0.00    +0.000 C 
ATOM     17  O   UNL     1       7.655   5.227  14.778  0.00  0.00    +0.000 OA
BRANCH  16  18
ATOM     18  O   UNL     1       6.341   3.413  14.462  0.00  0.00    +0.000 OA
ATOM     19  H   UNL     1       7.068   2.962  13.996  0.00  0.00    +0.000 HD
ENDBRANCH  16  18
ENDBRANCH  15  16
ENDBRANCH  11  14
ENDBRANCH   7  10
BRANCH   1  21
ATOM     20  C   UNL     1       1.471  12.506  20.847  0.00  0.00    +0.000 C 
ATOM     21  C   UNL     1       0.937  11.209  21.434  0.00  0.00    +0.000 C 
ENDBRANCH   1  21
BRANCH   8  22
ATOM     22  C   UNL     1       2.457   5.869  20.572  0.00  0.00    +0.000 C 
ATOM     23  N   UNL     1       2.490   4.850  21.165  0.00  0.00    +0.000 NA
ENDBRANCH   8  22
TORSDOF 6
ENDMDL
MODEL 8
REMARK VINA RESULT:      -5.9      3.873      5.435
REMARK  Name = 
REMARK  7 active torsions:
REMARK  status: ('A' for Active; 'I' for Inactive)
REMARK    1  A    between atoms: C_1  and  C_2
REMARK    2  A    between atoms: C_2  and  C_3
REMARK    3  A    between atoms: C_9  and  N_10
REMARK    4  A    between atoms: C_11  and  C_13
REMARK    5  A    between atoms: C_14  and  C_15
REMARK    6  A    between atoms: C_15  and  O_17
REMARK    7  A    between atoms: C_18  and  C_19
REMARK                            x       y       z     vdW  Elec       q    Type
REMARK                         _______ _______ _______ _____ _____    ______ ____
ROOT
ATOM      1  C   UNL     1       1.069   3.289  20.667  0.00  0.00    +0.000 C 
ATOM      2  C   UNL     1       2.310   3.460  21.575  0.00  0.00    +0.000 C 
ATOM      3  C   UNL     1       3.456   4.165  20.856  0.00  0.00    +0.000 C 
ATOM      4  C   UNL     1       3.673   3.640  19.466  0.00  0.00    +0.000 A 
ATOM      5  C   UNL     1       2.736   2.890  18.790  0.00  0.00    +0.000 A 
ATOM      6  S   UNL     1       3.266   2.525  17.199  0.00  0.00    +0.000 S 
ATOM      7  C   UNL     1       4.733   3.413  17.390  0.00  0.00    +0.000 A 
ATOM      8  C   UNL     1       4.835   3.913  18.676  0.00  0.00    +0.000 A 
ATOM      9  C   UNL     1       1.433   2.433  19.410  0.00  0.00    +0.000 C 
ENDROOT
BRANCH   7  10
ATOM     10  N   UNL     1       5.574   3.479  16.273  0.00  0.00    +0.000 N 
ATOM     11  C   UNL     1       5.689   4.651  15.543  0.00  0.00    +0.000 C 
ATOM     12  O   UNL     1       5.103   5.692  15.822  0.00  0.00    +0.000 OA
ATOM     13  H   UNL     1       5.980   2.611  15.941  0.00  0.00    +0.000 HD
BRANCH  11  14
ATOM     14  C   UNL     1       6.551   4.614  14.322  0.00  0.00    +0.000 C 
ATOM     15  C   UNL     1       6.127   3.776  13.349  0.00  0.00    +0.000 C 
BRANCH  15  16
ATOM     16  C   UNL     1       6.867   3.591  12.092  0.00  0.00    +0.000 C 
ATOM     17  O   UNL     1       7.416   4.491  11.494  0.00  0.00    +0.000 OA
BRANCH  16  18
ATOM     18  O   UNL     1       6.877   2.303  11.688  0.00  0.00    +0.000 OA
ATOM     19  H   UNL     1       7.232   1.651  12.318  0.00  0.00    +0.000 HD
ENDBRANCH  16  18
ENDBRANCH  15  16
ENDBRANCH  11  14
ENDBRANCH   7  10
BRANCH   1  21
ATOM     20  C   UNL     1       1.249   5.889  20.779  0.00  0.00    +0.000 C 
ATOM     21  C   UNL     1       0.424   4.672  20.393  0.00  0.00    +0.000 C 
ENDBRANCH   1  21
BRANCH   8  22
ATOM     22  C   UNL     1       5.930   4.594  19.274  0.00  0.00    +0.000 C 
ATOM     23  N   UNL     1       6.828   5.282  19.609  0.00  0.00    +0.000 NA
ENDBRANCH   8  22
TORSDOF 6
ENDMDL
MODEL 9
REMARK VINA RESULT:      -5.9      9.379     11.345
REMARK  Name = 
REMARK  7 active torsions:
REMARK  status: ('A' for Active; 'I' for Inactive)
REMARK    1  A    between atoms: C_1  and  C_2
REMARK    2  A    between atoms: C_2  and  C_3
REMARK    3  A    between atoms: C_9  and  N_10
REMARK    4  A    between atoms: C_11  and  C_13
REMARK    5  A    between atoms: C_14  and  C_15
REMARK    6  A    between atoms: C_15  and  O_17
REMARK    7  A    between atoms: C_18  and  C_19
REMARK                            x       y       z     vdW  Elec       q    Type
REMARK                         _______ _______ _______ _____ _____    ______ ____
ROOT
ATOM      1  C   UNL     1      -0.311  11.952  22.084  0.00  0.00    +0.000 C 
ATOM      2  C   UNL     1      -1.388  13.013  21.758  0.00  0.00    +0.000 C 
ATOM      3  C   UNL     1      -2.482  12.462  20.849  0.00  0.00    +0.000 C 
ATOM      4  C   UNL     1      -1.932  11.652  19.712  0.00  0.00    +0.000 A 
ATOM      5  C   UNL     1      -0.647  11.156  19.693  0.00  0.00    +0.000 A 
ATOM      6  S   UNL     1      -0.370  10.207  18.290  0.00  0.00    +0.000 S 
ATOM      7  C   UNL     1      -1.986  10.414  17.724  0.00  0.00    +0.000 A 
ATOM      8  C   UNL     1      -2.692  11.255  18.565  0.00  0.00    +0.000 A 
ATOM      9  C   UNL     1       0.375  11.456  20.768  0.00  0.00    +0.000 C 
ENDROOT
BRANCH   7  10
ATOM     10  N   UNL     1      -2.325   9.746  16.542  0.00  0.00    +0.000 N 
ATOM     11  C   UNL     1      -2.758  10.450  15.430  0.00  0.00    +0.000 C 
ATOM     12  O   UNL     1      -2.853  11.673  15.389  0.00  0.00    +0.000 OA
ATOM     13  H   UNL     1      -2.375   8.733  16.575  0.00  0.00    +0.000 HD
BRANCH  11  14
ATOM     14  C   UNL     1      -3.171   9.654  14.234  0.00  0.00    +0.000 C 
ATOM     15  C   UNL     1      -4.062  10.264  13.422  0.00  0.00    +0.000 C 
BRANCH  15  16
ATOM     16  C   UNL     1      -4.601   9.616  12.216  0.00  0.00    +0.000 C 
ATOM     17  O   UNL     1      -5.690   9.088  12.164  0.00  0.00    +0.000 OA
BRANCH  16  18
ATOM     18  O   UNL     1      -3.749   9.690  11.172  0.00  0.00    +0.000 OA
ATOM     19  H   UNL     1      -3.912   9.076  10.432  0.00  0.00    +0.000 HD
ENDBRANCH  16  18
ENDBRANCH  15  16
ENDBRANCH  11  14
ENDBRANCH   7  10
BRANCH   1  21
ATOM     20  C   UNL     1      -0.241   9.492  22.952  0.00  0.00    +0.000 C 
ATOM     21  C   UNL     1      -0.914  10.855  22.998  0.00  0.00    +0.000 C 
ENDBRANCH   1  21
BRANCH   8  22
ATOM     22  C   UNL     1      -4.005  11.773  18.397  0.00  0.00    +0.000 C 
ATOM     23  N   UNL     1      -5.137  12.021  18.174  0.00  0.00    +0.000 NA
ENDBRANCH   8  22
TORSDOF 6
ENDMDL
