MODEL 1
REMARK VINA RESULT:      -7.8      0.000      0.000
REMARK  Name = 
REMARK  8 active torsions:
REMARK  status: ('A' for Active; 'I' for Inactive)
REMARK    1  A    between atoms: S_2  and  N_4
REMARK    2  A    between atoms: S_2  and  C_15
REMARK    3  A    between atoms: N_4  and  C_5
REMARK    4  A    between atoms: C_5  and  C_6
REMARK    5  A    between atoms: C_6  and  C_7
REMARK    6  A    between atoms: C_10  and  O_11
REMARK    7  A    between atoms: C_12  and  O_13
REMARK    8  A    between atoms: C_18  and  C_19
REMARK                            x       y       z     vdW  Elec       q    Type
REMARK                         _______ _______ _______ _____ _____    ______ ____
ROOT
ATOM      1  O   UNL     1       6.963   4.443  18.847  0.00  0.00    +0.000 OA
ATOM      2  S   UNL     1       6.438   4.979  17.612  0.00  0.00    +0.000 S 
ATOM      3  O   UNL     1       7.250   5.785  16.731  0.00  0.00    +0.000 OA
ENDROOT
BRANCH   2   4
ATOM      4  C   UNL     1       4.959   5.874  18.007  0.00  0.00    +0.000 A 
ATOM      5  C   UNL     1       4.557   6.877  17.128  0.00  0.00    +0.000 A 
ATOM      6  C   UNL     1       3.486   7.697  17.471  0.00  0.00    +0.000 A 
ATOM      7  C   UNL     1       2.768   7.518  18.670  0.00  0.00    +0.000 A 
ATOM      8  C   UNL     1       3.178   6.472  19.521  0.00  0.00    +0.000 A 
ATOM      9  C   UNL     1       4.271   5.653  19.198  0.00  0.00    +0.000 A 
BRANCH   7  10
ATOM     10  C   UNL     1       1.654   8.438  19.006  0.00  0.00    +0.000 A 
ATOM     11  C   UNL     1       1.072   9.256  18.018  0.00  0.00    +0.000 A 
ATOM     12  C   UNL     1       0.093  10.202  18.331  0.00  0.00    +0.000 A 
ATOM     13  C   UNL     1      -0.351  10.333  19.639  0.00  0.00    +0.000 A 
ATOM     14  C   UNL     1       0.176   9.510  20.631  0.00  0.00    +0.000 A 
ATOM     15  C   UNL     1       1.170   8.575  20.318  0.00  0.00    +0.000 A 
ENDBRANCH   7  10
ENDBRANCH   2   4
BRANCH   2  16
ATOM     16  N   UNL     1       5.820   3.665  16.750  0.00  0.00    +0.000 NA
ATOM     17  H   UNL     1       6.340   2.812  16.961  0.00  0.00    +0.000 HD
BRANCH  16  18
ATOM     18  C   UNL     1       4.366   3.505  16.553  0.00  0.00    +0.000 C 
BRANCH  18  19
ATOM     19  C   UNL     1       3.825   2.203  17.136  0.00  0.00    +0.000 C 
BRANCH  19  20
ATOM     20  C   UNL     1       3.302   2.389  18.536  0.00  0.00    +0.000 A 
ATOM     21  C   UNL     1       4.140   2.196  19.645  0.00  0.00    +0.000 A 
ATOM     22  C   UNL     1       3.646   2.355  20.942  0.00  0.00    +0.000 A 
ATOM     23  C   UNL     1       2.316   2.713  21.124  0.00  0.00    +0.000 A 
ATOM     24  C   UNL     1       1.484   2.917  20.027  0.00  0.00    +0.000 A 
ATOM     25  C   UNL     1       1.965   2.762  18.738  0.00  0.00    +0.000 A 
BRANCH  23  26
ATOM     26  O   UNL     1       1.775   2.879  22.369  0.00  0.00    +0.000 OA
ATOM     27  H   UNL     1       0.871   2.521  22.352  0.00  0.00    +0.000 HD
ENDBRANCH  23  26
BRANCH  24  28
ATOM     28  O   UNL     1       0.178   3.268  20.212  0.00  0.00    +0.000 OA
ATOM     29  H   UNL     1       0.006   3.936  19.519  0.00  0.00    +0.000 HD
ENDBRANCH  24  28
ENDBRANCH  19  20
ENDBRANCH  18  19
ENDBRANCH  16  18
ENDBRANCH   2  16
TORSDOF 8
ENDMDL
MODEL 2
REMARK VINA RESULT:      -7.6      2.204      4.590
REMARK  Name = 
REMARK  8 active torsions:
REMARK  status: ('A' for Active; 'I' for Inactive)
REMARK    1  A    between atoms: S_2  and  N_4
REMARK    2  A    between atoms: S_2  and  C_15
REMARK    3  A    between atoms: N_4  and  C_5
REMARK    4  A    between atoms: C_5  and  C_6
REMARK    5  A    between atoms: C_6  and  C_7
REMARK    6  A    between atoms: C_10  and  O_11
REMARK    7  A    between atoms: C_12  and  O_13
REMARK    8  A    between atoms: C_18  and  C_19
REMARK                            x       y       z     vdW  Elec       q    Type
REMARK                         _______ _______ _______ _____ _____    ______ ____
ROOT
ATOM      1  O   UNL     1       0.995   3.246  19.642  0.00  0.00    +0.000 OA
ATOM      2  S   UNL     1       2.321   3.805  19.504  0.00  0.00    +0.000 S 
ATOM      3  O   UNL     1       3.401   3.414  20.380  0.00  0.00    +0.000 OA
ENDROOT
BRANCH   2   4
ATOM      4  C   UNL     1       2.161   5.570  19.543  0.00  0.00    +0.000 A 
ATOM      5  C   UNL     1       1.632   6.146  20.696  0.00  0.00    +0.000 A 
ATOM      6  C   UNL     1       1.358   7.510  20.714  0.00  0.00    +0.000 A 
ATOM      7  C   UNL     1       1.635   8.339  19.608  0.00  0.00    +0.000 A 
ATOM      8  C   UNL     1       2.202   7.731  18.470  0.00  0.00    +0.000 A 
ATOM      9  C   UNL     1       2.462   6.353  18.430  0.00  0.00    +0.000 A 
BRANCH   7  10
ATOM     10  C   UNL     1       1.295   9.781  19.665  0.00  0.00    +0.000 A 
ATOM     11  C   UNL     1       1.453  10.604  18.532  0.00  0.00    +0.000 A 
ATOM     12  C   UNL     1       1.238  11.982  18.590  0.00  0.00    +0.000 A 
ATOM     13  C   UNL     1       0.827  12.571  19.778  0.00  0.00    +0.000 A 
ATOM     14  C   UNL     1       0.622  11.778  20.905  0.00  0.00    +0.000 A 
ATOM     15  C   UNL     1       0.857  10.398  20.849  0.00  0.00    +0.000 A 
ENDBRANCH   7  10
ENDBRANCH   2   4
BRANCH   2  16
ATOM     16  N   UNL     1       2.782   3.540  17.901  0.00  0.00    +0.000 NA
ATOM     17  H   UNL     1       2.290   4.172  17.270  0.00  0.00    +0.000 HD
BRANCH  16  18
ATOM     18  C   UNL     1       4.186   3.243  17.558  0.00  0.00    +0.000 C 
BRANCH  18  19
ATOM     19  C   UNL     1       4.781   4.238  16.566  0.00  0.00    +0.000 C 
BRANCH  19  20
ATOM     20  C   UNL     1       5.812   5.126  17.212  0.00  0.00    +0.000 A 
ATOM     21  C   UNL     1       6.312   6.251  16.538  0.00  0.00    +0.000 A 
ATOM     22  C   UNL     1       7.280   7.062  17.136  0.00  0.00    +0.000 A 
ATOM     23  C   UNL     1       7.739   6.748  18.410  0.00  0.00    +0.000 A 
ATOM     24  C   UNL     1       7.237   5.639  19.086  0.00  0.00    +0.000 A 
ATOM     25  C   UNL     1       6.278   4.830  18.502  0.00  0.00    +0.000 A 
BRANCH  23  26
ATOM     26  O   UNL     1       8.687   7.501  19.043  0.00  0.00    +0.000 OA
ATOM     27  H   UNL     1       8.243   8.022  19.734  0.00  0.00    +0.000 HD
ENDBRANCH  23  26
BRANCH  24  28
ATOM     28  O   UNL     1       7.693   5.335  20.336  0.00  0.00    +0.000 OA
ATOM     29  H   UNL     1       8.619   5.056  20.195  0.00  0.00    +0.000 HD
ENDBRANCH  24  28
ENDBRANCH  19  20
ENDBRANCH  18  19
ENDBRANCH  16  18
ENDBRANCH   2  16
TORSDOF 8
ENDMDL
MODEL 3
REMARK VINA RESULT:      -7.6      2.401      4.739
REMARK  Name = 
REMARK  8 active torsions:
REMARK  status: ('A' for Active; 'I' for Inactive)
REMARK    1  A    between atoms: S_2  and  N_4
REMARK    2  A    between atoms: S_2  and  C_15
REMARK    3  A    between atoms: N_4  and  C_5
REMARK    4  A    between atoms: C_5  and  C_6
REMARK    5  A    between atoms: C_6  and  C_7
REMARK    6  A    between atoms: C_10  and  O_11
REMARK    7  A    between atoms: C_12  and  O_13
REMARK    8  A    between atoms: C_18  and  C_19
REMARK                            x       y       z     vdW  Elec       q    Type
REMARK                         _______ _______ _______ _____ _____    ______ ____
ROOT
ATOM      1  O   UNL     1       2.061   4.391  19.819  0.00  0.00    +0.000 OA
ATOM      2  S   UNL     1       3.059   5.300  19.303  0.00  0.00    +0.000 S 
ATOM      3  O   UNL     1       4.346   5.452  19.941  0.00  0.00    +0.000 OA
ENDROOT
BRANCH   2   4
ATOM      4  C   UNL     1       2.300   6.896  19.157  0.00  0.00    +0.000 A 
ATOM      5  C   UNL     1       2.361   7.530  17.918  0.00  0.00    +0.000 A 
ATOM      6  C   UNL     1       1.905   8.839  17.797  0.00  0.00    +0.000 A 
ATOM      7  C   UNL     1       1.346   9.535  18.888  0.00  0.00    +0.000 A 
ATOM      8  C   UNL     1       1.266   8.853  20.119  0.00  0.00    +0.000 A 
ATOM      9  C   UNL     1       1.744   7.541  20.260  0.00  0.00    +0.000 A 
BRANCH   7  10
ATOM     10  C   UNL     1       0.903  10.939  18.717  0.00  0.00    +0.000 A 
ATOM     11  C   UNL     1       1.840  11.991  18.679  0.00  0.00    +0.000 A 
ATOM     12  C   UNL     1       1.442  13.328  18.623  0.00  0.00    +0.000 A 
ATOM     13  C   UNL     1       0.092  13.648  18.571  0.00  0.00    +0.000 A 
ATOM     14  C   UNL     1      -0.858  12.629  18.565  0.00  0.00    +0.000 A 
ATOM     15  C   UNL     1      -0.456  11.289  18.641  0.00  0.00    +0.000 A 
ENDBRANCH   7  10
ENDBRANCH   2   4
BRANCH   2  16
ATOM     16  N   UNL     1       3.288   4.883  17.683  0.00  0.00    +0.000 NA
ATOM     17  H   UNL     1       3.334   5.714  17.094  0.00  0.00    +0.000 HD
BRANCH  16  18
ATOM     18  C   UNL     1       4.186   3.773  17.308  0.00  0.00    +0.000 C 
BRANCH  18  19
ATOM     19  C   UNL     1       5.345   4.217  16.421  0.00  0.00    +0.000 C 
BRANCH  19  20
ATOM     20  C   UNL     1       6.244   5.201  17.123  0.00  0.00    +0.000 A 
ATOM     21  C   UNL     1       6.378   6.514  16.648  0.00  0.00    +0.000 A 
ATOM     22  C   UNL     1       7.225   7.418  17.295  0.00  0.00    +0.000 A 
ATOM     23  C   UNL     1       7.930   7.005  18.418  0.00  0.00    +0.000 A 
ATOM     24  C   UNL     1       7.792   5.706  18.899  0.00  0.00    +0.000 A 
ATOM     25  C   UNL     1       6.955   4.803  18.266  0.00  0.00    +0.000 A 
BRANCH  23  26
ATOM     26  O   UNL     1       8.777   7.843  19.089  0.00  0.00    +0.000 OA
ATOM     27  H   UNL     1       8.991   7.430  19.943  0.00  0.00    +0.000 HD
ENDBRANCH  23  26
BRANCH  24  28
ATOM     28  O   UNL     1       8.489   5.306  20.002  0.00  0.00    +0.000 OA
ATOM     29  H   UNL     1       8.156   5.879  20.721  0.00  0.00    +0.000 HD
ENDBRANCH  24  28
ENDBRANCH  19  20
ENDBRANCH  18  19
ENDBRANCH  16  18
ENDBRANCH   2  16
TORSDOF 8
ENDMDL
MODEL 4
REMARK VINA RESULT:      -7.4      4.504      6.220
REMARK  Name = 
REMARK  8 active torsions:
REMARK  status: ('A' for Active; 'I' for Inactive)
REMARK    1  A    between atoms: S_2  and  N_4
REMARK    2  A    between atoms: S_2  and  C_15
REMARK    3  A    between atoms: N_4  and  C_5
REMARK    4  A    between atoms: C_5  and  C_6
REMARK    5  A    between atoms: C_6  and  C_7
REMARK    6  A    between atoms: C_10  and  O_11
REMARK    7  A    between atoms: C_12  and  O_13
REMARK    8  A    between atoms: C_18  and  C_19
REMARK                            x       y       z     vdW  Elec       q    Type
REMARK                         _______ _______ _______ _____ _____    ______ ____
ROOT
ATOM      1  O   UNL     1       7.833   4.144  16.848  0.00  0.00    +0.000 OA
ATOM      2  S   UNL     1       6.726   5.066  16.959  0.00  0.00    +0.000 S 
ATOM      3  O   UNL     1       5.897   5.394  15.823  0.00  0.00    +0.000 OA
ENDROOT
BRANCH   2   4
ATOM      4  C   UNL     1       7.353   6.568  17.664  0.00  0.00    +0.000 A 
ATOM      5  C   UNL     1       7.103   7.755  16.980  0.00  0.00    +0.000 A 
ATOM      6  C   UNL     1       7.697   8.935  17.421  0.00  0.00    +0.000 A 
ATOM      7  C   UNL     1       8.517   8.971  18.566  0.00  0.00    +0.000 A 
ATOM      8  C   UNL     1       8.722   7.758  19.255  0.00  0.00    +0.000 A 
ATOM      9  C   UNL     1       8.148   6.558  18.808  0.00  0.00    +0.000 A 
BRANCH   7  10
ATOM     10  C   UNL     1       9.153  10.246  18.977  0.00  0.00    +0.000 A 
ATOM     11  C   UNL     1       9.651  11.147  18.015  0.00  0.00    +0.000 A 
ATOM     12  C   UNL     1      10.344  12.303  18.379  0.00  0.00    +0.000 A 
ATOM     13  C   UNL     1      10.530  12.605  19.722  0.00  0.00    +0.000 A 
ATOM     14  C   UNL     1      10.014  11.755  20.697  0.00  0.00    +0.000 A 
ATOM     15  C   UNL     1       9.335  10.587  20.328  0.00  0.00    +0.000 A 
ENDBRANCH   7  10
ENDBRANCH   2   4
BRANCH   2  16
ATOM     16  N   UNL     1       5.750   4.486  18.209  0.00  0.00    +0.000 NA
ATOM     17  H   UNL     1       6.253   3.808  18.781  0.00  0.00    +0.000 HD
BRANCH  16  18
ATOM     18  C   UNL     1       4.829   5.386  18.930  0.00  0.00    +0.000 C 
BRANCH  18  19
ATOM     19  C   UNL     1       3.490   5.563  18.219  0.00  0.00    +0.000 C 
BRANCH  19  20
ATOM     20  C   UNL     1       2.771   6.804  18.679  0.00  0.00    +0.000 A 
ATOM     21  C   UNL     1       2.227   6.880  19.970  0.00  0.00    +0.000 A 
ATOM     22  C   UNL     1       1.547   8.028  20.385  0.00  0.00    +0.000 A 
ATOM     23  C   UNL     1       1.420   9.098  19.508  0.00  0.00    +0.000 A 
ATOM     24  C   UNL     1       1.968   9.032  18.230  0.00  0.00    +0.000 A 
ATOM     25  C   UNL     1       2.643   7.898  17.810  0.00  0.00    +0.000 A 
BRANCH  23  26
ATOM     26  O   UNL     1       0.762  10.245  19.857  0.00  0.00    +0.000 OA
ATOM     27  H   UNL     1       0.497  10.165  20.789  0.00  0.00    +0.000 HD
ENDBRANCH  23  26
BRANCH  24  28
ATOM     28  O   UNL     1       1.839  10.085  17.373  0.00  0.00    +0.000 OA
ATOM     29  H   UNL     1       0.935  10.420  17.534  0.00  0.00    +0.000 HD
ENDBRANCH  24  28
ENDBRANCH  19  20
ENDBRANCH  18  19
ENDBRANCH  16  18
ENDBRANCH   2  16
TORSDOF 8
ENDMDL
MODEL 5
REMARK VINA RESULT:      -7.4      2.378      4.685
REMARK  Name = 
REMARK  8 active torsions:
REMARK  status: ('A' for Active; 'I' for Inactive)
REMARK    1  A    between atoms: S_2  and  N_4
REMARK    2  A    between atoms: S_2  and  C_15
REMARK    3  A    between atoms: N_4  and  C_5
REMARK    4  A    between atoms: C_5  and  C_6
REMARK    5  A    between atoms: C_6  and  C_7
REMARK    6  A    between atoms: C_10  and  O_11
REMARK    7  A    between atoms: C_12  and  O_13
REMARK    8  A    between atoms: C_18  and  C_19
REMARK                            x       y       z     vdW  Elec       q    Type
REMARK                         _______ _______ _______ _____ _____    ______ ____
ROOT
ATOM      1  O   UNL     1       2.455   3.236  18.287  0.00  0.00    +0.000 OA
ATOM      2  S   UNL     1       3.537   4.094  18.713  0.00  0.00    +0.000 S 
ATOM      3  O   UNL     1       4.575   3.620  19.599  0.00  0.00    +0.000 OA
ENDROOT
BRANCH   2   4
ATOM      4  C   UNL     1       2.814   5.556  19.409  0.00  0.00    +0.000 A 
ATOM      5  C   UNL     1       2.086   5.418  20.588  0.00  0.00    +0.000 A 
ATOM      6  C   UNL     1       1.385   6.511  21.090  0.00  0.00    +0.000 A 
ATOM      7  C   UNL     1       1.420   7.770  20.458  0.00  0.00    +0.000 A 
ATOM      8  C   UNL     1       2.195   7.885  19.286  0.00  0.00    +0.000 A 
ATOM      9  C   UNL     1       2.887   6.786  18.757  0.00  0.00    +0.000 A 
BRANCH   7  10
ATOM     10  C   UNL     1       0.631   8.895  21.013  0.00  0.00    +0.000 A 
ATOM     11  C   UNL     1       0.309  10.013  20.218  0.00  0.00    +0.000 A 
ATOM     12  C   UNL     1      -0.344  11.128  20.746  0.00  0.00    +0.000 A 
ATOM     13  C   UNL     1      -0.720  11.142  22.083  0.00  0.00    +0.000 A 
ATOM     14  C   UNL     1      -0.453  10.036  22.885  0.00  0.00    +0.000 A 
ATOM     15  C   UNL     1       0.218   8.926  22.357  0.00  0.00    +0.000 A 
ENDBRANCH   7  10
ENDBRANCH   2   4
BRANCH   2  16
ATOM     16  N   UNL     1       4.243   4.701  17.305  0.00  0.00    +0.000 NA
ATOM     17  H   UNL     1       4.835   5.506  17.510  0.00  0.00    +0.000 HD
BRANCH  16  18
ATOM     18  C   UNL     1       4.730   3.790  16.250  0.00  0.00    +0.000 C 
BRANCH  18  19
ATOM     19  C   UNL     1       6.197   4.018  15.896  0.00  0.00    +0.000 C 
BRANCH  19  20
ATOM     20  C   UNL     1       6.830   5.064  16.775  0.00  0.00    +0.000 A 
ATOM     21  C   UNL     1       6.901   6.402  16.359  0.00  0.00    +0.000 A 
ATOM     22  C   UNL     1       7.504   7.365  17.172  0.00  0.00    +0.000 A 
ATOM     23  C   UNL     1       8.029   6.986  18.401  0.00  0.00    +0.000 A 
ATOM     24  C   UNL     1       7.951   5.662  18.823  0.00  0.00    +0.000 A 
ATOM     25  C   UNL     1       7.355   4.700  18.025  0.00  0.00    +0.000 A 
BRANCH  23  26
ATOM     26  O   UNL     1       8.634   7.883  19.236  0.00  0.00    +0.000 OA
ATOM     27  H   UNL     1       8.599   8.757  18.811  0.00  0.00    +0.000 HD
ENDBRANCH  23  26
BRANCH  24  28
ATOM     28  O   UNL     1       8.468   5.295  20.031  0.00  0.00    +0.000 OA
ATOM     29  H   UNL     1       8.147   5.980  20.650  0.00  0.00    +0.000 HD
ENDBRANCH  24  28
ENDBRANCH  19  20
ENDBRANCH  18  19
ENDBRANCH  16  18
ENDBRANCH   2  16
TORSDOF 8
ENDMDL
MODEL 6
REMARK VINA RESULT:      -7.3      2.224      4.795
REMARK  Name = 
REMARK  8 active torsions:
REMARK  status: ('A' for Active; 'I' for Inactive)
REMARK    1  A    between atoms: S_2  and  N_4
REMARK    2  A    between atoms: S_2  and  C_15
REMARK    3  A    between atoms: N_4  and  C_5
REMARK    4  A    between atoms: C_5  and  C_6
REMARK    5  A    between atoms: C_6  and  C_7
REMARK    6  A    between atoms: C_10  and  O_11
REMARK    7  A    between atoms: C_12  and  O_13
REMARK    8  A    between atoms: C_18  and  C_19
REMARK                            x       y       z     vdW  Elec       q    Type
REMARK                         _______ _______ _______ _____ _____    ______ ____
ROOT
ATOM      1  O   UNL     1       2.342   3.130  17.120  0.00  0.00    +0.000 OA
ATOM      2  S   UNL     1       3.053   3.275  18.370  0.00  0.00    +0.000 S 
ATOM      3  O   UNL     1       2.937   2.294  19.424  0.00  0.00    +0.000 OA
ENDROOT
BRANCH   2   4
ATOM      4  C   UNL     1       2.653   4.872  19.028  0.00  0.00    +0.000 A 
ATOM      5  C   UNL     1       1.993   4.919  20.253  0.00  0.00    +0.000 A 
ATOM      6  C   UNL     1       1.535   6.142  20.737  0.00  0.00    +0.000 A 
ATOM      7  C   UNL     1       1.753   7.345  20.036  0.00  0.00    +0.000 A 
ATOM      8  C   UNL     1       2.454   7.267  18.816  0.00  0.00    +0.000 A 
ATOM      9  C   UNL     1       2.901   6.039  18.307  0.00  0.00    +0.000 A 
BRANCH   7  10
ATOM     10  C   UNL     1       1.218   8.618  20.576  0.00  0.00    +0.000 A 
ATOM     11  C   UNL     1       0.855   8.731  21.933  0.00  0.00    +0.000 A 
ATOM     12  C   UNL     1       0.254   9.885  22.440  0.00  0.00    +0.000 A 
ATOM     13  C   UNL     1       0.028  10.971  21.607  0.00  0.00    +0.000 A 
ATOM     14  C   UNL     1       0.412  10.907  20.270  0.00  0.00    +0.000 A 
ATOM     15  C   UNL     1       0.998   9.741  19.760  0.00  0.00    +0.000 A 
ENDBRANCH   7  10
ENDBRANCH   2   4
BRANCH   2  16
ATOM     16  N   UNL     1       4.682   3.469  17.970  0.00  0.00    +0.000 NA
ATOM     17  H   UNL     1       5.285   3.108  18.708  0.00  0.00    +0.000 HD
BRANCH  16  18
ATOM     18  C   UNL     1       5.151   3.257  16.587  0.00  0.00    +0.000 C 
BRANCH  18  19
ATOM     19  C   UNL     1       5.525   4.556  15.878  0.00  0.00    +0.000 C 
BRANCH  19  20
ATOM     20  C   UNL     1       6.358   5.453  16.755  0.00  0.00    +0.000 A 
ATOM     21  C   UNL     1       6.429   6.832  16.506  0.00  0.00    +0.000 A 
ATOM     22  C   UNL     1       7.216   7.658  17.314  0.00  0.00    +0.000 A 
ATOM     23  C   UNL     1       7.924   7.100  18.371  0.00  0.00    +0.000 A 
ATOM     24  C   UNL     1       7.848   5.734  18.629  0.00  0.00    +0.000 A 
ATOM     25  C   UNL     1       7.071   4.908  17.834  0.00  0.00    +0.000 A 
BRANCH  23  26
ATOM     26  O   UNL     1       8.713   7.857  19.191  0.00  0.00    +0.000 OA
ATOM     27  H   UNL     1       8.968   7.306  19.951  0.00  0.00    +0.000 HD
ENDBRANCH  23  26
BRANCH  24  28
ATOM     28  O   UNL     1       8.546   5.192  19.668  0.00  0.00    +0.000 OA
ATOM     29  H   UNL     1       7.894   5.134  20.394  0.00  0.00    +0.000 HD
ENDBRANCH  24  28
ENDBRANCH  19  20
ENDBRANCH  18  19
ENDBRANCH  16  18
ENDBRANCH   2  16
TORSDOF 8
ENDMDL
MODEL 7
REMARK VINA RESULT:      -7.2      4.532      8.635
REMARK  Name = 
REMARK  8 active torsions:
REMARK  status: ('A' for Active; 'I' for Inactive)
REMARK    1  A    between atoms: S_2  and  N_4
REMARK    2  A    between atoms: S_2  and  C_15
REMARK    3  A    between atoms: N_4  and  C_5
REMARK    4  A    between atoms: C_5  and  C_6
REMARK    5  A    between atoms: C_6  and  C_7
REMARK    6  A    between atoms: C_10  and  O_11
REMARK    7  A    between atoms: C_12  and  O_13
REMARK    8  A    between atoms: C_18  and  C_19
REMARK                            x       y       z     vdW  Elec       q    Type
REMARK                         _______ _______ _______ _____ _____    ______ ____
ROOT
ATOM      1  O   UNL     1       1.483   9.348  22.784  0.00  0.00    +0.000 OA
ATOM      2  S   UNL     1       0.511   9.078  21.748  0.00  0.00    +0.000 S 
ATOM      3  O   UNL     1      -0.741   8.418  22.039  0.00  0.00    +0.000 OA
ENDROOT
BRANCH   2   4
ATOM      4  C   UNL     1       1.341   8.189  20.458  0.00  0.00    +0.000 A 
ATOM      5  C   UNL     1       1.800   6.907  20.749  0.00  0.00    +0.000 A 
ATOM      6  C   UNL     1       2.579   6.231  19.814  0.00  0.00    +0.000 A 
ATOM      7  C   UNL     1       2.888   6.794  18.559  0.00  0.00    +0.000 A 
ATOM      8  C   UNL     1       2.379   8.079  18.282  0.00  0.00    +0.000 A 
ATOM      9  C   UNL     1       1.612   8.780  19.225  0.00  0.00    +0.000 A 
BRANCH   7  10
ATOM     10  C   UNL     1       3.748   6.048  17.609  0.00  0.00    +0.000 A 
ATOM     11  C   UNL     1       4.592   6.731  16.711  0.00  0.00    +0.000 A 
ATOM     12  C   UNL     1       5.332   6.055  15.740  0.00  0.00    +0.000 A 
ATOM     13  C   UNL     1       5.272   4.670  15.661  0.00  0.00    +0.000 A 
ATOM     14  C   UNL     1       4.479   3.963  16.562  0.00  0.00    +0.000 A 
ATOM     15  C   UNL     1       3.723   4.645  17.523  0.00  0.00    +0.000 A 
ENDBRANCH   7  10
ENDBRANCH   2   4
BRANCH   2  16
ATOM     16  N   UNL     1       0.197  10.557  20.996  0.00  0.00    +0.000 NA
ATOM     17  H   UNL     1       0.406  10.511  19.998  0.00  0.00    +0.000 HD
BRANCH  16  18
ATOM     18  C   UNL     1      -0.979  11.363  21.376  0.00  0.00    +0.000 C 
BRANCH  18  19
ATOM     19  C   UNL     1      -1.233  12.531  20.426  0.00  0.00    +0.000 C 
BRANCH  19  20
ATOM     20  C   UNL     1      -2.228  12.174  19.353  0.00  0.00    +0.000 A 
ATOM     21  C   UNL     1      -3.606  12.191  19.620  0.00  0.00    +0.000 A 
ATOM     22  C   UNL     1      -4.524  11.844  18.626  0.00  0.00    +0.000 A 
ATOM     23  C   UNL     1      -4.060  11.487  17.366  0.00  0.00    +0.000 A 
ATOM     24  C   UNL     1      -2.694  11.481  17.093  0.00  0.00    +0.000 A 
ATOM     25  C   UNL     1      -1.777  11.823  18.072  0.00  0.00    +0.000 A 
BRANCH  23  26
ATOM     26  O   UNL     1      -4.910  11.134  16.355  0.00  0.00    +0.000 OA
ATOM     27  H   UNL     1      -4.377  10.749  15.638  0.00  0.00    +0.000 HD
ENDBRANCH  23  26
BRANCH  24  28
ATOM     28  O   UNL     1      -2.244  11.129  15.854  0.00  0.00    +0.000 OA
ATOM     29  H   UNL     1      -2.811  11.634  15.238  0.00  0.00    +0.000 HD
ENDBRANCH  24  28
ENDBRANCH  19  20
ENDBRANCH  18  19
ENDBRANCH  16  18
ENDBRANCH   2  16
TORSDOF 8
ENDMDL
MODEL 8
REMARK VINA RESULT:      -7.2      2.160      4.569
REMARK  Name = 
REMARK  8 active torsions:
REMARK  status: ('A' for Active; 'I' for Inactive)
REMARK    1  A    between atoms: S_2  and  N_4
REMARK    2  A    between atoms: S_2  and  C_15
REMARK    3  A    between atoms: N_4  and  C_5
REMARK    4  A    between atoms: C_5  and  C_6
REMARK    5  A    between atoms: C_6  and  C_7
REMARK    6  A    between atoms: C_10  and  O_11
REMARK    7  A    between atoms: C_12  and  O_13
REMARK    8  A    between atoms: C_18  and  C_19
REMARK                            x       y       z     vdW  Elec       q    Type
REMARK                         _______ _______ _______ _____ _____    ______ ____
ROOT
ATOM      1  O   UNL     1       2.508   1.420  19.354  0.00  0.00    +0.000 OA
ATOM      2  S   UNL     1       3.661   2.290  19.418  0.00  0.00    +0.000 S 
ATOM      3  O   UNL     1       4.787   1.991  20.272  0.00  0.00    +0.000 OA
ENDROOT
BRANCH   2   4
ATOM      4  C   UNL     1       3.076   3.922  19.789  0.00  0.00    +0.000 A 
ATOM      5  C   UNL     1       1.752   4.055  20.202  0.00  0.00    +0.000 A 
ATOM      6  C   UNL     1       1.213   5.327  20.366  0.00  0.00    +0.000 A 
ATOM      7  C   UNL     1       1.981   6.492  20.162  0.00  0.00    +0.000 A 
ATOM      8  C   UNL     1       3.326   6.321  19.780  0.00  0.00    +0.000 A 
ATOM      9  C   UNL     1       3.876   5.045  19.588  0.00  0.00    +0.000 A 
BRANCH   7  10
ATOM     10  C   UNL     1       1.352   7.825  20.318  0.00  0.00    +0.000 A 
ATOM     11  C   UNL     1       1.487   8.808  19.318  0.00  0.00    +0.000 A 
ATOM     12  C   UNL     1       0.992  10.103  19.487  0.00  0.00    +0.000 A 
ATOM     13  C   UNL     1       0.319  10.440  20.654  0.00  0.00    +0.000 A 
ATOM     14  C   UNL     1       0.133   9.479  21.645  0.00  0.00    +0.000 A 
ATOM     15  C   UNL     1       0.647   8.186  21.480  0.00  0.00    +0.000 A 
ENDBRANCH   7  10
ENDBRANCH   2   4
BRANCH   2  16
ATOM     16  N   UNL     1       4.204   2.475  17.830  0.00  0.00    +0.000 NA
ATOM     17  H   UNL     1       3.979   1.653  17.268  0.00  0.00    +0.000 HD
BRANCH  16  18
ATOM     18  C   UNL     1       4.101   3.777  17.143  0.00  0.00    +0.000 C 
BRANCH  18  19
ATOM     19  C   UNL     1       5.349   4.125  16.335  0.00  0.00    +0.000 C 
BRANCH  19  20
ATOM     20  C   UNL     1       6.235   5.101  17.064  0.00  0.00    +0.000 A 
ATOM     21  C   UNL     1       6.588   6.325  16.476  0.00  0.00    +0.000 A 
ATOM     22  C   UNL     1       7.423   7.220  17.150  0.00  0.00    +0.000 A 
ATOM     23  C   UNL     1       7.897   6.887  18.413  0.00  0.00    +0.000 A 
ATOM     24  C   UNL     1       7.541   5.679  19.005  0.00  0.00    +0.000 A 
ATOM     25  C   UNL     1       6.713   4.786  18.345  0.00  0.00    +0.000 A 
BRANCH  23  26
ATOM     26  O   UNL     1       8.721   7.720  19.118  0.00  0.00    +0.000 OA
ATOM     27  H   UNL     1       9.306   7.168  19.666  0.00  0.00    +0.000 HD
ENDBRANCH  23  26
BRANCH  24  28
ATOM     28  O   UNL     1       8.010   5.358  20.245  0.00  0.00    +0.000 OA
ATOM     29  H   UNL     1       8.982   5.417  20.160  0.00  0.00    +0.000 HD
ENDBRANCH  24  28
ENDBRANCH  19  20
ENDBRANCH  18  19
ENDBRANCH  16  18
ENDBRANCH   2  16
TORSDOF 8
ENDMDL
MODEL 9
REMARK VINA RESULT:      -7.1      2.335      4.582
REMARK  Name = 
REMARK  8 active torsions:
REMARK  status: ('A' for Active; 'I' for Inactive)
REMARK    1  A    between atoms: S_2  and  N_4
REMARK    2  A    between atoms: S_2  and  C_15
REMARK    3  A    between atoms: N_4  and  C_5
REMARK    4  A    between atoms: C_5  and  C_6
REMARK    5  A    between atoms: C_6  and  C_7
REMARK    6  A    between atoms: C_10  and  O_11
REMARK    7  A    between atoms: C_12  and  O_13
REMARK    8  A    between atoms: C_18  and  C_19
REMARK                            x       y       z     vdW  Elec       q    Type
REMARK                         _______ _______ _______ _____ _____    ______ ____
ROOT
ATOM      1  O   UNL     1       2.727   2.858  17.727  0.00  0.00    +0.000 OA
ATOM      2  S   UNL     1       3.678   3.749  18.351  0.00  0.00    +0.000 S 
ATOM      3  O   UNL     1       4.623   3.277  19.337  0.00  0.00    +0.000 OA
ENDROOT
BRANCH   2   4
ATOM      4  C   UNL     1       2.766   5.107  19.036  0.00  0.00    +0.000 A 
ATOM      5  C   UNL     1       2.833   6.330  18.373  0.00  0.00    +0.000 A 
ATOM      6  C   UNL     1       2.250   7.453  18.951  0.00  0.00    +0.000 A 
ATOM      7  C   UNL     1       1.556   7.383  20.176  0.00  0.00    +0.000 A 
ATOM      8  C   UNL     1       1.476   6.123  20.804  0.00  0.00    +0.000 A 
ATOM      9  C   UNL     1       2.080   4.988  20.243  0.00  0.00    +0.000 A 
BRANCH   7  10
ATOM     10  C   UNL     1       0.979   8.614  20.768  0.00  0.00    +0.000 A 
ATOM     11  C   UNL     1       1.001   9.833  20.061  0.00  0.00    +0.000 A 
ATOM     12  C   UNL     1       0.558  11.025  20.637  0.00  0.00    +0.000 A 
ATOM     13  C   UNL     1       0.050  11.022  21.929  0.00  0.00    +0.000 A 
ATOM     14  C   UNL     1      -0.024   9.826  22.639  0.00  0.00    +0.000 A 
ATOM     15  C   UNL     1       0.439   8.636  22.065  0.00  0.00    +0.000 A 
ENDBRANCH   7  10
ENDBRANCH   2   4
BRANCH   2  16
ATOM     16  N   UNL     1       4.518   4.502  17.095  0.00  0.00    +0.000 NA
ATOM     17  H   UNL     1       5.094   5.267  17.447  0.00  0.00    +0.000 HD
BRANCH  16  18
ATOM     18  C   UNL     1       5.095   3.711  15.991  0.00  0.00    +0.000 C 
BRANCH  18  19
ATOM     19  C   UNL     1       6.564   4.033  15.730  0.00  0.00    +0.000 C 
BRANCH  19  20
ATOM     20  C   UNL     1       7.081   5.092  16.668  0.00  0.00    +0.000 A 
ATOM     21  C   UNL     1       7.101   6.441  16.283  0.00  0.00    +0.000 A 
ATOM     22  C   UNL     1       7.596   7.418  17.151  0.00  0.00    +0.000 A 
ATOM     23  C   UNL     1       8.063   7.041  18.404  0.00  0.00    +0.000 A 
ATOM     24  C   UNL     1       8.034   5.705  18.795  0.00  0.00    +0.000 A 
ATOM     25  C   UNL     1       7.545   4.730  17.941  0.00  0.00    +0.000 A 
BRANCH  23  26
ATOM     26  O   UNL     1       8.563   7.951  19.293  0.00  0.00    +0.000 OA
ATOM     27  H   UNL     1       9.227   8.489  18.828  0.00  0.00    +0.000 HD
ENDBRANCH  23  26
BRANCH  24  28
ATOM     28  O   UNL     1       8.495   5.341  20.026  0.00  0.00    +0.000 OA
ATOM     29  H   UNL     1       9.055   6.091  20.307  0.00  0.00    +0.000 HD
ENDBRANCH  24  28
ENDBRANCH  19  20
ENDBRANCH  18  19
ENDBRANCH  16  18
ENDBRANCH   2  16
TORSDOF 8
ENDMDL
