MODEL 1
REMARK VINA RESULT:      -8.3      0.000      0.000
REMARK  Name = 
REMARK  6 active torsions:
REMARK  status: ('A' for Active; 'I' for Inactive)
REMARK    1  A    between atoms: C_2  and  C_3
REMARK    2  A    between atoms: C_3  and  C_4
REMARK    3  A    between atoms: C_4  and  C_5
REMARK    4  A    between atoms: C_5  and  C_6
REMARK    5  A    between atoms: C_6  and  N_7
REMARK    6  A    between atoms: N_10  and  C_11
REMARK                            x       y       z     vdW  Elec       q    Type
REMARK                         _______ _______ _______ _____ _____    ______ ____
ROOT
ATOM      1  C   UNL     1       7.929   6.986  18.308  0.00  0.00    +0.000 C 
ENDROOT
BRANCH   1   2
ATOM      2  C   UNL     1       7.891   8.361  17.635  0.00  0.00    +0.000 C 
BRANCH   2   4
ATOM      3  O   UNL     1       9.157   9.252  19.442  0.00  0.00    +0.000 OA
ATOM      4  C   UNL     1       8.596   9.484  18.373  0.00  0.00    +0.000 C 
ATOM      5  N   UNL     1       8.570  10.686  17.708  0.00  0.00    +0.000 N 
ATOM      6  C   UNL     1       9.298  11.803  18.043  0.00  0.00    +0.000 A 
ATOM      7  N   UNL     1       8.995  12.986  17.566  0.00  0.00    +0.000 NA
ATOM      8  C   UNL     1       9.871  13.932  18.081  0.00  0.00    +0.000 A 
ATOM      9  C   UNL     1       9.808  15.324  17.870  0.00  0.00    +0.000 A 
ATOM     10  C   UNL     1      10.759  16.163  18.463  0.00  0.00    +0.000 A 
ATOM     11  C   UNL     1      11.783  15.631  19.239  0.00  0.00    +0.000 A 
ATOM     12  C   UNL     1      11.876  14.252  19.456  0.00  0.00    +0.000 A 
ATOM     13  C   UNL     1      10.898  13.423  18.879  0.00  0.00    +0.000 A 
ATOM     14  S   UNL     1      10.709  11.717  18.996  0.00  0.00    +0.000 S 
ATOM     15  H   UNL     1       7.862  10.860  17.010  0.00  0.00    +0.000 HD
ENDBRANCH   2   4
ENDBRANCH   1   2
BRANCH   1  16
ATOM     16  C   UNL     1       7.312   5.960  17.347  0.00  0.00    +0.000 C 
BRANCH  16  17
ATOM     17  C   UNL     1       6.542   4.808  18.002  0.00  0.00    +0.000 C 
BRANCH  17  18
ATOM     18  N   UNL     1       5.187   4.559  17.497  0.00  0.00    +0.000 NA
ATOM     19  C   UNL     1       4.165   4.367  18.556  0.00  0.00    +0.000 C 
ATOM     20  C   UNL     1       3.772   5.628  19.367  0.00  0.00    +0.000 C 
ATOM     21  N   UNL     1       3.438   6.741  18.464  0.00  0.00    +0.000 N 
ATOM     22  C   UNL     1       4.421   7.012  17.407  0.00  0.00    +0.000 C 
ATOM     23  C   UNL     1       4.742   5.697  16.646  0.00  0.00    +0.000 C 
BRANCH  21  24
ATOM     24  C   UNL     1       2.443   7.650  18.769  0.00  0.00    +0.000 A 
ATOM     25  C   UNL     1       1.906   7.777  20.060  0.00  0.00    +0.000 A 
ATOM     26  C   UNL     1       0.970   8.772  20.376  0.00  0.00    +0.000 A 
ATOM     27  C   UNL     1       0.554   9.663  19.393  0.00  0.00    +0.000 A 
ATOM     28 CL   UNL     1      -0.557  10.917  19.782  0.00  0.00    +0.000 Cl
ATOM     29  C   UNL     1       1.050   9.554  18.102  0.00  0.00    +0.000 A 
ATOM     30  C   UNL     1       1.978   8.552  17.797  0.00  0.00    +0.000 A 
ENDBRANCH  21  24
ENDBRANCH  17  18
ENDBRANCH  16  17
ENDBRANCH   1  16
TORSDOF 6
ENDMDL
MODEL 2
REMARK VINA RESULT:      -8.2      2.901      3.858
REMARK  Name = 
REMARK  6 active torsions:
REMARK  status: ('A' for Active; 'I' for Inactive)
REMARK    1  A    between atoms: C_2  and  C_3
REMARK    2  A    between atoms: C_3  and  C_4
REMARK    3  A    between atoms: C_4  and  C_5
REMARK    4  A    between atoms: C_5  and  C_6
REMARK    5  A    between atoms: C_6  and  N_7
REMARK    6  A    between atoms: N_10  and  C_11
REMARK                            x       y       z     vdW  Elec       q    Type
REMARK                         _______ _______ _______ _____ _____    ______ ____
ROOT
ATOM      1  C   UNL     1       8.502   9.879  18.354  0.00  0.00    +0.000 C 
ENDROOT
BRANCH   1   2
ATOM      2  C   UNL     1       9.577  10.148  19.411  0.00  0.00    +0.000 C 
BRANCH   2   4
ATOM      3  O   UNL     1      11.548  11.481  19.377  0.00  0.00    +0.000 OA
ATOM      4  C   UNL     1      10.321  11.464  19.284  0.00  0.00    +0.000 C 
ATOM      5  N   UNL     1       9.507  12.539  19.020  0.00  0.00    +0.000 N 
ATOM      6  C   UNL     1       9.932  13.795  18.658  0.00  0.00    +0.000 A 
ATOM      7  N   UNL     1       9.134  14.833  18.725  0.00  0.00    +0.000 NA
ATOM      8  C   UNL     1       9.819  15.972  18.324  0.00  0.00    +0.000 A 
ATOM      9  C   UNL     1       9.324  17.291  18.347  0.00  0.00    +0.000 A 
ATOM     10  C   UNL     1      10.135  18.349  17.919  0.00  0.00    +0.000 A 
ATOM     11  C   UNL     1      11.420  18.106  17.446  0.00  0.00    +0.000 A 
ATOM     12  C   UNL     1      11.933  16.804  17.402  0.00  0.00    +0.000 A 
ATOM     13  C   UNL     1      11.119  15.755  17.862  0.00  0.00    +0.000 A 
ATOM     14  S   UNL     1      11.471  14.075  17.982  0.00  0.00    +0.000 S 
ATOM     15  H   UNL     1       8.525  12.494  19.249  0.00  0.00    +0.000 HD
ENDBRANCH   2   4
ENDBRANCH   1   2
BRANCH   1  16
ATOM     16  C   UNL     1       8.170   8.380  18.372  0.00  0.00    +0.000 C 
BRANCH  16  17
ATOM     17  C   UNL     1       7.537   7.818  17.094  0.00  0.00    +0.000 C 
BRANCH  17  18
ATOM     18  N   UNL     1       7.614   6.364  16.913  0.00  0.00    +0.000 NA
ATOM     19  C   UNL     1       7.469   5.583  18.167  0.00  0.00    +0.000 C 
ATOM     20  C   UNL     1       6.055   5.561  18.802  0.00  0.00    +0.000 C 
ATOM     21  N   UNL     1       5.043   5.198  17.798  0.00  0.00    +0.000 N 
ATOM     22  C   UNL     1       5.104   5.952  16.540  0.00  0.00    +0.000 C 
ATOM     23  C   UNL     1       6.550   5.909  15.976  0.00  0.00    +0.000 C 
BRANCH  21  24
ATOM     24  C   UNL     1       3.938   4.433  18.123  0.00  0.00    +0.000 A 
ATOM     25  C   UNL     1       2.666   4.992  18.324  0.00  0.00    +0.000 A 
ATOM     26  C   UNL     1       1.537   4.194  18.554  0.00  0.00    +0.000 A 
ATOM     27  C   UNL     1       1.666   2.811  18.585  0.00  0.00    +0.000 A 
ATOM     28 CL   UNL     1       0.279   1.820  18.817  0.00  0.00    +0.000 Cl
ATOM     29  C   UNL     1       2.912   2.225  18.408  0.00  0.00    +0.000 A 
ATOM     30  C   UNL     1       4.033   3.033  18.188  0.00  0.00    +0.000 A 
ENDBRANCH  21  24
ENDBRANCH  17  18
ENDBRANCH  16  17
ENDBRANCH   1  16
TORSDOF 6
ENDMDL
MODEL 3
REMARK VINA RESULT:      -8.0      4.160     10.701
REMARK  Name = 
REMARK  6 active torsions:
REMARK  status: ('A' for Active; 'I' for Inactive)
REMARK    1  A    between atoms: C_2  and  C_3
REMARK    2  A    between atoms: C_3  and  C_4
REMARK    3  A    between atoms: C_4  and  C_5
REMARK    4  A    between atoms: C_5  and  C_6
REMARK    5  A    between atoms: C_6  and  N_7
REMARK    6  A    between atoms: N_10  and  C_11
REMARK                            x       y       z     vdW  Elec       q    Type
REMARK                         _______ _______ _______ _____ _____    ______ ____
ROOT
ATOM      1  C   UNL     1       8.552   8.549  18.396  0.00  0.00    +0.000 C 
ENDROOT
BRANCH   1   2
ATOM      2  C   UNL     1       7.614   7.967  17.336  0.00  0.00    +0.000 C 
BRANCH   2   4
ATOM      3  O   UNL     1       7.655   5.705  18.074  0.00  0.00    +0.000 OA
ATOM      4  C   UNL     1       6.961   6.640  17.679  0.00  0.00    +0.000 C 
ATOM      5  N   UNL     1       5.594   6.644  17.548  0.00  0.00    +0.000 N 
ATOM      6  C   UNL     1       4.745   5.656  17.985  0.00  0.00    +0.000 A 
ATOM      7  N   UNL     1       3.508   5.578  17.557  0.00  0.00    +0.000 NA
ATOM      8  C   UNL     1       2.884   4.482  18.138  0.00  0.00    +0.000 A 
ATOM      9  C   UNL     1       1.582   4.021  17.856  0.00  0.00    +0.000 A 
ATOM     10  C   UNL     1       1.085   2.890  18.514  0.00  0.00    +0.000 A 
ATOM     11  C   UNL     1       1.856   2.231  19.465  0.00  0.00    +0.000 A 
ATOM     12  C   UNL     1       3.148   2.674  19.772  0.00  0.00    +0.000 A 
ATOM     13  C   UNL     1       3.647   3.792  19.083  0.00  0.00    +0.000 A 
ATOM     14  S   UNL     1       5.191   4.542  19.196  0.00  0.00    +0.000 S 
ATOM     15  H   UNL     1       5.147   7.328  16.954  0.00  0.00    +0.000 HD
ENDBRANCH   2   4
ENDBRANCH   1   2
BRANCH   1  16
ATOM     16  C   UNL     1       8.598  10.074  18.218  0.00  0.00    +0.000 C 
BRANCH  16  17
ATOM     17  C   UNL     1       9.983  10.720  18.327  0.00  0.00    +0.000 C 
BRANCH  17  18
ATOM     18  N   UNL     1      10.127  12.057  17.740  0.00  0.00    +0.000 NA
ATOM     19  C   UNL     1       9.099  13.032  18.181  0.00  0.00    +0.000 C 
ATOM     20  C   UNL     1       9.203  13.523  19.648  0.00  0.00    +0.000 C 
ATOM     21  N   UNL     1      10.569  13.979  19.945  0.00  0.00    +0.000 N 
ATOM     22  C   UNL     1      11.641  13.050  19.565  0.00  0.00    +0.000 C 
ATOM     23  C   UNL     1      11.460  12.625  18.083  0.00  0.00    +0.000 C 
BRANCH  21  24
ATOM     24  C   UNL     1      10.811  15.048  20.788  0.00  0.00    +0.000 A 
ATOM     25  C   UNL     1      10.214  15.161  22.053  0.00  0.00    +0.000 A 
ATOM     26  C   UNL     1      10.546  16.198  22.937  0.00  0.00    +0.000 A 
ATOM     27  C   UNL     1      11.491  17.145  22.562  0.00  0.00    +0.000 A 
ATOM     28 CL   UNL     1      11.943  18.392  23.657  0.00  0.00    +0.000 Cl
ATOM     29  C   UNL     1      12.089  17.073  21.311  0.00  0.00    +0.000 A 
ATOM     30  C   UNL     1      11.742  16.039  20.436  0.00  0.00    +0.000 A 
ENDBRANCH  21  24
ENDBRANCH  17  18
ENDBRANCH  16  17
ENDBRANCH   1  16
TORSDOF 6
ENDMDL
MODEL 4
REMARK VINA RESULT:      -8.0      4.297     10.568
REMARK  Name = 
REMARK  6 active torsions:
REMARK  status: ('A' for Active; 'I' for Inactive)
REMARK    1  A    between atoms: C_2  and  C_3
REMARK    2  A    between atoms: C_3  and  C_4
REMARK    3  A    between atoms: C_4  and  C_5
REMARK    4  A    between atoms: C_5  and  C_6
REMARK    5  A    between atoms: C_6  and  N_7
REMARK    6  A    between atoms: N_10  and  C_11
REMARK                            x       y       z     vdW  Elec       q    Type
REMARK                         _______ _______ _______ _____ _____    ______ ____
ROOT
ATOM      1  C   UNL     1       8.357   7.737  18.249  0.00  0.00    +0.000 C 
ENDROOT
BRANCH   1   2
ATOM      2  C   UNL     1       7.603   6.973  17.157  0.00  0.00    +0.000 C 
BRANCH   2   4
ATOM      3  O   UNL     1       5.266   7.215  16.783  0.00  0.00    +0.000 OA
ATOM      4  C   UNL     1       6.145   6.665  17.444  0.00  0.00    +0.000 C 
ATOM      5  N   UNL     1       5.960   5.724  18.428  0.00  0.00    +0.000 N 
ATOM      6  C   UNL     1       4.769   5.115  18.739  0.00  0.00    +0.000 A 
ATOM      7  N   UNL     1       4.603   4.473  19.870  0.00  0.00    +0.000 NA
ATOM      8  C   UNL     1       3.308   3.977  19.937  0.00  0.00    +0.000 A 
ATOM      9  C   UNL     1       2.729   3.310  21.036  0.00  0.00    +0.000 A 
ATOM     10  C   UNL     1       1.402   2.871  20.965  0.00  0.00    +0.000 A 
ATOM     11  C   UNL     1       0.655   3.064  19.808  0.00  0.00    +0.000 A 
ATOM     12  C   UNL     1       1.209   3.713  18.699  0.00  0.00    +0.000 A 
ATOM     13  C   UNL     1       2.532   4.176  18.793  0.00  0.00    +0.000 A 
ATOM     14  S   UNL     1       3.469   5.041  17.638  0.00  0.00    +0.000 S 
ATOM     15  H   UNL     1       6.691   5.550  19.101  0.00  0.00    +0.000 HD
ENDBRANCH   2   4
ENDBRANCH   1   2
BRANCH   1  16
ATOM     16  C   UNL     1       8.217   9.241  17.972  0.00  0.00    +0.000 C 
BRANCH  16  17
ATOM     17  C   UNL     1       9.008  10.169  18.901  0.00  0.00    +0.000 C 
BRANCH  17  18
ATOM     18  N   UNL     1       9.795  11.224  18.252  0.00  0.00    +0.000 NA
ATOM     19  C   UNL     1       9.080  12.516  18.103  0.00  0.00    +0.000 C 
ATOM     20  C   UNL     1       8.834  13.320  19.405  0.00  0.00    +0.000 C 
ATOM     21  N   UNL     1      10.082  13.458  20.171  0.00  0.00    +0.000 N 
ATOM     22  C   UNL     1      10.831  12.214  20.388  0.00  0.00    +0.000 C 
ATOM     23  C   UNL     1      11.037  11.487  19.031  0.00  0.00    +0.000 C 
BRANCH  21  24
ATOM     24  C   UNL     1      10.370  14.603  20.890  0.00  0.00    +0.000 A 
ATOM     25  C   UNL     1       9.865  14.832  22.180  0.00  0.00    +0.000 A 
ATOM     26  C   UNL     1      10.247  15.949  22.935  0.00  0.00    +0.000 A 
ATOM     27  C   UNL     1      11.149  16.863  22.405  0.00  0.00    +0.000 A 
ATOM     28 CL   UNL     1      11.662  18.211  23.342  0.00  0.00    +0.000 Cl
ATOM     29  C   UNL     1      11.655  16.678  21.126  0.00  0.00    +0.000 A 
ATOM     30  C   UNL     1      11.260  15.563  20.379  0.00  0.00    +0.000 A 
ENDBRANCH  21  24
ENDBRANCH  17  18
ENDBRANCH  16  17
ENDBRANCH   1  16
TORSDOF 6
ENDMDL
MODEL 5
REMARK VINA RESULT:      -7.9      6.758      8.734
REMARK  Name = 
REMARK  6 active torsions:
REMARK  status: ('A' for Active; 'I' for Inactive)
REMARK    1  A    between atoms: C_2  and  C_3
REMARK    2  A    between atoms: C_3  and  C_4
REMARK    3  A    between atoms: C_4  and  C_5
REMARK    4  A    between atoms: C_5  and  C_6
REMARK    5  A    between atoms: C_6  and  N_7
REMARK    6  A    between atoms: N_10  and  C_11
REMARK                            x       y       z     vdW  Elec       q    Type
REMARK                         _______ _______ _______ _____ _____    ______ ____
ROOT
ATOM      1  C   UNL     1       2.111   5.048  21.304  0.00  0.00    +0.000 C 
ENDROOT
BRANCH   1   2
ATOM      2  C   UNL     1       2.551   5.817  20.055  0.00  0.00    +0.000 C 
BRANCH   2   4
ATOM      3  O   UNL     1       2.398   7.935  18.982  0.00  0.00    +0.000 OA
ATOM      4  C   UNL     1       2.097   7.262  19.966  0.00  0.00    +0.000 C 
ATOM      5  N   UNL     1       1.322   7.666  21.026  0.00  0.00    +0.000 N 
ATOM      6  C   UNL     1       0.616   8.842  21.100  0.00  0.00    +0.000 A 
ATOM      7  N   UNL     1       0.161   9.298  22.242  0.00  0.00    +0.000 NA
ATOM      8  C   UNL     1      -0.492  10.505  22.033  0.00  0.00    +0.000 A 
ATOM      9  C   UNL     1      -1.035  11.340  23.031  0.00  0.00    +0.000 A 
ATOM     10  C   UNL     1      -1.659  12.541  22.672  0.00  0.00    +0.000 A 
ATOM     11  C   UNL     1      -1.773  12.905  21.335  0.00  0.00    +0.000 A 
ATOM     12  C   UNL     1      -1.253  12.090  20.323  0.00  0.00    +0.000 A 
ATOM     13  C   UNL     1      -0.602  10.902  20.698  0.00  0.00    +0.000 A 
ATOM     14  S   UNL     1       0.175   9.727  19.710  0.00  0.00    +0.000 S 
ATOM     15  H   UNL     1       1.370   7.168  21.903  0.00  0.00    +0.000 HD
ENDBRANCH   2   4
ENDBRANCH   1   2
BRANCH   1  16
ATOM     16  C   UNL     1       2.485   3.571  21.121  0.00  0.00    +0.000 C 
BRANCH  16  17
ATOM     17  C   UNL     1       1.774   2.836  19.979  0.00  0.00    +0.000 C 
BRANCH  17  18
ATOM     18  N   UNL     1       2.595   1.915  19.185  0.00  0.00    +0.000 NA
ATOM     19  C   UNL     1       2.347   1.979  17.723  0.00  0.00    +0.000 C 
ATOM     20  C   UNL     1       2.845   3.255  16.998  0.00  0.00    +0.000 C 
ATOM     21  N   UNL     1       4.250   3.529  17.338  0.00  0.00    +0.000 N 
ATOM     22  C   UNL     1       4.566   3.514  18.772  0.00  0.00    +0.000 C 
ATOM     23  C   UNL     1       4.040   2.198  19.407  0.00  0.00    +0.000 C 
BRANCH  21  24
ATOM     24  C   UNL     1       5.131   4.060  16.415  0.00  0.00    +0.000 A 
ATOM     25  C   UNL     1       6.277   4.777  16.791  0.00  0.00    +0.000 A 
ATOM     26  C   UNL     1       7.213   5.222  15.847  0.00  0.00    +0.000 A 
ATOM     27  C   UNL     1       7.013   4.951  14.499  0.00  0.00    +0.000 A 
ATOM     28 CL   UNL     1       8.180   5.449  13.337  0.00  0.00    +0.000 Cl
ATOM     29  C   UNL     1       5.882   4.260  14.090  0.00  0.00    +0.000 A 
ATOM     30  C   UNL     1       4.951   3.829  15.041  0.00  0.00    +0.000 A 
ENDBRANCH  21  24
ENDBRANCH  17  18
ENDBRANCH  16  17
ENDBRANCH   1  16
TORSDOF 6
ENDMDL
MODEL 6
REMARK VINA RESULT:      -7.7      4.073      5.093
REMARK  Name = 
REMARK  6 active torsions:
REMARK  status: ('A' for Active; 'I' for Inactive)
REMARK    1  A    between atoms: C_2  and  C_3
REMARK    2  A    between atoms: C_3  and  C_4
REMARK    3  A    between atoms: C_4  and  C_5
REMARK    4  A    between atoms: C_5  and  C_6
REMARK    5  A    between atoms: C_6  and  N_7
REMARK    6  A    between atoms: N_10  and  C_11
REMARK                            x       y       z     vdW  Elec       q    Type
REMARK                         _______ _______ _______ _____ _____    ______ ____
ROOT
ATOM      1  C   UNL     1       9.168   9.668  18.891  0.00  0.00    +0.000 C 
ENDROOT
BRANCH   1   2
ATOM      2  C   UNL     1       9.253  11.140  18.480  0.00  0.00    +0.000 C 
BRANCH   2   4
ATOM      3  O   UNL     1       9.976  13.222  19.377  0.00  0.00    +0.000 OA
ATOM      4  C   UNL     1       9.443  12.138  19.607  0.00  0.00    +0.000 C 
ATOM      5  N   UNL     1       8.932  11.718  20.811  0.00  0.00    +0.000 N 
ATOM      6  C   UNL     1       8.784  12.497  21.934  0.00  0.00    +0.000 A 
ATOM      7  N   UNL     1       8.586  11.965  23.115  0.00  0.00    +0.000 NA
ATOM      8  C   UNL     1       8.494  12.971  24.068  0.00  0.00    +0.000 A 
ATOM      9  C   UNL     1       8.372  12.789  25.460  0.00  0.00    +0.000 A 
ATOM     10  C   UNL     1       8.300  13.902  26.306  0.00  0.00    +0.000 A 
ATOM     11  C   UNL     1       8.320  15.189  25.781  0.00  0.00    +0.000 A 
ATOM     12  C   UNL     1       8.429  15.399  24.402  0.00  0.00    +0.000 A 
ATOM     13  C   UNL     1       8.532  14.274  23.566  0.00  0.00    +0.000 A 
ATOM     14  S   UNL     1       8.724  14.200  21.858  0.00  0.00    +0.000 S 
ATOM     15  H   UNL     1       8.785  10.734  20.981  0.00  0.00    +0.000 HD
ENDBRANCH   2   4
ENDBRANCH   1   2
BRANCH   1  16
ATOM     16  C   UNL     1       8.205   8.951  17.933  0.00  0.00    +0.000 C 
BRANCH  16  17
ATOM     17  C   UNL     1       8.106   7.430  18.096  0.00  0.00    +0.000 C 
BRANCH  17  18
ATOM     18  N   UNL     1       7.490   6.695  16.986  0.00  0.00    +0.000 NA
ATOM     19  C   UNL     1       7.443   5.224  17.178  0.00  0.00    +0.000 C 
ATOM     20  C   UNL     1       6.448   4.703  18.247  0.00  0.00    +0.000 C 
ATOM     21  N   UNL     1       5.112   5.282  18.036  0.00  0.00    +0.000 N 
ATOM     22  C   UNL     1       5.076   6.740  17.869  0.00  0.00    +0.000 C 
ATOM     23  C   UNL     1       6.093   7.165  16.775  0.00  0.00    +0.000 C 
BRANCH  21  24
ATOM     24  C   UNL     1       3.960   4.559  18.282  0.00  0.00    +0.000 A 
ATOM     25  C   UNL     1       2.715   4.918  17.743  0.00  0.00    +0.000 A 
ATOM     26  C   UNL     1       1.576   4.119  17.919  0.00  0.00    +0.000 A 
ATOM     27  C   UNL     1       1.669   2.938  18.645  0.00  0.00    +0.000 A 
ATOM     28 CL   UNL     1       0.290   1.926  18.826  0.00  0.00    +0.000 Cl
ATOM     29  C   UNL     1       2.881   2.562  19.208  0.00  0.00    +0.000 A 
ATOM     30  C   UNL     1       4.008   3.372  19.032  0.00  0.00    +0.000 A 
ENDBRANCH  21  24
ENDBRANCH  17  18
ENDBRANCH  16  17
ENDBRANCH   1  16
TORSDOF 6
ENDMDL
MODEL 7
REMARK VINA RESULT:      -7.6      4.302      5.222
REMARK  Name = 
REMARK  6 active torsions:
REMARK  status: ('A' for Active; 'I' for Inactive)
REMARK    1  A    between atoms: C_2  and  C_3
REMARK    2  A    between atoms: C_3  and  C_4
REMARK    3  A    between atoms: C_4  and  C_5
REMARK    4  A    between atoms: C_5  and  C_6
REMARK    5  A    between atoms: C_6  and  N_7
REMARK    6  A    between atoms: N_10  and  C_11
REMARK                            x       y       z     vdW  Elec       q    Type
REMARK                         _______ _______ _______ _____ _____    ______ ____
ROOT
ATOM      1  C   UNL     1       8.462  10.525  18.251  0.00  0.00    +0.000 C 
ENDROOT
BRANCH   1   2
ATOM      2  C   UNL     1       9.433  10.234  19.399  0.00  0.00    +0.000 C 
BRANCH   2   4
ATOM      3  O   UNL     1      10.252  12.326  20.182  0.00  0.00    +0.000 OA
ATOM      4  C   UNL     1       9.582  11.328  20.440  0.00  0.00    +0.000 C 
ATOM      5  N   UNL     1       8.878  11.092  21.596  0.00  0.00    +0.000 N 
ATOM      6  C   UNL     1       8.671  12.000  22.606  0.00  0.00    +0.000 A 
ATOM      7  N   UNL     1       8.267  11.622  23.795  0.00  0.00    +0.000 NA
ATOM      8  C   UNL     1       8.161  12.730  24.624  0.00  0.00    +0.000 A 
ATOM      9  C   UNL     1       7.843  12.714  25.997  0.00  0.00    +0.000 A 
ATOM     10  C   UNL     1       7.780  13.915  26.713  0.00  0.00    +0.000 A 
ATOM     11  C   UNL     1       8.005  15.130  26.075  0.00  0.00    +0.000 A 
ATOM     12  C   UNL     1       8.312  15.176  24.710  0.00  0.00    +0.000 A 
ATOM     13  C   UNL     1       8.401  13.961  24.009  0.00  0.00    +0.000 A 
ATOM     14  S   UNL     1       8.801  13.682  22.359  0.00  0.00    +0.000 S 
ATOM     15  H   UNL     1       8.608  10.150  21.837  0.00  0.00    +0.000 HD
ENDBRANCH   2   4
ENDBRANCH   1   2
BRANCH   1  16
ATOM     16  C   UNL     1       8.143   9.202  17.539  0.00  0.00    +0.000 C 
BRANCH  16  17
ATOM     17  C   UNL     1       8.030   7.967  18.440  0.00  0.00    +0.000 C 
BRANCH  17  18
ATOM     18  N   UNL     1       8.004   6.666  17.762  0.00  0.00    +0.000 NA
ATOM     19  C   UNL     1       7.873   5.504  18.675  0.00  0.00    +0.000 C 
ATOM     20  C   UNL     1       6.493   5.321  19.359  0.00  0.00    +0.000 C 
ATOM     21  N   UNL     1       5.411   5.375  18.364  0.00  0.00    +0.000 N 
ATOM     22  C   UNL     1       5.457   6.518  17.444  0.00  0.00    +0.000 C 
ATOM     23  C   UNL     1       6.867   6.613  16.801  0.00  0.00    +0.000 C 
BRANCH  21  24
ATOM     24  C   UNL     1       4.278   4.593  18.480  0.00  0.00    +0.000 A 
ATOM     25  C   UNL     1       3.694   4.289  19.720  0.00  0.00    +0.000 A 
ATOM     26  C   UNL     1       2.489   3.580  19.815  0.00  0.00    +0.000 A 
ATOM     27  C   UNL     1       1.844   3.159  18.658  0.00  0.00    +0.000 A 
ATOM     28 CL   UNL     1       0.341   2.331  18.762  0.00  0.00    +0.000 Cl
ATOM     29  C   UNL     1       2.403   3.426  17.416  0.00  0.00    +0.000 A 
ATOM     30  C   UNL     1       3.610   4.128  17.335  0.00  0.00    +0.000 A 
ENDBRANCH  21  24
ENDBRANCH  17  18
ENDBRANCH  16  17
ENDBRANCH   1  16
TORSDOF 6
ENDMDL
MODEL 8
REMARK VINA RESULT:      -7.5      3.648      9.572
REMARK  Name = 
REMARK  6 active torsions:
REMARK  status: ('A' for Active; 'I' for Inactive)
REMARK    1  A    between atoms: C_2  and  C_3
REMARK    2  A    between atoms: C_3  and  C_4
REMARK    3  A    between atoms: C_4  and  C_5
REMARK    4  A    between atoms: C_5  and  C_6
REMARK    5  A    between atoms: C_6  and  N_7
REMARK    6  A    between atoms: N_10  and  C_11
REMARK                            x       y       z     vdW  Elec       q    Type
REMARK                         _______ _______ _______ _____ _____    ______ ____
ROOT
ATOM      1  C   UNL     1       8.591   9.584  18.675  0.00  0.00    +0.000 C 
ENDROOT
BRANCH   1   2
ATOM      2  C   UNL     1       8.005   8.717  17.558  0.00  0.00    +0.000 C 
BRANCH   2   4
ATOM      3  O   UNL     1       8.213   6.675  18.762  0.00  0.00    +0.000 OA
ATOM      4  C   UNL     1       7.545   7.329  17.962  0.00  0.00    +0.000 C 
ATOM      5  N   UNL     1       6.350   6.954  17.398  0.00  0.00    +0.000 N 
ATOM      6  C   UNL     1       5.610   5.850  17.748  0.00  0.00    +0.000 A 
ATOM      7  N   UNL     1       4.659   5.390  16.972  0.00  0.00    +0.000 NA
ATOM      8  C   UNL     1       4.092   4.263  17.552  0.00  0.00    +0.000 A 
ATOM      9  C   UNL     1       3.103   3.440  16.976  0.00  0.00    +0.000 A 
ATOM     10  C   UNL     1       2.629   2.324  17.676  0.00  0.00    +0.000 A 
ATOM     11  C   UNL     1       3.109   2.034  18.949  0.00  0.00    +0.000 A 
ATOM     12  C   UNL     1       4.083   2.840  19.549  0.00  0.00    +0.000 A 
ATOM     13  C   UNL     1       4.572   3.940  18.824  0.00  0.00    +0.000 A 
ATOM     14  S   UNL     1       5.787   5.078  19.257  0.00  0.00    +0.000 S 
ATOM     15  H   UNL     1       6.029   7.405  16.554  0.00  0.00    +0.000 HD
ENDBRANCH   2   4
ENDBRANCH   1   2
BRANCH   1  16
ATOM     16  C   UNL     1       9.330  10.768  18.034  0.00  0.00    +0.000 C 
BRANCH  16  17
ATOM     17  C   UNL     1      10.534  11.308  18.813  0.00  0.00    +0.000 C 
BRANCH  17  18
ATOM     18  N   UNL     1      10.857  12.725  18.613  0.00  0.00    +0.000 NA
ATOM     19  C   UNL     1       9.944  13.435  17.683  0.00  0.00    +0.000 C 
ATOM     20  C   UNL     1       8.507  13.701  18.202  0.00  0.00    +0.000 C 
ATOM     21  N   UNL     1       8.545  14.326  19.533  0.00  0.00    +0.000 N 
ATOM     22  C   UNL     1       9.404  13.659  20.518  0.00  0.00    +0.000 C 
ATOM     23  C   UNL     1      10.819  13.446  19.916  0.00  0.00    +0.000 C 
BRANCH  21  24
ATOM     24  C   UNL     1       7.616  15.275  19.917  0.00  0.00    +0.000 A 
ATOM     25  C   UNL     1       7.673  16.607  19.478  0.00  0.00    +0.000 A 
ATOM     26  C   UNL     1       6.668  17.533  19.794  0.00  0.00    +0.000 A 
ATOM     27  C   UNL     1       5.581  17.133  20.562  0.00  0.00    +0.000 A 
ATOM     28 CL   UNL     1       4.319  18.247  20.915  0.00  0.00    +0.000 Cl
ATOM     29  C   UNL     1       5.502  15.828  21.028  0.00  0.00    +0.000 A 
ATOM     30  C   UNL     1       6.515  14.916  20.712  0.00  0.00    +0.000 A 
ENDBRANCH  21  24
ENDBRANCH  17  18
ENDBRANCH  16  17
ENDBRANCH   1  16
TORSDOF 6
ENDMDL
MODEL 9
REMARK VINA RESULT:      -7.4      1.888      3.121
REMARK  Name = 
REMARK  6 active torsions:
REMARK  status: ('A' for Active; 'I' for Inactive)
REMARK    1  A    between atoms: C_2  and  C_3
REMARK    2  A    between atoms: C_3  and  C_4
REMARK    3  A    between atoms: C_4  and  C_5
REMARK    4  A    between atoms: C_5  and  C_6
REMARK    5  A    between atoms: C_6  and  N_7
REMARK    6  A    between atoms: N_10  and  C_11
REMARK                            x       y       z     vdW  Elec       q    Type
REMARK                         _______ _______ _______ _____ _____    ______ ____
ROOT
ATOM      1  C   UNL     1       6.283   5.660  19.384  0.00  0.00    +0.000 C 
ENDROOT
BRANCH   1   2
ATOM      2  C   UNL     1       7.555   5.720  18.534  0.00  0.00    +0.000 C 
BRANCH   2   4
ATOM      3  O   UNL     1       7.653   7.385  16.837  0.00  0.00    +0.000 OA
ATOM      4  C   UNL     1       7.934   7.088  17.997  0.00  0.00    +0.000 C 
ATOM      5  N   UNL     1       8.537   7.901  18.926  0.00  0.00    +0.000 N 
ATOM      6  C   UNL     1       8.791   9.243  18.771  0.00  0.00    +0.000 A 
ATOM      7  N   UNL     1       9.633   9.874  19.552  0.00  0.00    +0.000 NA
ATOM      8  C   UNL     1       9.717  11.205  19.164  0.00  0.00    +0.000 A 
ATOM      9  C   UNL     1      10.583  12.176  19.706  0.00  0.00    +0.000 A 
ATOM     10  C   UNL     1      10.567  13.483  19.207  0.00  0.00    +0.000 A 
ATOM     11  C   UNL     1       9.682  13.841  18.195  0.00  0.00    +0.000 A 
ATOM     12  C   UNL     1       8.803  12.900  17.646  0.00  0.00    +0.000 A 
ATOM     13  C   UNL     1       8.851  11.583  18.136  0.00  0.00    +0.000 A 
ATOM     14  S   UNL     1       7.948  10.204  17.643  0.00  0.00    +0.000 S 
ATOM     15  H   UNL     1       8.985   7.496  19.734  0.00  0.00    +0.000 HD
ENDBRANCH   2   4
ENDBRANCH   1   2
BRANCH   1  16
ATOM     16  C   UNL     1       5.124   5.198  18.489  0.00  0.00    +0.000 C 
BRANCH  16  17
ATOM     17  C   UNL     1       4.283   6.312  17.854  0.00  0.00    +0.000 C 
BRANCH  17  18
ATOM     18  N   UNL     1       2.827   6.139  17.905  0.00  0.00    +0.000 NA
ATOM     19  C   UNL     1       2.300   5.786  19.247  0.00  0.00    +0.000 C 
ATOM     20  C   UNL     1       2.335   6.908  20.316  0.00  0.00    +0.000 C 
ATOM     21  N   UNL     1       1.736   8.144  19.788  0.00  0.00    +0.000 N 
ATOM     22  C   UNL     1       2.233   8.575  18.475  0.00  0.00    +0.000 C 
ATOM     23  C   UNL     1       2.149   7.392  17.473  0.00  0.00    +0.000 C 
BRANCH  21  24
ATOM     24  C   UNL     1       0.999   8.994  20.590  0.00  0.00    +0.000 A 
ATOM     25  C   UNL     1       0.248  10.060  20.070  0.00  0.00    +0.000 A 
ATOM     26  C   UNL     1      -0.575  10.851  20.885  0.00  0.00    +0.000 A 
ATOM     27  C   UNL     1      -0.658  10.583  22.246  0.00  0.00    +0.000 A 
ATOM     28 CL   UNL     1      -1.701  11.515  23.246  0.00  0.00    +0.000 Cl
ATOM     29  C   UNL     1       0.085   9.548  22.797  0.00  0.00    +0.000 A 
ATOM     30  C   UNL     1       0.909   8.772  21.974  0.00  0.00    +0.000 A 
ENDBRANCH  21  24
ENDBRANCH  17  18
ENDBRANCH  16  17
ENDBRANCH   1  16
TORSDOF 6
ENDMDL
