MODEL 1
REMARK VINA RESULT:      -8.2      0.000      0.000
REMARK  Name = 
REMARK  7 active torsions:
REMARK  status: ('A' for Active; 'I' for Inactive)
REMARK    1  A    between atoms: C_1  and  C_2
REMARK    2  A    between atoms: C_6  and  O_7
REMARK    3  A    between atoms: C_8  and  C_9
REMARK    4  A    between atoms: C_16  and  O_17
REMARK    5  A    between atoms: C_18  and  C_19
REMARK    6  A    between atoms: C_19  and  O_21
REMARK    7  A    between atoms: C_23  and  N_24
REMARK                            x       y       z     vdW  Elec       q    Type
REMARK                         _______ _______ _______ _____ _____    ______ ____
ROOT
ATOM      1  C   UNL     1      -0.050  10.335  19.504  0.00  0.00    +0.000 C 
ATOM      2  O   UNL     1      -0.202  10.419  18.287  0.00  0.00    +0.000 OA
ATOM      3  N   UNL     1       0.892   9.535  20.113  0.00  0.00    +0.000 N 
ATOM      4  C   UNL     1       1.743   8.696  19.400  0.00  0.00    +0.000 A 
ATOM      5  C   UNL     1       2.396   9.138  18.271  0.00  0.00    +0.000 A 
ATOM      6  C   UNL     1       3.204   8.244  17.581  0.00  0.00    +0.000 A 
ATOM      7  C   UNL     1       3.301   6.898  17.990  0.00  0.00    +0.000 A 
ATOM      8  C   UNL     1       4.033   5.906  17.274  0.00  0.00    +0.000 A 
ATOM      9  C   UNL     1       4.022   4.558  17.666  0.00  0.00    +0.000 A 
ATOM     10  C   UNL     1       3.289   4.199  18.797  0.00  0.00    +0.000 A 
ATOM     11  C   UNL     1       2.611   5.191  19.517  0.00  0.00    +0.000 A 
ATOM     12  C   UNL     1       2.588   6.539  19.161  0.00  0.00    +0.000 A 
ATOM     13  N   UNL     1       1.882   7.447  19.875  0.00  0.00    +0.000 NA
ATOM     14  H   UNL     1       0.712   9.262  21.075  0.00  0.00    +0.000 HD
ENDROOT
BRANCH   1  21
ATOM     15  C   UNL     1      -5.234  14.459  23.894  0.00  0.00    +0.000 C 
ATOM     16  C   UNL     1      -4.412  13.840  22.812  0.00  0.00    +0.000 A 
ATOM     17  C   UNL     1      -4.690  14.073  21.478  0.00  0.00    +0.000 A 
ATOM     18  C   UNL     1      -3.895  13.471  20.511  0.00  0.00    +0.000 A 
ATOM     19  C   UNL     1      -2.819  12.643  20.885  0.00  0.00    +0.000 A 
ATOM     20  C   UNL     1      -1.956  11.992  19.964  0.00  0.00    +0.000 A 
ATOM     21  C   UNL     1      -0.953  11.115  20.403  0.00  0.00    +0.000 A 
ATOM     22  C   UNL     1      -0.777  10.947  21.780  0.00  0.00    +0.000 A 
ATOM     23  C   UNL     1      -1.599  11.619  22.689  0.00  0.00    +0.000 A 
ATOM     24  C   UNL     1      -2.623  12.453  22.269  0.00  0.00    +0.000 A 
ATOM     25  N   UNL     1      -3.389  13.040  23.204  0.00  0.00    +0.000 NA
BRANCH  20  26
ATOM     26  O   UNL     1      -2.080  12.230  18.614  0.00  0.00    +0.000 OA
ATOM     27  H   UNL     1      -1.902  13.172  18.447  0.00  0.00    +0.000 HD
ENDBRANCH  20  26
ENDBRANCH   1  21
BRANCH  11  28
ATOM     28  N   UNL     1       1.832   4.765  20.659  0.00  0.00    +0.000 N 
ATOM     29  O   UNL     1       0.639   4.496  20.449  0.00  0.00    +0.000 OA
ATOM     30  O   UNL     1       2.423   4.623  21.737  0.00  0.00    +0.000 OA
ENDBRANCH  11  28
BRANCH   8  31
ATOM     31  O   UNL     1       4.768   6.226  16.153  0.00  0.00    +0.000 OA
ATOM     32  H   UNL     1       4.915   5.442  15.597  0.00  0.00    +0.000 HD
ENDBRANCH   8  31
BRANCH   9  33
ATOM     33  C   UNL     1       4.725   3.458  16.943  0.00  0.00    +0.000 C 
ATOM     34  O   UNL     1       5.535   3.683  16.059  0.00  0.00    +0.000 OA
BRANCH  33  35
ATOM     35  O   UNL     1       4.410   2.204  17.327  0.00  0.00    +0.000 OA
ATOM     36  H   UNL     1       3.677   2.184  17.983  0.00  0.00    +0.000 HD
ENDBRANCH  33  35
ENDBRANCH   9  33
TORSDOF 6
ENDMDL
MODEL 2
REMARK VINA RESULT:      -8.1      2.420     10.149
REMARK  Name = 
REMARK  7 active torsions:
REMARK  status: ('A' for Active; 'I' for Inactive)
REMARK    1  A    between atoms: C_1  and  C_2
REMARK    2  A    between atoms: C_6  and  O_7
REMARK    3  A    between atoms: C_8  and  C_9
REMARK    4  A    between atoms: C_16  and  O_17
REMARK    5  A    between atoms: C_18  and  C_19
REMARK    6  A    between atoms: C_19  and  O_21
REMARK    7  A    between atoms: C_23  and  N_24
REMARK                            x       y       z     vdW  Elec       q    Type
REMARK                         _______ _______ _______ _____ _____    ______ ____
ROOT
ATOM      1  C   UNL     1       1.483   7.615  20.427  0.00  0.00    +0.000 C 
ATOM      2  O   UNL     1       0.696   6.981  21.125  0.00  0.00    +0.000 OA
ATOM      3  N   UNL     1       1.490   8.989  20.321  0.00  0.00    +0.000 N 
ATOM      4  C   UNL     1       0.561   9.800  20.966  0.00  0.00    +0.000 A 
ATOM      5  C   UNL     1       0.234   9.594  22.288  0.00  0.00    +0.000 A 
ATOM      6  C   UNL     1      -0.725  10.412  22.867  0.00  0.00    +0.000 A 
ATOM      7  C   UNL     1      -1.397  11.388  22.102  0.00  0.00    +0.000 A 
ATOM      8  C   UNL     1      -2.459  12.195  22.606  0.00  0.00    +0.000 A 
ATOM      9  C   UNL     1      -3.161  13.086  21.779  0.00  0.00    +0.000 A 
ATOM     10  C   UNL     1      -2.787  13.188  20.440  0.00  0.00    +0.000 A 
ATOM     11  C   UNL     1      -1.713  12.423  19.968  0.00  0.00    +0.000 A 
ATOM     12  C   UNL     1      -0.992  11.521  20.750  0.00  0.00    +0.000 A 
ATOM     13  N   UNL     1       0.013  10.779  20.228  0.00  0.00    +0.000 NA
ATOM     14  H   UNL     1       1.911   9.384  19.485  0.00  0.00    +0.000 HD
ENDROOT
BRANCH   1  21
ATOM     15  C   UNL     1       6.967   4.140  15.843  0.00  0.00    +0.000 C 
ATOM     16  C   UNL     1       5.910   5.006  16.446  0.00  0.00    +0.000 A 
ATOM     17  C   UNL     1       5.475   6.154  15.808  0.00  0.00    +0.000 A 
ATOM     18  C   UNL     1       4.491   6.925  16.413  0.00  0.00    +0.000 A 
ATOM     19  C   UNL     1       3.941   6.541  17.651  0.00  0.00    +0.000 A 
ATOM     20  C   UNL     1       2.931   7.268  18.336  0.00  0.00    +0.000 A 
ATOM     21  C   UNL     1       2.486   6.871  19.606  0.00  0.00    +0.000 A 
ATOM     22  C   UNL     1       3.013   5.699  20.156  0.00  0.00    +0.000 A 
ATOM     23  C   UNL     1       3.977   4.959  19.465  0.00  0.00    +0.000 A 
ATOM     24  C   UNL     1       4.459   5.363  18.231  0.00  0.00    +0.000 A 
ATOM     25  N   UNL     1       5.407   4.614  17.642  0.00  0.00    +0.000 NA
BRANCH  20  26
ATOM     26  O   UNL     1       2.357   8.372  17.750  0.00  0.00    +0.000 OA
ATOM     27  H   UNL     1       2.507   8.327  16.789  0.00  0.00    +0.000 HD
ENDBRANCH  20  26
ENDBRANCH   1  21
BRANCH  11  28
ATOM     28  N   UNL     1      -1.388  12.532  18.563  0.00  0.00    +0.000 N 
ATOM     29  O   UNL     1      -2.038  11.818  17.784  0.00  0.00    +0.000 OA
ATOM     30  O   UNL     1      -0.550  13.381  18.232  0.00  0.00    +0.000 OA
ENDBRANCH  11  28
BRANCH   8  31
ATOM     31  O   UNL     1      -2.853  12.119  23.924  0.00  0.00    +0.000 OA
ATOM     32  H   UNL     1      -2.399  11.393  24.383  0.00  0.00    +0.000 HD
ENDBRANCH   8  31
BRANCH   9  33
ATOM     33  C   UNL     1      -4.310  13.929  22.224  0.00  0.00    +0.000 C 
ATOM     34  O   UNL     1      -4.311  15.141  22.085  0.00  0.00    +0.000 OA
BRANCH  33  35
ATOM     35  O   UNL     1      -5.343  13.268  22.786  0.00  0.00    +0.000 OA
ATOM     36  H   UNL     1      -5.082  12.785  23.603  0.00  0.00    +0.000 HD
ENDBRANCH  33  35
ENDBRANCH   9  33
TORSDOF 6
ENDMDL
MODEL 3
REMARK VINA RESULT:      -7.9      2.386     10.347
REMARK  Name = 
REMARK  7 active torsions:
REMARK  status: ('A' for Active; 'I' for Inactive)
REMARK    1  A    between atoms: C_1  and  C_2
REMARK    2  A    between atoms: C_6  and  O_7
REMARK    3  A    between atoms: C_8  and  C_9
REMARK    4  A    between atoms: C_16  and  O_17
REMARK    5  A    between atoms: C_18  and  C_19
REMARK    6  A    between atoms: C_19  and  O_21
REMARK    7  A    between atoms: C_23  and  N_24
REMARK                            x       y       z     vdW  Elec       q    Type
REMARK                         _______ _______ _______ _____ _____    ______ ____
ROOT
ATOM      1  C   UNL     1       1.385   8.113  20.336  0.00  0.00    +0.000 C 
ATOM      2  O   UNL     1       0.896   7.515  21.291  0.00  0.00    +0.000 OA
ATOM      3  N   UNL     1       1.113   9.428  20.024  0.00  0.00    +0.000 N 
ATOM      4  C   UNL     1       0.208  10.201  20.744  0.00  0.00    +0.000 A 
ATOM      5  C   UNL     1       0.214  10.205  22.121  0.00  0.00    +0.000 A 
ATOM      6  C   UNL     1      -0.737  10.969  22.783  0.00  0.00    +0.000 A 
ATOM      7  C   UNL     1      -1.725  11.673  22.064  0.00  0.00    +0.000 A 
ATOM      8  C   UNL     1      -2.787  12.397  22.681  0.00  0.00    +0.000 A 
ATOM      9  C   UNL     1      -3.802  13.002  21.924  0.00  0.00    +0.000 A 
ATOM     10  C   UNL     1      -3.746  12.901  20.534  0.00  0.00    +0.000 A 
ATOM     11  C   UNL     1      -2.674  12.225  19.938  0.00  0.00    +0.000 A 
ATOM     12  C   UNL     1      -1.648  11.604  20.650  0.00  0.00    +0.000 A 
ATOM     13  N   UNL     1      -0.657  10.931  20.020  0.00  0.00    +0.000 NA
ATOM     14  H   UNL     1       1.266   9.713  19.061  0.00  0.00    +0.000 HD
ENDROOT
BRANCH   1  21
ATOM     15  C   UNL     1       6.088   3.755  15.640  0.00  0.00    +0.000 C 
ATOM     16  C   UNL     1       5.229   4.309  16.729  0.00  0.00    +0.000 A 
ATOM     17  C   UNL     1       4.902   3.552  17.839  0.00  0.00    +0.000 A 
ATOM     18  C   UNL     1       4.098   4.115  18.822  0.00  0.00    +0.000 A 
ATOM     19  C   UNL     1       3.631   5.437  18.693  0.00  0.00    +0.000 A 
ATOM     20  C   UNL     1       2.809   6.090  19.650  0.00  0.00    +0.000 A 
ATOM     21  C   UNL     1       2.312   7.381  19.419  0.00  0.00    +0.000 A 
ATOM     22  C   UNL     1       2.700   8.042  18.250  0.00  0.00    +0.000 A 
ATOM     23  C   UNL     1       3.542   7.417  17.326  0.00  0.00    +0.000 A 
ATOM     24  C   UNL     1       4.005   6.125  17.519  0.00  0.00    +0.000 A 
ATOM     25  N   UNL     1       4.787   5.581  16.570  0.00  0.00    +0.000 NA
BRANCH  20  26
ATOM     26  O   UNL     1       2.502   5.466  20.837  0.00  0.00    +0.000 OA
ATOM     27  H   UNL     1       3.236   4.873  21.075  0.00  0.00    +0.000 HD
ENDBRANCH  20  26
ENDBRANCH   1  21
BRANCH  11  28
ATOM     28  N   UNL     1      -2.680  12.111  18.496  0.00  0.00    +0.000 N 
ATOM     29  O   UNL     1      -3.723  11.686  17.976  0.00  0.00    +0.000 OA
ATOM     30  O   UNL     1      -1.685  12.519  17.884  0.00  0.00    +0.000 OA
ENDBRANCH  11  28
BRANCH   8  31
ATOM     31  O   UNL     1      -2.872  12.517  24.051  0.00  0.00    +0.000 OA
ATOM     32  H   UNL     1      -2.809  13.448  24.325  0.00  0.00    +0.000 HD
ENDBRANCH   8  31
BRANCH   9  33
ATOM     33  C   UNL     1      -4.967  13.736  22.499  0.00  0.00    +0.000 C 
ATOM     34  O   UNL     1      -6.114  13.485  22.169  0.00  0.00    +0.000 OA
BRANCH  33  35
ATOM     35  O   UNL     1      -4.673  14.694  23.403  0.00  0.00    +0.000 OA
ATOM     36  H   UNL     1      -3.712  14.734  23.610  0.00  0.00    +0.000 HD
ENDBRANCH  33  35
ENDBRANCH   9  33
TORSDOF 6
ENDMDL
MODEL 4
REMARK VINA RESULT:      -7.9      0.943      1.509
REMARK  Name = 
REMARK  7 active torsions:
REMARK  status: ('A' for Active; 'I' for Inactive)
REMARK    1  A    between atoms: C_1  and  C_2
REMARK    2  A    between atoms: C_6  and  O_7
REMARK    3  A    between atoms: C_8  and  C_9
REMARK    4  A    between atoms: C_16  and  O_17
REMARK    5  A    between atoms: C_18  and  C_19
REMARK    6  A    between atoms: C_19  and  O_21
REMARK    7  A    between atoms: C_23  and  N_24
REMARK                            x       y       z     vdW  Elec       q    Type
REMARK                         _______ _______ _______ _____ _____    ______ ____
ROOT
ATOM      1  C   UNL     1      -0.058  10.355  19.116  0.00  0.00    +0.000 C 
ATOM      2  O   UNL     1      -0.166  10.387  17.892  0.00  0.00    +0.000 OA
ATOM      3  N   UNL     1       0.859   9.579  19.793  0.00  0.00    +0.000 N 
ATOM      4  C   UNL     1       1.732   8.709  19.147  0.00  0.00    +0.000 A 
ATOM      5  C   UNL     1       2.427   9.102  18.025  0.00  0.00    +0.000 A 
ATOM      6  C   UNL     1       3.256   8.178  17.404  0.00  0.00    +0.000 A 
ATOM      7  C   UNL     1       3.333   6.850  17.873  0.00  0.00    +0.000 A 
ATOM      8  C   UNL     1       4.088   5.826  17.227  0.00  0.00    +0.000 A 
ATOM      9  C   UNL     1       4.058   4.497  17.677  0.00  0.00    +0.000 A 
ATOM     10  C   UNL     1       3.284   4.188  18.795  0.00  0.00    +0.000 A 
ATOM     11  C   UNL     1       2.583   5.211  19.446  0.00  0.00    +0.000 A 
ATOM     12  C   UNL     1       2.578   6.543  19.032  0.00  0.00    +0.000 A 
ATOM     13  N   UNL     1       1.849   7.481  19.681  0.00  0.00    +0.000 NA
ATOM     14  H   UNL     1       0.643   9.348  20.758  0.00  0.00    +0.000 HD
ENDROOT
BRANCH   1  21
ATOM     15  C   UNL     1      -4.578  14.921  23.794  0.00  0.00    +0.000 C 
ATOM     16  C   UNL     1      -3.527  14.053  23.183  0.00  0.00    +0.000 A 
ATOM     17  C   UNL     1      -2.358  13.759  23.862  0.00  0.00    +0.000 A 
ATOM     18  C   UNL     1      -1.412  12.949  23.248  0.00  0.00    +0.000 A 
ATOM     19  C   UNL     1      -1.643  12.429  21.960  0.00  0.00    +0.000 A 
ATOM     20  C   UNL     1      -0.733  11.591  21.262  0.00  0.00    +0.000 A 
ATOM     21  C   UNL     1      -0.991  11.174  19.948  0.00  0.00    +0.000 A 
ATOM     22  C   UNL     1      -2.203  11.549  19.360  0.00  0.00    +0.000 A 
ATOM     23  C   UNL     1      -3.119  12.339  20.060  0.00  0.00    +0.000 A 
ATOM     24  C   UNL     1      -2.858  12.795  21.342  0.00  0.00    +0.000 A 
ATOM     25  N   UNL     1      -3.776  13.576  21.939  0.00  0.00    +0.000 NA
BRANCH  20  26
ATOM     26  O   UNL     1       0.417  11.156  21.879  0.00  0.00    +0.000 OA
ATOM     27  H   UNL     1       0.259  10.266  22.240  0.00  0.00    +0.000 HD
ENDBRANCH  20  26
ENDBRANCH   1  21
BRANCH  11  28
ATOM     28  N   UNL     1       1.762   4.836  20.576  0.00  0.00    +0.000 N 
ATOM     29  O   UNL     1       0.602   4.477  20.326  0.00  0.00    +0.000 OA
ATOM     30  O   UNL     1       2.294   4.823  21.694  0.00  0.00    +0.000 OA
ENDBRANCH  11  28
BRANCH   8  31
ATOM     31  O   UNL     1       4.863   6.097  16.121  0.00  0.00    +0.000 OA
ATOM     32  H   UNL     1       5.161   5.275  15.694  0.00  0.00    +0.000 HD
ENDBRANCH   8  31
BRANCH   9  33
ATOM     33  C   UNL     1       4.783   3.366  17.027  0.00  0.00    +0.000 C 
ATOM     34  O   UNL     1       5.644   3.552  16.182  0.00  0.00    +0.000 OA
BRANCH  33  35
ATOM     35  O   UNL     1       4.428   2.128  17.430  0.00  0.00    +0.000 OA
ATOM     36  H   UNL     1       5.203   1.531  17.541  0.00  0.00    +0.000 HD
ENDBRANCH  33  35
ENDBRANCH   9  33
TORSDOF 6
ENDMDL
MODEL 5
REMARK VINA RESULT:      -7.8      2.560     10.153
REMARK  Name = 
REMARK  7 active torsions:
REMARK  status: ('A' for Active; 'I' for Inactive)
REMARK    1  A    between atoms: C_1  and  C_2
REMARK    2  A    between atoms: C_6  and  O_7
REMARK    3  A    between atoms: C_8  and  C_9
REMARK    4  A    between atoms: C_16  and  O_17
REMARK    5  A    between atoms: C_18  and  C_19
REMARK    6  A    between atoms: C_19  and  O_21
REMARK    7  A    between atoms: C_23  and  N_24
REMARK                            x       y       z     vdW  Elec       q    Type
REMARK                         _______ _______ _______ _____ _____    ______ ____
ROOT
ATOM      1  C   UNL     1       1.539   8.235  20.048  0.00  0.00    +0.000 C 
ATOM      2  O   UNL     1       1.317   7.977  21.229  0.00  0.00    +0.000 OA
ATOM      3  N   UNL     1       1.062   9.351  19.396  0.00  0.00    +0.000 N 
ATOM      4  C   UNL     1       0.231  10.284  20.008  0.00  0.00    +0.000 A 
ATOM      5  C   UNL     1       0.503  10.757  21.273  0.00  0.00    +0.000 A 
ATOM      6  C   UNL     1      -0.383  11.659  21.845  0.00  0.00    +0.000 A 
ATOM      7  C   UNL     1      -1.566  12.032  21.175  0.00  0.00    +0.000 A 
ATOM      8  C   UNL     1      -2.564  12.876  21.743  0.00  0.00    +0.000 A 
ATOM      9  C   UNL     1      -3.770  13.143  21.075  0.00  0.00    +0.000 A 
ATOM     10  C   UNL     1      -3.974  12.576  19.817  0.00  0.00    +0.000 A 
ATOM     11  C   UNL     1      -2.966  11.785  19.251  0.00  0.00    +0.000 A 
ATOM     12  C   UNL     1      -1.757  11.489  19.880  0.00  0.00    +0.000 A 
ATOM     13  N   UNL     1      -0.837  10.685  19.298  0.00  0.00    +0.000 NA
ATOM     14  H   UNL     1       0.992   9.298  18.384  0.00  0.00    +0.000 HD
ENDROOT
BRANCH   1  21
ATOM     15  C   UNL     1       6.158   3.554  15.584  0.00  0.00    +0.000 C 
ATOM     16  C   UNL     1       5.362   4.664  16.188  0.00  0.00    +0.000 A 
ATOM     17  C   UNL     1       5.384   5.937  15.650  0.00  0.00    +0.000 A 
ATOM     18  C   UNL     1       4.627   6.934  16.252  0.00  0.00    +0.000 A 
ATOM     19  C   UNL     1       3.844   6.650  17.387  0.00  0.00    +0.000 A 
ATOM     20  C   UNL     1       3.039   7.606  18.062  0.00  0.00    +0.000 A 
ATOM     21  C   UNL     1       2.348   7.275  19.236  0.00  0.00    +0.000 A 
ATOM     22  C   UNL     1       2.415   5.955  19.694  0.00  0.00    +0.000 A 
ATOM     23  C   UNL     1       3.173   5.002  19.009  0.00  0.00    +0.000 A 
ATOM     24  C   UNL     1       3.898   5.326  17.873  0.00  0.00    +0.000 A 
ATOM     25  N   UNL     1       4.626   4.361  17.286  0.00  0.00    +0.000 NA
BRANCH  20  26
ATOM     26  O   UNL     1       2.910   8.880  17.556  0.00  0.00    +0.000 OA
ATOM     27  H   UNL     1       3.729   9.111  17.084  0.00  0.00    +0.000 HD
ENDBRANCH  20  26
ENDBRANCH   1  21
BRANCH  11  28
ATOM     28  N   UNL     1      -3.239  11.186  17.962  0.00  0.00    +0.000 N 
ATOM     29  O   UNL     1      -2.670  11.690  16.983  0.00  0.00    +0.000 OA
ATOM     30  O   UNL     1      -3.949  10.173  17.940  0.00  0.00    +0.000 OA
ENDBRANCH  11  28
BRANCH   8  31
ATOM     31  O   UNL     1      -2.395  13.452  22.984  0.00  0.00    +0.000 OA
ATOM     32  H   UNL     1      -2.104  14.376  22.903  0.00  0.00    +0.000 HD
ENDBRANCH   8  31
BRANCH   9  33
ATOM     33  C   UNL     1      -4.877  13.978  21.625  0.00  0.00    +0.000 C 
ATOM     34  O   UNL     1      -5.281  13.841  22.768  0.00  0.00    +0.000 OA
BRANCH  33  35
ATOM     35  O   UNL     1      -5.404  14.890  20.781  0.00  0.00    +0.000 OA
ATOM     36  H   UNL     1      -4.784  15.630  20.592  0.00  0.00    +0.000 HD
ENDBRANCH  33  35
ENDBRANCH   9  33
TORSDOF 6
ENDMDL
MODEL 6
REMARK VINA RESULT:      -7.8      2.632     10.273
REMARK  Name = 
REMARK  7 active torsions:
REMARK  status: ('A' for Active; 'I' for Inactive)
REMARK    1  A    between atoms: C_1  and  C_2
REMARK    2  A    between atoms: C_6  and  O_7
REMARK    3  A    between atoms: C_8  and  C_9
REMARK    4  A    between atoms: C_16  and  O_17
REMARK    5  A    between atoms: C_18  and  C_19
REMARK    6  A    between atoms: C_19  and  O_21
REMARK    7  A    between atoms: C_23  and  N_24
REMARK                            x       y       z     vdW  Elec       q    Type
REMARK                         _______ _______ _______ _____ _____    ______ ____
ROOT
ATOM      1  C   UNL     1       1.269   8.935  19.864  0.00  0.00    +0.000 C 
ATOM      2  O   UNL     1       1.111   8.774  21.072  0.00  0.00    +0.000 OA
ATOM      3  N   UNL     1       0.638   9.911  19.123  0.00  0.00    +0.000 N 
ATOM      4  C   UNL     1      -0.291  10.790  19.672  0.00  0.00    +0.000 A 
ATOM      5  C   UNL     1      -0.051  11.420  20.873  0.00  0.00    +0.000 A 
ATOM      6  C   UNL     1      -1.030  12.259  21.386  0.00  0.00    +0.000 A 
ATOM      7  C   UNL     1      -2.268  12.410  20.727  0.00  0.00    +0.000 A 
ATOM      8  C   UNL     1      -3.352  13.177  21.247  0.00  0.00    +0.000 A 
ATOM      9  C   UNL     1      -4.597  13.221  20.601  0.00  0.00    +0.000 A 
ATOM     10  C   UNL     1      -4.758  12.508  19.413  0.00  0.00    +0.000 A 
ATOM     11  C   UNL     1      -3.672  11.796  18.890  0.00  0.00    +0.000 A 
ATOM     12  C   UNL     1      -2.420  11.718  19.500  0.00  0.00    +0.000 A 
ATOM     13  N   UNL     1      -1.418  10.980  18.966  0.00  0.00    +0.000 NA
ATOM     14  H   UNL     1       0.549   9.746  18.125  0.00  0.00    +0.000 HD
ENDROOT
BRANCH   1  21
ATOM     15  C   UNL     1       5.793   3.580  16.120  0.00  0.00    +0.000 C 
ATOM     16  C   UNL     1       4.921   4.347  17.059  0.00  0.00    +0.000 A 
ATOM     17  C   UNL     1       4.423   3.766  18.210  0.00  0.00    +0.000 A 
ATOM     18  C   UNL     1       3.614   4.523  19.048  0.00  0.00    +0.000 A 
ATOM     19  C   UNL     1       3.314   5.862  18.734  0.00  0.00    +0.000 A 
ATOM     20  C   UNL     1       2.500   6.707  19.535  0.00  0.00    +0.000 A 
ATOM     21  C   UNL     1       2.174   8.007  19.121  0.00  0.00    +0.000 A 
ATOM     22  C   UNL     1       2.727   8.479  17.927  0.00  0.00    +0.000 A 
ATOM     23  C   UNL     1       3.562   7.664  17.158  0.00  0.00    +0.000 A 
ATOM     24  C   UNL     1       3.856   6.362  17.531  0.00  0.00    +0.000 A 
ATOM     25  N   UNL     1       4.643   5.631  16.723  0.00  0.00    +0.000 NA
BRANCH  20  26
ATOM     26  O   UNL     1       2.031   6.264  20.750  0.00  0.00    +0.000 OA
ATOM     27  H   UNL     1       2.256   5.321  20.845  0.00  0.00    +0.000 HD
ENDBRANCH  20  26
ENDBRANCH   1  21
BRANCH  11  28
ATOM     28  N   UNL     1      -3.897  11.039  17.678  0.00  0.00    +0.000 N 
ATOM     29  O   UNL     1      -3.948   9.805  17.793  0.00  0.00    +0.000 OA
ATOM     30  O   UNL     1      -4.103  11.673  16.635  0.00  0.00    +0.000 OA
ENDBRANCH  11  28
BRANCH   8  31
ATOM     31  O   UNL     1      -3.227  13.893  22.418  0.00  0.00    +0.000 OA
ATOM     32  H   UNL     1      -2.894  14.790  22.244  0.00  0.00    +0.000 HD
ENDBRANCH   8  31
BRANCH   9  33
ATOM     33  C   UNL     1      -5.789  13.963  21.107  0.00  0.00    +0.000 C 
ATOM     34  O   UNL     1      -6.302  14.869  20.470  0.00  0.00    +0.000 OA
BRANCH  33  35
ATOM     35  O   UNL     1      -6.262  13.572  22.309  0.00  0.00    +0.000 OA
ATOM     36  H   UNL     1      -5.886  12.710  22.599  0.00  0.00    +0.000 HD
ENDBRANCH  33  35
ENDBRANCH   9  33
TORSDOF 6
ENDMDL
MODEL 7
REMARK VINA RESULT:      -7.7      2.897     10.397
REMARK  Name = 
REMARK  7 active torsions:
REMARK  status: ('A' for Active; 'I' for Inactive)
REMARK    1  A    between atoms: C_1  and  C_2
REMARK    2  A    between atoms: C_6  and  O_7
REMARK    3  A    between atoms: C_8  and  C_9
REMARK    4  A    between atoms: C_16  and  O_17
REMARK    5  A    between atoms: C_18  and  C_19
REMARK    6  A    between atoms: C_19  and  O_21
REMARK    7  A    between atoms: C_23  and  N_24
REMARK                            x       y       z     vdW  Elec       q    Type
REMARK                         _______ _______ _______ _____ _____    ______ ____
ROOT
ATOM      1  C   UNL     1       0.506   9.742  20.087  0.00  0.00    +0.000 C 
ATOM      2  O   UNL     1       0.410   9.763  21.312  0.00  0.00    +0.000 OA
ATOM      3  N   UNL     1      -0.211  10.559  19.240  0.00  0.00    +0.000 N 
ATOM      4  C   UNL     1      -1.163  11.467  19.695  0.00  0.00    +0.000 A 
ATOM      5  C   UNL     1      -0.905  12.287  20.772  0.00  0.00    +0.000 A 
ATOM      6  C   UNL     1      -1.907  13.147  21.202  0.00  0.00    +0.000 A 
ATOM      7  C   UNL     1      -3.178  13.134  20.592  0.00  0.00    +0.000 A 
ATOM      8  C   UNL     1      -4.280  13.919  21.045  0.00  0.00    +0.000 A 
ATOM      9  C   UNL     1      -5.553  13.802  20.466  0.00  0.00    +0.000 A 
ATOM     10  C   UNL     1      -5.726  12.906  19.411  0.00  0.00    +0.000 A 
ATOM     11  C   UNL     1      -4.625  12.174  18.947  0.00  0.00    +0.000 A 
ATOM     12  C   UNL     1      -3.345  12.253  19.495  0.00  0.00    +0.000 A 
ATOM     13  N   UNL     1      -2.329  11.490  19.028  0.00  0.00    +0.000 NA
ATOM     14  H   UNL     1      -0.334  10.237  18.285  0.00  0.00    +0.000 HD
ENDROOT
BRANCH   1  21
ATOM     15  C   UNL     1       5.156   4.096  16.979  0.00  0.00    +0.000 C 
ATOM     16  C   UNL     1       4.285   4.958  17.834  0.00  0.00    +0.000 A 
ATOM     17  C   UNL     1       3.881   4.544  19.090  0.00  0.00    +0.000 A 
ATOM     18  C   UNL     1       3.070   5.383  19.844  0.00  0.00    +0.000 A 
ATOM     19  C   UNL     1       2.674   6.637  19.340  0.00  0.00    +0.000 A 
ATOM     20  C   UNL     1       1.851   7.557  20.043  0.00  0.00    +0.000 A 
ATOM     21  C   UNL     1       1.428   8.754  19.449  0.00  0.00    +0.000 A 
ATOM     22  C   UNL     1       1.892   9.057  18.165  0.00  0.00    +0.000 A 
ATOM     23  C   UNL     1       2.735   8.173  17.487  0.00  0.00    +0.000 A 
ATOM     24  C   UNL     1       3.125   6.965  18.044  0.00  0.00    +0.000 A 
ATOM     25  N   UNL     1       3.914   6.155  17.317  0.00  0.00    +0.000 NA
BRANCH  20  26
ATOM     26  O   UNL     1       1.470   7.291  21.339  0.00  0.00    +0.000 OA
ATOM     27  H   UNL     1       2.244   6.964  21.830  0.00  0.00    +0.000 HD
ENDBRANCH  20  26
ENDBRANCH   1  21
BRANCH  11  28
ATOM     28  N   UNL     1      -4.861  11.228  17.878  0.00  0.00    +0.000 N 
ATOM     29  O   UNL     1      -5.350  10.135  18.200  0.00  0.00    +0.000 OA
ATOM     30  O   UNL     1      -4.637  11.603  16.720  0.00  0.00    +0.000 OA
ENDBRANCH  11  28
BRANCH   8  31
ATOM     31  O   UNL     1      -4.144  14.814  22.084  0.00  0.00    +0.000 OA
ATOM     32  H   UNL     1      -4.969  14.885  22.593  0.00  0.00    +0.000 HD
ENDBRANCH   8  31
BRANCH   9  33
ATOM     33  C   UNL     1      -6.761  14.555  20.913  0.00  0.00    +0.000 C 
ATOM     34  O   UNL     1      -6.703  15.729  21.243  0.00  0.00    +0.000 OA
BRANCH  33  35
ATOM     35  O   UNL     1      -7.917  13.859  20.933  0.00  0.00    +0.000 OA
ATOM     36  H   UNL     1      -7.771  12.887  20.897  0.00  0.00    +0.000 HD
ENDBRANCH  33  35
ENDBRANCH   9  33
TORSDOF 6
ENDMDL
MODEL 8
REMARK VINA RESULT:      -7.7      2.909      4.182
REMARK  Name = 
REMARK  7 active torsions:
REMARK  status: ('A' for Active; 'I' for Inactive)
REMARK    1  A    between atoms: C_1  and  C_2
REMARK    2  A    between atoms: C_6  and  O_7
REMARK    3  A    between atoms: C_8  and  C_9
REMARK    4  A    between atoms: C_16  and  O_17
REMARK    5  A    between atoms: C_18  and  C_19
REMARK    6  A    between atoms: C_19  and  O_21
REMARK    7  A    between atoms: C_23  and  N_24
REMARK                            x       y       z     vdW  Elec       q    Type
REMARK                         _______ _______ _______ _____ _____    ______ ____
ROOT
ATOM      1  C   UNL     1       1.286   9.753  20.590  0.00  0.00    +0.000 C 
ATOM      2  O   UNL     1       1.345   9.451  21.780  0.00  0.00    +0.000 OA
ATOM      3  N   UNL     1       1.444   8.856  19.555  0.00  0.00    +0.000 N 
ATOM      4  C   UNL     1       1.738   7.512  19.760  0.00  0.00    +0.000 A 
ATOM      5  C   UNL     1       1.065   6.774  20.708  0.00  0.00    +0.000 A 
ATOM      6  C   UNL     1       1.427   5.447  20.892  0.00  0.00    +0.000 A 
ATOM      7  C   UNL     1       2.502   4.887  20.171  0.00  0.00    +0.000 A 
ATOM      8  C   UNL     1       2.988   3.562  20.378  0.00  0.00    +0.000 A 
ATOM      9  C   UNL     1       4.121   3.082  19.704  0.00  0.00    +0.000 A 
ATOM     10  C   UNL     1       4.765   3.924  18.797  0.00  0.00    +0.000 A 
ATOM     11  C   UNL     1       4.250   5.206  18.569  0.00  0.00    +0.000 A 
ATOM     12  C   UNL     1       3.133   5.728  19.220  0.00  0.00    +0.000 A 
ATOM     13  N   UNL     1       2.705   6.990  18.987  0.00  0.00    +0.000 NA
ATOM     14  H   UNL     1       1.730   9.236  18.657  0.00  0.00    +0.000 HD
ENDROOT
BRANCH   1  21
ATOM     15  C   UNL     1       0.150  17.481  19.126  0.00  0.00    +0.000 C 
ATOM     16  C   UNL     1       0.211  16.100  19.692  0.00  0.00    +0.000 A 
ATOM     17  C   UNL     1      -0.219  15.834  20.979  0.00  0.00    +0.000 A 
ATOM     18  C   UNL     1      -0.139  14.533  21.458  0.00  0.00    +0.000 A 
ATOM     19  C   UNL     1       0.363  13.501  20.642  0.00  0.00    +0.000 A 
ATOM     20  C   UNL     1       0.476  12.145  21.050  0.00  0.00    +0.000 A 
ATOM     21  C   UNL     1       1.062  11.182  20.215  0.00  0.00    +0.000 A 
ATOM     22  C   UNL     1       1.473  11.575  18.937  0.00  0.00    +0.000 A 
ATOM     23  C   UNL     1       1.325  12.900  18.519  0.00  0.00    +0.000 A 
ATOM     24  C   UNL     1       0.790  13.872  19.350  0.00  0.00    +0.000 A 
ATOM     25  N   UNL     1       0.708  15.130  18.885  0.00  0.00    +0.000 NA
BRANCH  20  26
ATOM     26  O   UNL     1      -0.010  11.749  22.275  0.00  0.00    +0.000 OA
ATOM     27  H   UNL     1       0.535  11.012  22.602  0.00  0.00    +0.000 HD
ENDBRANCH  20  26
ENDBRANCH   1  21
BRANCH  11  28
ATOM     28  N   UNL     1       4.975   6.057  17.651  0.00  0.00    +0.000 N 
ATOM     29  O   UNL     1       6.051   6.523  18.055  0.00  0.00    +0.000 OA
ATOM     30  O   UNL     1       4.514   6.194  16.510  0.00  0.00    +0.000 OA
ENDBRANCH  11  28
BRANCH   8  31
ATOM     31  O   UNL     1       2.376   2.704  21.266  0.00  0.00    +0.000 OA
ATOM     32  H   UNL     1       3.023   2.102  21.672  0.00  0.00    +0.000 HD
ENDBRANCH   8  31
BRANCH   9  33
ATOM     33  C   UNL     1       4.715   1.727  19.902  0.00  0.00    +0.000 C 
ATOM     34  O   UNL     1       5.355   1.443  20.902  0.00  0.00    +0.000 OA
BRANCH  33  35
ATOM     35  O   UNL     1       4.501   0.838  18.909  0.00  0.00    +0.000 OA
ATOM     36  H   UNL     1       4.516  -0.093  19.228  0.00  0.00    +0.000 HD
ENDBRANCH  33  35
ENDBRANCH   9  33
TORSDOF 6
ENDMDL
MODEL 9
REMARK VINA RESULT:      -7.6      2.983     10.229
REMARK  Name = 
REMARK  7 active torsions:
REMARK  status: ('A' for Active; 'I' for Inactive)
REMARK    1  A    between atoms: C_1  and  C_2
REMARK    2  A    between atoms: C_6  and  O_7
REMARK    3  A    between atoms: C_8  and  C_9
REMARK    4  A    between atoms: C_16  and  O_17
REMARK    5  A    between atoms: C_18  and  C_19
REMARK    6  A    between atoms: C_19  and  O_21
REMARK    7  A    between atoms: C_23  and  N_24
REMARK                            x       y       z     vdW  Elec       q    Type
REMARK                         _______ _______ _______ _____ _____    ______ ____
ROOT
ATOM      1  C   UNL     1       1.062   8.897  19.354  0.00  0.00    +0.000 C 
ATOM      2  O   UNL     1       0.630   8.660  20.480  0.00  0.00    +0.000 OA
ATOM      3  N   UNL     1       0.532   9.843  18.503  0.00  0.00    +0.000 N 
ATOM      4  C   UNL     1      -0.592  10.598  18.823  0.00  0.00    +0.000 A 
ATOM      5  C   UNL     1      -0.724  11.187  20.061  0.00  0.00    +0.000 A 
ATOM      6  C   UNL     1      -1.883  11.899  20.334  0.00  0.00    +0.000 A 
ATOM      7  C   UNL     1      -2.929  11.962  19.390  0.00  0.00    +0.000 A 
ATOM      8  C   UNL     1      -4.184  12.593  19.640  0.00  0.00    +0.000 A 
ATOM      9  C   UNL     1      -5.229  12.547  18.705  0.00  0.00    +0.000 A 
ATOM     10  C   UNL     1      -5.015  11.883  17.498  0.00  0.00    +0.000 A 
ATOM     11  C   UNL     1      -3.764  11.307  17.245  0.00  0.00    +0.000 A 
ATOM     12  C   UNL     1      -2.699  11.321  18.147  0.00  0.00    +0.000 A 
ATOM     13  N   UNL     1      -1.524  10.713  17.862  0.00  0.00    +0.000 NA
ATOM     14  H   UNL     1       0.710   9.720  17.510  0.00  0.00    +0.000 HD
ENDROOT
BRANCH   1  21
ATOM     15  C   UNL     1       6.973   4.215  16.843  0.00  0.00    +0.000 C 
ATOM     16  C   UNL     1       5.857   4.883  17.577  0.00  0.00    +0.000 A 
ATOM     17  C   UNL     1       5.338   4.342  18.738  0.00  0.00    +0.000 A 
ATOM     18  C   UNL     1       4.298   5.003  19.380  0.00  0.00    +0.000 A 
ATOM     19  C   UNL     1       3.788   6.208  18.861  0.00  0.00    +0.000 A 
ATOM     20  C   UNL     1       2.731   6.949  19.454  0.00  0.00    +0.000 A 
ATOM     21  C   UNL     1       2.217   8.100  18.839  0.00  0.00    +0.000 A 
ATOM     22  C   UNL     1       2.815   8.542  17.655  0.00  0.00    +0.000 A 
ATOM     23  C   UNL     1       3.882   7.837  17.091  0.00  0.00    +0.000 A 
ATOM     24  C   UNL     1       4.372   6.674  17.664  0.00  0.00    +0.000 A 
ATOM     25  N   UNL     1       5.381   6.037  17.045  0.00  0.00    +0.000 NA
BRANCH  20  26
ATOM     26  O   UNL     1       2.206   6.556  20.663  0.00  0.00    +0.000 OA
ATOM     27  H   UNL     1       2.873   6.704  21.355  0.00  0.00    +0.000 HD
ENDBRANCH  20  26
ENDBRANCH   1  21
BRANCH  11  28
ATOM     28  N   UNL     1      -3.601  10.594  15.997  0.00  0.00    +0.000 N 
ATOM     29  O   UNL     1      -3.414  11.282  14.983  0.00  0.00    +0.000 OA
ATOM     30  O   UNL     1      -3.580   9.357  16.042  0.00  0.00    +0.000 OA
ENDBRANCH  11  28
BRANCH   8  31
ATOM     31  O   UNL     1      -4.429  13.258  20.822  0.00  0.00    +0.000 OA
ATOM     32  H   UNL     1      -3.956  12.840  21.562  0.00  0.00    +0.000 HD
ENDBRANCH   8  31
BRANCH   9  33
ATOM     33  C   UNL     1      -6.581  13.143  18.915  0.00  0.00    +0.000 C 
ATOM     34  O   UNL     1      -7.585  12.453  18.989  0.00  0.00    +0.000 OA
BRANCH  33  35
ATOM     35  O   UNL     1      -6.624  14.488  19.015  0.00  0.00    +0.000 OA
ATOM     36  H   UNL     1      -6.566  14.933  18.140  0.00  0.00    +0.000 HD
ENDBRANCH  33  35
ENDBRANCH   9  33
TORSDOF 6
ENDMDL
