MODEL 1
REMARK VINA RESULT:      -8.2      0.000      0.000
REMARK  Name = 
REMARK  6 active torsions:
REMARK  status: ('A' for Active; 'I' for Inactive)
REMARK    1  A    between atoms: C_1  and  C_2
REMARK    2  A    between atoms: C_2  and  C_4
REMARK    3  A    between atoms: C_7  and  C_8
REMARK    4  A    between atoms: C_11  and  C_12
REMARK    5  A    between atoms: N_14  and  C_15
REMARK    6  A    between atoms: C_15  and  C_16
REMARK                            x       y       z     vdW  Elec       q    Type
REMARK                         _______ _______ _______ _____ _____    ______ ____
ROOT
ATOM      1  C   UNL     1       3.087   5.774  18.890  0.00  0.00    +0.000 A 
ATOM      2  C   UNL     1       2.500   4.959  19.839  0.00  0.00    +0.000 A 
ATOM      3  C   UNL     1       1.749   5.799  20.692  0.00  0.00    +0.000 A 
ATOM      4  C   UNL     1       1.921   7.089  20.233  0.00  0.00    +0.000 A 
ATOM      5  O   UNL     1       2.744   7.077  19.134  0.00  0.00    +0.000 OA
ENDROOT
BRANCH   1   9
ATOM      6  C   UNL     1       5.654   5.077  15.520  0.00  0.00    +0.000 A 
ATOM      7  C   UNL     1       5.343   6.378  15.921  0.00  0.00    +0.000 A 
ATOM      8  C   UNL     1       4.486   6.594  17.008  0.00  0.00    +0.000 A 
ATOM      9  C   UNL     1       3.925   5.520  17.719  0.00  0.00    +0.000 A 
ATOM     10  C   UNL     1       4.223   4.219  17.289  0.00  0.00    +0.000 A 
ATOM     11  C   UNL     1       5.079   3.999  16.202  0.00  0.00    +0.000 A 
BRANCH   6  13
ATOM     12  C   UNL     1       6.212   3.770  13.362  0.00  0.00    +0.000 C 
ATOM     13  C   UNL     1       6.596   4.798  14.394  0.00  0.00    +0.000 C 
ATOM     14  O   UNL     1       7.657   5.415  14.316  0.00  0.00    +0.000 OA
ENDBRANCH   6  13
ENDBRANCH   1   9
BRANCH   4  15
ATOM     15  C   UNL     1       1.373   8.339  20.719  0.00  0.00    +0.000 C 
ATOM     16  O   UNL     1       1.280   8.608  21.914  0.00  0.00    +0.000 OA
ATOM     17  N   UNL     1       0.963   9.207  19.733  0.00  0.00    +0.000 N 
ATOM     18  H   UNL     1       1.071   8.910  18.771  0.00  0.00    +0.000 HD
BRANCH  17  19
ATOM     19  C   UNL     1       0.340  10.474  20.024  0.00  0.00    +0.000 C 
BRANCH  19  20
ATOM     20  C   UNL     1      -0.852  10.727  19.140  0.00  0.00    +0.000 A 
ATOM     21  C   UNL     1      -1.837  11.650  19.504  0.00  0.00    +0.000 A 
ATOM     22  C   UNL     1      -2.893  11.875  18.635  0.00  0.00    +0.000 A 
ATOM     23  N   UNL     1      -3.035  11.249  17.448  0.00  0.00    +0.000 NA
ATOM     24  C   UNL     1      -2.075  10.364  17.111  0.00  0.00    +0.000 A 
ATOM     25  C   UNL     1      -0.980  10.073  17.911  0.00  0.00    +0.000 A 
ENDBRANCH  19  20
ENDBRANCH  17  19
ENDBRANCH   4  15
TORSDOF 5
ENDMDL
MODEL 2
REMARK VINA RESULT:      -8.1      0.416      1.065
REMARK  Name = 
REMARK  6 active torsions:
REMARK  status: ('A' for Active; 'I' for Inactive)
REMARK    1  A    between atoms: C_1  and  C_2
REMARK    2  A    between atoms: C_2  and  C_4
REMARK    3  A    between atoms: C_7  and  C_8
REMARK    4  A    between atoms: C_11  and  C_12
REMARK    5  A    between atoms: N_14  and  C_15
REMARK    6  A    between atoms: C_15  and  C_16
REMARK                            x       y       z     vdW  Elec       q    Type
REMARK                         _______ _______ _______ _____ _____    ______ ____
ROOT
ATOM      1  C   UNL     1       3.116   6.085  18.991  0.00  0.00    +0.000 A 
ATOM      2  C   UNL     1       2.542   5.340  20.003  0.00  0.00    +0.000 A 
ATOM      3  C   UNL     1       1.695   6.212  20.724  0.00  0.00    +0.000 A 
ATOM      4  C   UNL     1       1.801   7.453  20.129  0.00  0.00    +0.000 A 
ATOM      5  O   UNL     1       2.674   7.379  19.072  0.00  0.00    +0.000 OA
ENDROOT
BRANCH   1   9
ATOM      6  C   UNL     1       5.680   5.089  15.695  0.00  0.00    +0.000 A 
ATOM      7  C   UNL     1       5.152   4.088  16.514  0.00  0.00    +0.000 A 
ATOM      8  C   UNL     1       4.335   4.426  17.600  0.00  0.00    +0.000 A 
ATOM      9  C   UNL     1       4.024   5.765  17.891  0.00  0.00    +0.000 A 
ATOM     10  C   UNL     1       4.583   6.761  17.078  0.00  0.00    +0.000 A 
ATOM     11  C   UNL     1       5.402   6.428  15.991  0.00  0.00    +0.000 A 
BRANCH   6  13
ATOM     12  C   UNL     1       6.002   3.790  13.485  0.00  0.00    +0.000 C 
ATOM     13  C   UNL     1       6.521   4.774  14.500  0.00  0.00    +0.000 C 
ATOM     14  O   UNL     1       7.610   5.326  14.355  0.00  0.00    +0.000 OA
ENDBRANCH   6  13
ENDBRANCH   1   9
BRANCH   4  15
ATOM     15  C   UNL     1       1.147   8.705  20.448  0.00  0.00    +0.000 C 
ATOM     16  O   UNL     1       0.796   9.005  21.586  0.00  0.00    +0.000 OA
ATOM     17  N   UNL     1       0.949   9.538  19.371  0.00  0.00    +0.000 N 
ATOM     18  H   UNL     1       1.264   9.217  18.463  0.00  0.00    +0.000 HD
BRANCH  17  19
ATOM     19  C   UNL     1       0.263  10.802  19.482  0.00  0.00    +0.000 C 
BRANCH  19  20
ATOM     20  C   UNL     1      -1.052  10.791  18.749  0.00  0.00    +0.000 A 
ATOM     21  C   UNL     1      -2.103  11.625  19.141  0.00  0.00    +0.000 A 
ATOM     22  C   UNL     1      -3.279  11.605  18.407  0.00  0.00    +0.000 A 
ATOM     23  N   UNL     1      -3.477  10.821  17.327  0.00  0.00    +0.000 NA
ATOM     24  C   UNL     1      -2.451  10.024  16.960  0.00  0.00    +0.000 A 
ATOM     25  C   UNL     1      -1.237   9.975  17.629  0.00  0.00    +0.000 A 
ENDBRANCH  19  20
ENDBRANCH  17  19
ENDBRANCH   4  15
TORSDOF 5
ENDMDL
MODEL 3
REMARK VINA RESULT:      -7.9      3.110      9.411
REMARK  Name = 
REMARK  6 active torsions:
REMARK  status: ('A' for Active; 'I' for Inactive)
REMARK    1  A    between atoms: C_1  and  C_2
REMARK    2  A    between atoms: C_2  and  C_4
REMARK    3  A    between atoms: C_7  and  C_8
REMARK    4  A    between atoms: C_11  and  C_12
REMARK    5  A    between atoms: N_14  and  C_15
REMARK    6  A    between atoms: C_15  and  C_16
REMARK                            x       y       z     vdW  Elec       q    Type
REMARK                         _______ _______ _______ _____ _____    ______ ____
ROOT
ATOM      1  C   UNL     1       1.203   9.449  19.387  0.00  0.00    +0.000 A 
ATOM      2  C   UNL     1       1.634   9.656  18.091  0.00  0.00    +0.000 A 
ATOM      3  C   UNL     1       2.337   8.494  17.702  0.00  0.00    +0.000 A 
ATOM      4  C   UNL     1       2.316   7.635  18.782  0.00  0.00    +0.000 A 
ATOM      5  O   UNL     1       1.627   8.219  19.816  0.00  0.00    +0.000 OA
ENDROOT
BRANCH   1   9
ATOM      6  C   UNL     1      -1.058  11.776  22.199  0.00  0.00    +0.000 A 
ATOM      7  C   UNL     1      -0.472  10.568  22.583  0.00  0.00    +0.000 A 
ATOM      8  C   UNL     1       0.244   9.806  21.651  0.00  0.00    +0.000 A 
ATOM      9  C   UNL     1       0.395  10.231  20.321  0.00  0.00    +0.000 A 
ATOM     10  C   UNL     1      -0.221  11.432  19.941  0.00  0.00    +0.000 A 
ATOM     11  C   UNL     1      -0.940  12.197  20.870  0.00  0.00    +0.000 A 
BRANCH   6  13
ATOM     12  C   UNL     1      -3.194  12.255  23.572  0.00  0.00    +0.000 C 
ATOM     13  C   UNL     1      -1.795  12.642  23.167  0.00  0.00    +0.000 C 
ATOM     14  O   UNL     1      -1.253  13.645  23.628  0.00  0.00    +0.000 OA
ENDBRANCH   6  13
ENDBRANCH   1   9
BRANCH   4  15
ATOM     15  C   UNL     1       2.868   6.305  18.934  0.00  0.00    +0.000 C 
ATOM     16  O   UNL     1       3.106   5.801  20.028  0.00  0.00    +0.000 OA
ATOM     17  N   UNL     1       3.106   5.645  17.750  0.00  0.00    +0.000 N 
ATOM     18  H   UNL     1       2.886   6.130  16.888  0.00  0.00    +0.000 HD
BRANCH  17  19
ATOM     19  C   UNL     1       3.707   4.335  17.698  0.00  0.00    +0.000 C 
BRANCH  19  20
ATOM     20  C   UNL     1       5.127   4.390  17.203  0.00  0.00    +0.000 A 
ATOM     21  C   UNL     1       5.419   4.315  15.839  0.00  0.00    +0.000 A 
ATOM     22  C   UNL     1       6.741   4.411  15.433  0.00  0.00    +0.000 A 
ATOM     23  N   UNL     1       7.777   4.571  16.282  0.00  0.00    +0.000 NA
ATOM     24  C   UNL     1       7.478   4.645  17.596  0.00  0.00    +0.000 A 
ATOM     25  C   UNL     1       6.188   4.560  18.098  0.00  0.00    +0.000 A 
ENDBRANCH  19  20
ENDBRANCH  17  19
ENDBRANCH   4  15
TORSDOF 5
ENDMDL
MODEL 4
REMARK VINA RESULT:      -7.9      0.844      1.354
REMARK  Name = 
REMARK  6 active torsions:
REMARK  status: ('A' for Active; 'I' for Inactive)
REMARK    1  A    between atoms: C_1  and  C_2
REMARK    2  A    between atoms: C_2  and  C_4
REMARK    3  A    between atoms: C_7  and  C_8
REMARK    4  A    between atoms: C_11  and  C_12
REMARK    5  A    between atoms: N_14  and  C_15
REMARK    6  A    between atoms: C_15  and  C_16
REMARK                            x       y       z     vdW  Elec       q    Type
REMARK                         _______ _______ _______ _____ _____    ______ ____
ROOT
ATOM      1  C   UNL     1       2.862   6.544  18.925  0.00  0.00    +0.000 A 
ATOM      2  C   UNL     1       2.307   5.905  20.017  0.00  0.00    +0.000 A 
ATOM      3  C   UNL     1       1.483   6.851  20.670  0.00  0.00    +0.000 A 
ATOM      4  C   UNL     1       1.583   8.027  19.955  0.00  0.00    +0.000 A 
ATOM      5  O   UNL     1       2.430   7.844  18.891  0.00  0.00    +0.000 OA
ENDROOT
BRANCH   1   9
ATOM      6  C   UNL     1       5.550   5.321  15.810  0.00  0.00    +0.000 A 
ATOM      7  C   UNL     1       5.319   6.675  16.060  0.00  0.00    +0.000 A 
ATOM      8  C   UNL     1       4.423   7.063  17.063  0.00  0.00    +0.000 A 
ATOM      9  C   UNL     1       3.742   6.111  17.841  0.00  0.00    +0.000 A 
ATOM     10  C   UNL     1       3.961   4.755  17.562  0.00  0.00    +0.000 A 
ATOM     11  C   UNL     1       4.856   4.363  16.558  0.00  0.00    +0.000 A 
BRANCH   6  13
ATOM     12  C   UNL     1       6.030   4.042  13.616  0.00  0.00    +0.000 C 
ATOM     13  C   UNL     1       6.529   4.860  14.779  0.00  0.00    +0.000 C 
ATOM     14  O   UNL     1       7.716   5.162  14.883  0.00  0.00    +0.000 OA
ENDBRANCH   6  13
ENDBRANCH   1   9
BRANCH   4  15
ATOM     15  C   UNL     1       0.945   9.310  20.166  0.00  0.00    +0.000 C 
ATOM     16  O   UNL     1       0.901   9.862  21.262  0.00  0.00    +0.000 OA
ATOM     17  N   UNL     1       0.389   9.866  19.037  0.00  0.00    +0.000 N 
ATOM     18  H   UNL     1       0.465   9.346  18.170  0.00  0.00    +0.000 HD
BRANCH  17  19
ATOM     19  C   UNL     1      -0.338  11.111  19.061  0.00  0.00    +0.000 C 
BRANCH  19  20
ATOM     20  C   UNL     1      -1.681  10.987  18.392  0.00  0.00    +0.000 A 
ATOM     21  C   UNL     1      -1.862  10.150  17.287  0.00  0.00    +0.000 A 
ATOM     22  C   UNL     1      -3.128  10.041  16.734  0.00  0.00    +0.000 A 
ATOM     23  N   UNL     1      -4.209  10.703  17.197  0.00  0.00    +0.000 NA
ATOM     24  C   UNL     1      -4.018  11.504  18.266  0.00  0.00    +0.000 A 
ATOM     25  C   UNL     1      -2.791  11.677  18.889  0.00  0.00    +0.000 A 
ENDBRANCH  19  20
ENDBRANCH  17  19
ENDBRANCH   4  15
TORSDOF 5
ENDMDL
MODEL 5
REMARK VINA RESULT:      -7.9      1.705      2.402
REMARK  Name = 
REMARK  6 active torsions:
REMARK  status: ('A' for Active; 'I' for Inactive)
REMARK    1  A    between atoms: C_1  and  C_2
REMARK    2  A    between atoms: C_2  and  C_4
REMARK    3  A    between atoms: C_7  and  C_8
REMARK    4  A    between atoms: C_11  and  C_12
REMARK    5  A    between atoms: N_14  and  C_15
REMARK    6  A    between atoms: C_15  and  C_16
REMARK                            x       y       z     vdW  Elec       q    Type
REMARK                         _______ _______ _______ _____ _____    ______ ____
ROOT
ATOM      1  C   UNL     1       2.946   5.844  18.930  0.00  0.00    +0.000 A 
ATOM      2  C   UNL     1       2.277   5.035  19.829  0.00  0.00    +0.000 A 
ATOM      3  C   UNL     1       1.555   5.891  20.691  0.00  0.00    +0.000 A 
ATOM      4  C   UNL     1       1.826   7.183  20.290  0.00  0.00    +0.000 A 
ATOM      5  O   UNL     1       2.681   7.158  19.216  0.00  0.00    +0.000 OA
ENDROOT
BRANCH   1   9
ATOM      6  C   UNL     1       5.569   5.110  15.612  0.00  0.00    +0.000 A 
ATOM      7  C   UNL     1       5.298   6.414  16.030  0.00  0.00    +0.000 A 
ATOM      8  C   UNL     1       4.423   6.643  17.099  0.00  0.00    +0.000 A 
ATOM      9  C   UNL     1       3.803   5.579  17.776  0.00  0.00    +0.000 A 
ATOM     10  C   UNL     1       4.062   4.276  17.329  0.00  0.00    +0.000 A 
ATOM     11  C   UNL     1       4.936   4.043  16.259  0.00  0.00    +0.000 A 
BRANCH   6  13
ATOM     12  C   UNL     1       6.134   3.814  13.449  0.00  0.00    +0.000 C 
ATOM     13  C   UNL     1       6.528   4.815  14.504  0.00  0.00    +0.000 C 
ATOM     14  O   UNL     1       7.610   5.396  14.461  0.00  0.00    +0.000 OA
ENDBRANCH   6  13
ENDBRANCH   1   9
BRANCH   4  15
ATOM     15  C   UNL     1       1.346   8.447  20.809  0.00  0.00    +0.000 C 
ATOM     16  O   UNL     1       1.379   8.736  22.002  0.00  0.00    +0.000 OA
ATOM     17  N   UNL     1       0.847   9.305  19.856  0.00  0.00    +0.000 N 
ATOM     18  H   UNL     1       0.851   8.992  18.892  0.00  0.00    +0.000 HD
BRANCH  17  19
ATOM     19  C   UNL     1       0.271  10.585  20.187  0.00  0.00    +0.000 C 
BRANCH  19  20
ATOM     20  C   UNL     1       1.177  11.723  19.798  0.00  0.00    +0.000 A 
ATOM     21  C   UNL     1       1.513  12.723  20.715  0.00  0.00    +0.000 A 
ATOM     22  C   UNL     1       2.383  13.727  20.317  0.00  0.00    +0.000 A 
ATOM     23  N   UNL     1       2.929  13.802  19.086  0.00  0.00    +0.000 NA
ATOM     24  C   UNL     1       2.596  12.828  18.214  0.00  0.00    +0.000 A 
ATOM     25  C   UNL     1       1.737  11.783  18.518  0.00  0.00    +0.000 A 
ENDBRANCH  19  20
ENDBRANCH  17  19
ENDBRANCH   4  15
TORSDOF 5
ENDMDL
MODEL 6
REMARK VINA RESULT:      -7.8      3.144      9.443
REMARK  Name = 
REMARK  6 active torsions:
REMARK  status: ('A' for Active; 'I' for Inactive)
REMARK    1  A    between atoms: C_1  and  C_2
REMARK    2  A    between atoms: C_2  and  C_4
REMARK    3  A    between atoms: C_7  and  C_8
REMARK    4  A    between atoms: C_11  and  C_12
REMARK    5  A    between atoms: N_14  and  C_15
REMARK    6  A    between atoms: C_15  and  C_16
REMARK                            x       y       z     vdW  Elec       q    Type
REMARK                         _______ _______ _______ _____ _____    ______ ____
ROOT
ATOM      1  C   UNL     1       1.145   9.456  19.475  0.00  0.00    +0.000 A 
ATOM      2  C   UNL     1       1.602   9.686  18.191  0.00  0.00    +0.000 A 
ATOM      3  C   UNL     1       2.307   8.527  17.794  0.00  0.00    +0.000 A 
ATOM      4  C   UNL     1       2.261   7.649  18.857  0.00  0.00    +0.000 A 
ATOM      5  O   UNL     1       1.556   8.217  19.889  0.00  0.00    +0.000 OA
ENDROOT
BRANCH   1   9
ATOM      6  C   UNL     1      -1.163  11.728  22.293  0.00  0.00    +0.000 A 
ATOM      7  C   UNL     1      -0.700  10.450  22.618  0.00  0.00    +0.000 A 
ATOM      8  C   UNL     1       0.033   9.709  21.682  0.00  0.00    +0.000 A 
ATOM      9  C   UNL     1       0.323  10.225  20.408  0.00  0.00    +0.000 A 
ATOM     10  C   UNL     1      -0.171  11.497  20.085  0.00  0.00    +0.000 A 
ATOM     11  C   UNL     1      -0.906  12.241  21.018  0.00  0.00    +0.000 A 
BRANCH   6  13
ATOM     12  C   UNL     1      -1.396  13.953  23.585  0.00  0.00    +0.000 C 
ATOM     13  C   UNL     1      -1.911  12.572  23.273  0.00  0.00    +0.000 C 
ATOM     14  O   UNL     1      -2.935  12.139  23.799  0.00  0.00    +0.000 OA
ENDBRANCH   6  13
ENDBRANCH   1   9
BRANCH   4  15
ATOM     15  C   UNL     1       2.805   6.313  18.995  0.00  0.00    +0.000 C 
ATOM     16  O   UNL     1       2.966   5.766  20.082  0.00  0.00    +0.000 OA
ATOM     17  N   UNL     1       3.128   5.701  17.806  0.00  0.00    +0.000 N 
ATOM     18  H   UNL     1       2.969   6.220  16.950  0.00  0.00    +0.000 HD
BRANCH  17  19
ATOM     19  C   UNL     1       3.735   4.394  17.744  0.00  0.00    +0.000 C 
BRANCH  19  20
ATOM     20  C   UNL     1       5.149   4.457  17.234  0.00  0.00    +0.000 A 
ATOM     21  C   UNL     1       6.227   4.598  18.114  0.00  0.00    +0.000 A 
ATOM     22  C   UNL     1       7.513   4.610  17.596  0.00  0.00    +0.000 A 
ATOM     23  N   UNL     1       7.794   4.496  16.281  0.00  0.00    +0.000 NA
ATOM     24  C   UNL     1       6.742   4.357  15.446  0.00  0.00    +0.000 A 
ATOM     25  C   UNL     1       5.422   4.333  15.869  0.00  0.00    +0.000 A 
ENDBRANCH  19  20
ENDBRANCH  17  19
ENDBRANCH   4  15
TORSDOF 5
ENDMDL
MODEL 7
REMARK VINA RESULT:      -7.8      0.825      1.607
REMARK  Name = 
REMARK  6 active torsions:
REMARK  status: ('A' for Active; 'I' for Inactive)
REMARK    1  A    between atoms: C_1  and  C_2
REMARK    2  A    between atoms: C_2  and  C_4
REMARK    3  A    between atoms: C_7  and  C_8
REMARK    4  A    between atoms: C_11  and  C_12
REMARK    5  A    between atoms: N_14  and  C_15
REMARK    6  A    between atoms: C_15  and  C_16
REMARK                            x       y       z     vdW  Elec       q    Type
REMARK                         _______ _______ _______ _____ _____    ______ ____
ROOT
ATOM      1  C   UNL     1       2.977   6.488  18.931  0.00  0.00    +0.000 A 
ATOM      2  C   UNL     1       2.334   5.815  19.952  0.00  0.00    +0.000 A 
ATOM      3  C   UNL     1       1.481   6.748  20.583  0.00  0.00    +0.000 A 
ATOM      4  C   UNL     1       1.651   7.951  19.929  0.00  0.00    +0.000 A 
ATOM      5  O   UNL     1       2.570   7.796  18.921  0.00  0.00    +0.000 OA
ENDROOT
BRANCH   1   9
ATOM      6  C   UNL     1       5.672   5.218  15.840  0.00  0.00    +0.000 A 
ATOM      7  C   UNL     1       5.311   4.348  16.871  0.00  0.00    +0.000 A 
ATOM      8  C   UNL     1       4.449   4.781  17.886  0.00  0.00    +0.000 A 
ATOM      9  C   UNL     1       3.926   6.085  17.894  0.00  0.00    +0.000 A 
ATOM     10  C   UNL     1       4.319   6.956  16.869  0.00  0.00    +0.000 A 
ATOM     11  C   UNL     1       5.182   6.528  15.852  0.00  0.00    +0.000 A 
BRANCH   6  13
ATOM     12  C   UNL     1       5.982   3.897  13.641  0.00  0.00    +0.000 C 
ATOM     13  C   UNL     1       6.555   4.788  14.713  0.00  0.00    +0.000 C 
ATOM     14  O   UNL     1       7.721   5.173  14.667  0.00  0.00    +0.000 OA
ENDBRANCH   6  13
ENDBRANCH   1   9
BRANCH   4  15
ATOM     15  C   UNL     1       1.020   9.236  20.149  0.00  0.00    +0.000 C 
ATOM     16  O   UNL     1       0.859   9.719  21.267  0.00  0.00    +0.000 OA
ATOM     17  N   UNL     1       0.614   9.878  19.002  0.00  0.00    +0.000 N 
ATOM     18  H   UNL     1       0.780   9.412  18.118  0.00  0.00    +0.000 HD
BRANCH  17  19
ATOM     19  C   UNL     1      -0.084  11.140  19.023  0.00  0.00    +0.000 C 
BRANCH  19  20
ATOM     20  C   UNL     1      -1.503  11.002  18.541  0.00  0.00    +0.000 A 
ATOM     21  C   UNL     1      -1.872   9.973  17.670  0.00  0.00    +0.000 A 
ATOM     22  C   UNL     1      -3.201   9.867  17.287  0.00  0.00    +0.000 A 
ATOM     23  N   UNL     1      -4.172  10.705  17.706  0.00  0.00    +0.000 NA
ATOM     24  C   UNL     1      -3.799  11.691  18.549  0.00  0.00    +0.000 A 
ATOM     25  C   UNL     1      -2.497  11.877  18.988  0.00  0.00    +0.000 A 
ENDBRANCH  19  20
ENDBRANCH  17  19
ENDBRANCH   4  15
TORSDOF 5
ENDMDL
MODEL 8
REMARK VINA RESULT:      -7.7      1.400      1.797
REMARK  Name = 
REMARK  6 active torsions:
REMARK  status: ('A' for Active; 'I' for Inactive)
REMARK    1  A    between atoms: C_1  and  C_2
REMARK    2  A    between atoms: C_2  and  C_4
REMARK    3  A    between atoms: C_7  and  C_8
REMARK    4  A    between atoms: C_11  and  C_12
REMARK    5  A    between atoms: N_14  and  C_15
REMARK    6  A    between atoms: C_15  and  C_16
REMARK                            x       y       z     vdW  Elec       q    Type
REMARK                         _______ _______ _______ _____ _____    ______ ____
ROOT
ATOM      1  C   UNL     1       2.707   7.100  19.035  0.00  0.00    +0.000 A 
ATOM      2  C   UNL     1       2.163   6.760  20.258  0.00  0.00    +0.000 A 
ATOM      3  C   UNL     1       1.288   7.809  20.623  0.00  0.00    +0.000 A 
ATOM      4  C   UNL     1       1.349   8.747  19.613  0.00  0.00    +0.000 A 
ATOM      5  O   UNL     1       2.220   8.319  18.643  0.00  0.00    +0.000 OA
ENDROOT
BRANCH   1   9
ATOM      6  C   UNL     1       5.497   5.196  16.384  0.00  0.00    +0.000 A 
ATOM      7  C   UNL     1       5.197   6.553  16.247  0.00  0.00    +0.000 A 
ATOM      8  C   UNL     1       4.268   7.159  17.103  0.00  0.00    +0.000 A 
ATOM      9  C   UNL     1       3.623   6.428  18.114  0.00  0.00    +0.000 A 
ATOM     10  C   UNL     1       3.912   5.061  18.224  0.00  0.00    +0.000 A 
ATOM     11  C   UNL     1       4.839   4.450  17.369  0.00  0.00    +0.000 A 
BRANCH   6  13
ATOM     12  C   UNL     1       6.080   3.962  14.190  0.00  0.00    +0.000 C 
ATOM     13  C   UNL     1       6.512   4.517  15.523  0.00  0.00    +0.000 C 
ATOM     14  O   UNL     1       7.678   4.432  15.901  0.00  0.00    +0.000 OA
ENDBRANCH   6  13
ENDBRANCH   1   9
BRANCH   4  15
ATOM     15  C   UNL     1       0.652  10.008  19.461  0.00  0.00    +0.000 C 
ATOM     16  O   UNL     1       1.221  11.095  19.499  0.00  0.00    +0.000 OA
ATOM     17  N   UNL     1      -0.706   9.893  19.270  0.00  0.00    +0.000 N 
ATOM     18  H   UNL     1      -1.102   8.960  19.255  0.00  0.00    +0.000 HD
BRANCH  17  19
ATOM     19  C   UNL     1      -1.575  11.038  19.156  0.00  0.00    +0.000 C 
BRANCH  19  20
ATOM     20  C   UNL     1      -2.463  10.948  17.944  0.00  0.00    +0.000 A 
ATOM     21  C   UNL     1      -3.728  11.541  17.931  0.00  0.00    +0.000 A 
ATOM     22  C   UNL     1      -4.490  11.464  16.775  0.00  0.00    +0.000 A 
ATOM     23  N   UNL     1      -4.083  10.843  15.648  0.00  0.00    +0.000 NA
ATOM     24  C   UNL     1      -2.857  10.278  15.676  0.00  0.00    +0.000 A 
ATOM     25  C   UNL     1      -2.022  10.304  16.784  0.00  0.00    +0.000 A 
ENDBRANCH  19  20
ENDBRANCH  17  19
ENDBRANCH   4  15
TORSDOF 5
ENDMDL
MODEL 9
REMARK VINA RESULT:      -7.7      0.384      1.402
REMARK  Name = 
REMARK  6 active torsions:
REMARK  status: ('A' for Active; 'I' for Inactive)
REMARK    1  A    between atoms: C_1  and  C_2
REMARK    2  A    between atoms: C_2  and  C_4
REMARK    3  A    between atoms: C_7  and  C_8
REMARK    4  A    between atoms: C_11  and  C_12
REMARK    5  A    between atoms: N_14  and  C_15
REMARK    6  A    between atoms: C_15  and  C_16
REMARK                            x       y       z     vdW  Elec       q    Type
REMARK                         _______ _______ _______ _____ _____    ______ ____
ROOT
ATOM      1  C   UNL     1       3.136   5.717  18.902  0.00  0.00    +0.000 A 
ATOM      2  C   UNL     1       2.443   4.874  19.749  0.00  0.00    +0.000 A 
ATOM      3  C   UNL     1       1.662   5.694  20.595  0.00  0.00    +0.000 A 
ATOM      4  C   UNL     1       1.924   7.000  20.236  0.00  0.00    +0.000 A 
ATOM      5  O   UNL     1       2.829   7.018  19.204  0.00  0.00    +0.000 OA
ENDROOT
BRANCH   1   9
ATOM      6  C   UNL     1       5.724   5.034  15.546  0.00  0.00    +0.000 A 
ATOM      7  C   UNL     1       5.084   3.967  16.180  0.00  0.00    +0.000 A 
ATOM      8  C   UNL     1       4.260   4.199  17.288  0.00  0.00    +0.000 A 
ATOM      9  C   UNL     1       4.053   5.497  17.785  0.00  0.00    +0.000 A 
ATOM     10  C   UNL     1       4.722   6.556  17.157  0.00  0.00    +0.000 A 
ATOM     11  C   UNL     1       5.549   6.328  16.048  0.00  0.00    +0.000 A 
BRANCH   6  13
ATOM     12  C   UNL     1       6.218   3.750  13.359  0.00  0.00    +0.000 C 
ATOM     13  C   UNL     1       6.578   4.840  14.335  0.00  0.00    +0.000 C 
ATOM     14  O   UNL     1       7.546   5.572  14.144  0.00  0.00    +0.000 OA
ENDBRANCH   6  13
ENDBRANCH   1   9
BRANCH   4  15
ATOM     15  C   UNL     1       1.392   8.242  20.759  0.00  0.00    +0.000 C 
ATOM     16  O   UNL     1       1.002   8.367  21.916  0.00  0.00    +0.000 OA
ATOM     17  N   UNL     1       1.357   9.277  19.852  0.00  0.00    +0.000 N 
ATOM     18  H   UNL     1       1.693   9.093  18.915  0.00  0.00    +0.000 HD
BRANCH  17  19
ATOM     19  C   UNL     1       0.808  10.572  20.172  0.00  0.00    +0.000 C 
BRANCH  19  20
ATOM     20  C   UNL     1      -0.362  10.916  19.291  0.00  0.00    +0.000 A 
ATOM     21  C   UNL     1      -0.806  10.033  18.302  0.00  0.00    +0.000 A 
ATOM     22  C   UNL     1      -1.913  10.381  17.544  0.00  0.00    +0.000 A 
ATOM     23  N   UNL     1      -2.597  11.534  17.700  0.00  0.00    +0.000 NA
ATOM     24  C   UNL     1      -2.158  12.374  18.660  0.00  0.00    +0.000 A 
ATOM     25  C   UNL     1      -1.061  12.114  19.469  0.00  0.00    +0.000 A 
ENDBRANCH  19  20
ENDBRANCH  17  19
ENDBRANCH   4  15
TORSDOF 5
ENDMDL
