MODEL 1
REMARK VINA RESULT:      -8.1      0.000      0.000
REMARK  Name = 
REMARK  11 active torsions:
REMARK  status: ('A' for Active; 'I' for Inactive)
REMARK    1  A    between atoms: C_1  and  C_2
REMARK    2  A    between atoms: C_2  and  C_3
REMARK    3  A    between atoms: C_10  and  C_11
REMARK    4  A    between atoms: C_12  and  C_13
REMARK    5  A    between atoms: C_13  and  C_14
REMARK    6  A    between atoms: C_13  and  C_15
REMARK    7  A    between atoms: C_17  and  C_18
REMARK    8  A    between atoms: C_21  and  C_22
REMARK    9  A    between atoms: C_22  and  O_24
REMARK   10  A    between atoms: C_29  and  O_30
REMARK   11  A    between atoms: O_30  and  C_31
REMARK                            x       y       z     vdW  Elec       q    Type
REMARK                         _______ _______ _______ _____ _____    ______ ____
ROOT
ATOM      1  C   UNL     1       0.894  11.067  19.635  0.00  0.00    +0.000 C 
ATOM      2  C   UNL     1       1.913  11.558  18.599  0.00  0.00    +0.000 C 
ENDROOT
BRANCH   1   3
ATOM      3  C   UNL     1       1.141   9.621  20.062  0.00  0.00    +0.000 A 
ATOM      4  C   UNL     1       2.069   8.858  19.297  0.00  0.00    +0.000 A 
ATOM      5  C   UNL     1       2.213   7.462  19.407  0.00  0.00    +0.000 A 
ATOM      6  C   UNL     1       1.517   6.846  20.449  0.00  0.00    +0.000 A 
ATOM      7  C   UNL     1       0.644   7.578  21.260  0.00  0.00    +0.000 A 
ATOM      8  C   UNL     1       0.426   8.950  21.066  0.00  0.00    +0.000 A 
BRANCH   5   9
ATOM      9  C   UNL     1       2.948   6.680  18.374  0.00  0.00    +0.000 A 
ATOM     10  C   UNL     1       2.819   5.285  18.251  0.00  0.00    +0.000 A 
ATOM     11  C   UNL     1       3.631   4.550  17.372  0.00  0.00    +0.000 A 
ATOM     12  C   UNL     1       4.579   5.195  16.571  0.00  0.00    +0.000 A 
ATOM     13  C   UNL     1       4.679   6.586  16.626  0.00  0.00    +0.000 A 
ATOM     14  C   UNL     1       3.888   7.309  17.528  0.00  0.00    +0.000 A 
BRANCH  12  15
ATOM     15  C   UNL     1       5.421   4.368  15.667  0.00  0.00    +0.000 C 
ATOM     16  O   UNL     1       5.439   4.526  14.458  0.00  0.00    +0.000 OA
BRANCH  15  17
ATOM     17  O   UNL     1       6.123   3.398  16.290  0.00  0.00    +0.000 OA
ATOM     18  H   UNL     1       6.473   2.694  15.714  0.00  0.00    +0.000 HD
ENDBRANCH  15  17
ENDBRANCH  12  15
ENDBRANCH   5   9
BRANCH   8  19
ATOM     19  O   UNL     1      -0.608   9.418  21.825  0.00  0.00    +0.000 OA
ATOM     20  C   UNL     1      -0.326  10.021  23.077  0.00  0.00    +0.000 C 
ENDBRANCH   8  19
ENDBRANCH   1   3
BRANCH   1  22
ATOM     21  C   UNL     1      -1.623  11.359  18.752  0.00  0.00    +0.000 C 
ATOM     22  C   UNL     1      -0.476  11.247  19.100  0.00  0.00    +0.000 C 
BRANCH  21  30
ATOM     23  C   UNL     1      -3.495  11.029  17.185  0.00  0.00    +0.000 A 
ATOM     24  N   UNL     1      -4.797  11.169  16.840  0.00  0.00    +0.000 NA
ATOM     25  C   UNL     1      -5.603  11.770  17.718  0.00  0.00    +0.000 A 
ATOM     26  N   UNL     1      -6.932  11.887  17.371  0.00  0.00    +0.000 N 
ATOM     27  N   UNL     1      -5.211  12.310  18.874  0.00  0.00    +0.000 NA
ATOM     28  C   UNL     1      -3.917  12.175  19.196  0.00  0.00    +0.000 A 
ATOM     29  N   UNL     1      -3.552  12.737  20.428  0.00  0.00    +0.000 N 
ATOM     30  C   UNL     1      -3.000  11.510  18.386  0.00  0.00    +0.000 A 
ATOM     31  H   UNL     1      -7.032  11.819  16.368  0.00  0.00    +0.000 HD
ATOM     32  H   UNL     1      -7.347  12.682  17.833  0.00  0.00    +0.000 HD
ATOM     33  H   UNL     1      -4.369  13.225  20.790  0.00  0.00    +0.000 HD
ATOM     34  H   UNL     1      -2.752  13.351  20.330  0.00  0.00    +0.000 HD
BRANCH  23  36
ATOM     35  C   UNL     1      -3.282  10.371  14.780  0.00  0.00    +0.000 C 
ATOM     36  C   UNL     1      -2.611  10.392  16.146  0.00  0.00    +0.000 C 
ENDBRANCH  23  36
ENDBRANCH  21  30
ENDBRANCH   1  22
TORSDOF 8
ENDMDL
MODEL 2
REMARK VINA RESULT:      -8.0      1.713      2.338
REMARK  Name = 
REMARK  11 active torsions:
REMARK  status: ('A' for Active; 'I' for Inactive)
REMARK    1  A    between atoms: C_1  and  C_2
REMARK    2  A    between atoms: C_2  and  C_3
REMARK    3  A    between atoms: C_10  and  C_11
REMARK    4  A    between atoms: C_12  and  C_13
REMARK    5  A    between atoms: C_13  and  C_14
REMARK    6  A    between atoms: C_13  and  C_15
REMARK    7  A    between atoms: C_17  and  C_18
REMARK    8  A    between atoms: C_21  and  C_22
REMARK    9  A    between atoms: C_22  and  O_24
REMARK   10  A    between atoms: C_29  and  O_30
REMARK   11  A    between atoms: O_30  and  C_31
REMARK                            x       y       z     vdW  Elec       q    Type
REMARK                         _______ _______ _______ _____ _____    ______ ____
ROOT
ATOM      1  C   UNL     1       0.903  11.267  19.142  0.00  0.00    +0.000 C 
ATOM      2  C   UNL     1       1.582  10.911  17.813  0.00  0.00    +0.000 C 
ENDROOT
BRANCH   1   3
ATOM      3  C   UNL     1       1.118  10.201  20.215  0.00  0.00    +0.000 A 
ATOM      4  C   UNL     1       1.613   8.933  19.793  0.00  0.00    +0.000 A 
ATOM      5  C   UNL     1       1.623   7.787  20.611  0.00  0.00    +0.000 A 
ATOM      6  C   UNL     1       1.283   7.977  21.951  0.00  0.00    +0.000 A 
ATOM      7  C   UNL     1       0.852   9.224  22.413  0.00  0.00    +0.000 A 
ATOM      8  C   UNL     1       0.740  10.332  21.560  0.00  0.00    +0.000 A 
BRANCH   5   9
ATOM      9  C   UNL     1       1.841   6.431  20.032  0.00  0.00    +0.000 A 
ATOM     10  C   UNL     1       2.322   6.238  18.725  0.00  0.00    +0.000 A 
ATOM     11  C   UNL     1       2.378   4.959  18.148  0.00  0.00    +0.000 A 
ATOM     12  C   UNL     1       1.978   3.832  18.873  0.00  0.00    +0.000 A 
ATOM     13  C   UNL     1       1.560   3.991  20.196  0.00  0.00    +0.000 A 
ATOM     14  C   UNL     1       1.477   5.273  20.754  0.00  0.00    +0.000 A 
BRANCH  12  15
ATOM     15  C   UNL     1       2.046   2.503  18.211  0.00  0.00    +0.000 C 
ATOM     16  O   UNL     1       2.892   2.226  17.378  0.00  0.00    +0.000 OA
BRANCH  15  17
ATOM     17  O   UNL     1       1.066   1.648  18.573  0.00  0.00    +0.000 OA
ATOM     18  H   UNL     1       0.731   1.068  17.867  0.00  0.00    +0.000 HD
ENDBRANCH  15  17
ENDBRANCH  12  15
ENDBRANCH   5   9
BRANCH   8  19
ATOM     19  O   UNL     1       0.110  11.383  22.164  0.00  0.00    +0.000 OA
ATOM     20  C   UNL     1      -1.102  11.152  22.860  0.00  0.00    +0.000 C 
ENDBRANCH   8  19
ENDBRANCH   1   3
BRANCH   1  22
ATOM     21  C   UNL     1      -1.703  11.655  18.634  0.00  0.00    +0.000 C 
ATOM     22  C   UNL     1      -0.539  11.515  18.905  0.00  0.00    +0.000 C 
BRANCH  21  30
ATOM     23  C   UNL     1      -3.570  11.457  17.039  0.00  0.00    +0.000 A 
ATOM     24  N   UNL     1      -4.883  11.564  16.725  0.00  0.00    +0.000 NA
ATOM     25  C   UNL     1      -5.714  11.962  17.690  0.00  0.00    +0.000 A 
ATOM     26  N   UNL     1      -7.053  12.046  17.370  0.00  0.00    +0.000 N 
ATOM     27  N   UNL     1      -5.343  12.335  18.916  0.00  0.00    +0.000 NA
ATOM     28  C   UNL     1      -4.039  12.237  19.210  0.00  0.00    +0.000 A 
ATOM     29  N   UNL     1      -3.694  12.617  20.514  0.00  0.00    +0.000 N 
ATOM     30  C   UNL     1      -3.092  11.771  18.301  0.00  0.00    +0.000 A 
ATOM     31  H   UNL     1      -7.161  12.132  16.369  0.00  0.00    +0.000 HD
ATOM     32  H   UNL     1      -7.513  12.727  17.955  0.00  0.00    +0.000 HD
ATOM     33  H   UNL     1      -4.537  12.986  20.952  0.00  0.00    +0.000 HD
ATOM     34  H   UNL     1      -2.937  13.290  20.514  0.00  0.00    +0.000 HD
BRANCH  23  36
ATOM     35  C   UNL     1      -3.041   9.692  15.346  0.00  0.00    +0.000 C 
ATOM     36  C   UNL     1      -2.661  11.054  15.909  0.00  0.00    +0.000 C 
ENDBRANCH  23  36
ENDBRANCH  21  30
ENDBRANCH   1  22
TORSDOF 8
ENDMDL
MODEL 3
REMARK VINA RESULT:      -8.0      1.431      1.807
REMARK  Name = 
REMARK  11 active torsions:
REMARK  status: ('A' for Active; 'I' for Inactive)
REMARK    1  A    between atoms: C_1  and  C_2
REMARK    2  A    between atoms: C_2  and  C_3
REMARK    3  A    between atoms: C_10  and  C_11
REMARK    4  A    between atoms: C_12  and  C_13
REMARK    5  A    between atoms: C_13  and  C_14
REMARK    6  A    between atoms: C_13  and  C_15
REMARK    7  A    between atoms: C_17  and  C_18
REMARK    8  A    between atoms: C_21  and  C_22
REMARK    9  A    between atoms: C_22  and  O_24
REMARK   10  A    between atoms: C_29  and  O_30
REMARK   11  A    between atoms: O_30  and  C_31
REMARK                            x       y       z     vdW  Elec       q    Type
REMARK                         _______ _______ _______ _____ _____    ______ ____
ROOT
ATOM      1  C   UNL     1       0.762  11.743  19.645  0.00  0.00    +0.000 C 
ATOM      2  C   UNL     1       1.752  11.800  18.476  0.00  0.00    +0.000 C 
ENDROOT
BRANCH   1   3
ATOM      3  C   UNL     1       0.999  10.541  20.558  0.00  0.00    +0.000 A 
ATOM      4  C   UNL     1       1.544   9.364  19.968  0.00  0.00    +0.000 A 
ATOM      5  C   UNL     1       1.584   8.113  20.612  0.00  0.00    +0.000 A 
ATOM      6  C   UNL     1       1.219   8.096  21.960  0.00  0.00    +0.000 A 
ATOM      7  C   UNL     1       0.739   9.249  22.587  0.00  0.00    +0.000 A 
ATOM      8  C   UNL     1       0.599  10.464  21.900  0.00  0.00    +0.000 A 
BRANCH   5   9
ATOM      9  C   UNL     1       1.857   6.862  19.849  0.00  0.00    +0.000 A 
ATOM     10  C   UNL     1       1.546   5.587  20.355  0.00  0.00    +0.000 A 
ATOM     11  C   UNL     1       1.947   4.419  19.687  0.00  0.00    +0.000 A 
ATOM     12  C   UNL     1       2.648   4.493  18.480  0.00  0.00    +0.000 A 
ATOM     13  C   UNL     1       2.909   5.746  17.923  0.00  0.00    +0.000 A 
ATOM     14  C   UNL     1       2.535   6.908  18.610  0.00  0.00    +0.000 A 
BRANCH  12  15
ATOM     15  C   UNL     1       3.057   3.225  17.821  0.00  0.00    +0.000 C 
ATOM     16  O   UNL     1       2.253   2.414  17.396  0.00  0.00    +0.000 OA
BRANCH  15  17
ATOM     17  O   UNL     1       4.392   3.025  17.777  0.00  0.00    +0.000 OA
ATOM     18  H   UNL     1       4.918   3.551  18.406  0.00  0.00    +0.000 HD
ENDBRANCH  15  17
ENDBRANCH  12  15
ENDBRANCH   5   9
BRANCH   8  19
ATOM     19  O   UNL     1      -0.075  11.396  22.637  0.00  0.00    +0.000 OA
ATOM     20  C   UNL     1      -1.443  11.178  22.939  0.00  0.00    +0.000 C 
ENDBRANCH   8  19
ENDBRANCH   1   3
BRANCH   1  22
ATOM     21  C   UNL     1      -1.779  11.777  18.781  0.00  0.00    +0.000 C 
ATOM     22  C   UNL     1      -0.623  11.755  19.116  0.00  0.00    +0.000 C 
BRANCH  21  30
ATOM     23  C   UNL     1      -3.604  11.483  17.152  0.00  0.00    +0.000 A 
ATOM     24  N   UNL     1      -4.913  11.540  16.808  0.00  0.00    +0.000 NA
ATOM     25  C   UNL     1      -5.777  11.932  17.747  0.00  0.00    +0.000 A 
ATOM     26  N   UNL     1      -7.110  11.966  17.397  0.00  0.00    +0.000 N 
ATOM     27  N   UNL     1      -5.444  12.344  18.971  0.00  0.00    +0.000 NA
ATOM     28  C   UNL     1      -4.144  12.295  19.294  0.00  0.00    +0.000 A 
ATOM     29  N   UNL     1      -3.840  12.715  20.596  0.00  0.00    +0.000 N 
ATOM     30  C   UNL     1      -3.163  11.840  18.416  0.00  0.00    +0.000 A 
ATOM     31  H   UNL     1      -7.200  12.026  16.392  0.00  0.00    +0.000 HD
ATOM     32  H   UNL     1      -7.604  12.645  17.957  0.00  0.00    +0.000 HD
ATOM     33  H   UNL     1      -4.703  13.066  21.008  0.00  0.00    +0.000 HD
ATOM     34  H   UNL     1      -3.105  13.412  20.596  0.00  0.00    +0.000 HD
BRANCH  23  36
ATOM     35  C   UNL     1      -3.006   9.716  15.484  0.00  0.00    +0.000 C 
ATOM     36  C   UNL     1      -2.658  11.085  16.050  0.00  0.00    +0.000 C 
ENDBRANCH  23  36
ENDBRANCH  21  30
ENDBRANCH   1  22
TORSDOF 8
ENDMDL
MODEL 4
REMARK VINA RESULT:      -7.8      4.790      8.246
REMARK  Name = 
REMARK  11 active torsions:
REMARK  status: ('A' for Active; 'I' for Inactive)
REMARK    1  A    between atoms: C_1  and  C_2
REMARK    2  A    between atoms: C_2  and  C_3
REMARK    3  A    between atoms: C_10  and  C_11
REMARK    4  A    between atoms: C_12  and  C_13
REMARK    5  A    between atoms: C_13  and  C_14
REMARK    6  A    between atoms: C_13  and  C_15
REMARK    7  A    between atoms: C_17  and  C_18
REMARK    8  A    between atoms: C_21  and  C_22
REMARK    9  A    between atoms: C_22  and  O_24
REMARK   10  A    between atoms: C_29  and  O_30
REMARK   11  A    between atoms: O_30  and  C_31
REMARK                            x       y       z     vdW  Elec       q    Type
REMARK                         _______ _______ _______ _____ _____    ______ ____
ROOT
ATOM      1  C   UNL     1       0.611   9.295  21.304  0.00  0.00    +0.000 C 
ATOM      2  C   UNL     1      -0.552   8.544  21.965  0.00  0.00    +0.000 C 
ENDROOT
BRANCH   1   3
ATOM      3  C   UNL     1       0.142  10.481  20.464  0.00  0.00    +0.000 A 
ATOM      4  C   UNL     1      -0.832  10.229  19.454  0.00  0.00    +0.000 A 
ATOM      5  C   UNL     1      -1.172  11.153  18.448  0.00  0.00    +0.000 A 
ATOM      6  C   UNL     1      -0.634  12.435  18.574  0.00  0.00    +0.000 A 
ATOM      7  C   UNL     1       0.277  12.734  19.591  0.00  0.00    +0.000 A 
ATOM      8  C   UNL     1       0.692  11.771  20.522  0.00  0.00    +0.000 A 
BRANCH   5   9
ATOM      9  C   UNL     1      -1.939  10.730  17.242  0.00  0.00    +0.000 A 
ATOM     10  C   UNL     1      -1.646   9.548  16.538  0.00  0.00    +0.000 A 
ATOM     11  C   UNL     1      -2.281   9.246  15.323  0.00  0.00    +0.000 A 
ATOM     12  C   UNL     1      -3.248  10.104  14.791  0.00  0.00    +0.000 A 
ATOM     13  C   UNL     1      -3.605  11.249  15.505  0.00  0.00    +0.000 A 
ATOM     14  C   UNL     1      -2.945  11.561  16.701  0.00  0.00    +0.000 A 
BRANCH  12  15
ATOM     15  C   UNL     1      -3.881   9.741  13.496  0.00  0.00    +0.000 C 
ATOM     16  O   UNL     1      -5.061   9.452  13.398  0.00  0.00    +0.000 OA
BRANCH  15  17
ATOM     17  O   UNL     1      -3.030   9.711  12.448  0.00  0.00    +0.000 OA
ATOM     18  H   UNL     1      -3.414   9.951  11.586  0.00  0.00    +0.000 HD
ENDBRANCH  15  17
ENDBRANCH  12  15
ENDBRANCH   5   9
BRANCH   8  19
ATOM     19  O   UNL     1       1.730  12.214  21.291  0.00  0.00    +0.000 OA
ATOM     20  C   UNL     1       2.337  13.456  20.980  0.00  0.00    +0.000 C 
ENDBRANCH   8  19
ENDBRANCH   1   3
BRANCH   1  22
ATOM     21  C   UNL     1       2.042   7.502  19.912  0.00  0.00    +0.000 C 
ATOM     22  C   UNL     1       1.413   8.344  20.498  0.00  0.00    +0.000 C 
BRANCH  21  30
ATOM     23  C   UNL     1       2.822   5.173  19.717  0.00  0.00    +0.000 A 
ATOM     24  N   UNL     1       3.491   4.193  19.066  0.00  0.00    +0.000 NA
ATOM     25  C   UNL     1       4.067   4.511  17.905  0.00  0.00    +0.000 A 
ATOM     26  N   UNL     1       4.726   3.502  17.235  0.00  0.00    +0.000 N 
ATOM     27  N   UNL     1       4.099   5.735  17.375  0.00  0.00    +0.000 NA
ATOM     28  C   UNL     1       3.444   6.699  18.038  0.00  0.00    +0.000 A 
ATOM     29  N   UNL     1       3.484   7.964  17.436  0.00  0.00    +0.000 N 
ATOM     30  C   UNL     1       2.753   6.465  19.224  0.00  0.00    +0.000 A 
ATOM     31  H   UNL     1       4.974   2.766  17.881  0.00  0.00    +0.000 HD
ATOM     32  H   UNL     1       5.456   3.885  16.653  0.00  0.00    +0.000 HD
ATOM     33  H   UNL     1       4.105   7.895  16.632  0.00  0.00    +0.000 HD
ATOM     34  H   UNL     1       3.786   8.674  18.092  0.00  0.00    +0.000 HD
BRANCH  23  36
ATOM     35  C   UNL     1       1.252   3.627  20.905  0.00  0.00    +0.000 C 
ATOM     36  C   UNL     1       2.230   4.785  21.047  0.00  0.00    +0.000 C 
ENDBRANCH  23  36
ENDBRANCH  21  30
ENDBRANCH   1  22
TORSDOF 8
ENDMDL
MODEL 5
REMARK VINA RESULT:      -7.8      1.731      2.711
REMARK  Name = 
REMARK  11 active torsions:
REMARK  status: ('A' for Active; 'I' for Inactive)
REMARK    1  A    between atoms: C_1  and  C_2
REMARK    2  A    between atoms: C_2  and  C_3
REMARK    3  A    between atoms: C_10  and  C_11
REMARK    4  A    between atoms: C_12  and  C_13
REMARK    5  A    between atoms: C_13  and  C_14
REMARK    6  A    between atoms: C_13  and  C_15
REMARK    7  A    between atoms: C_17  and  C_18
REMARK    8  A    between atoms: C_21  and  C_22
REMARK    9  A    between atoms: C_22  and  O_24
REMARK   10  A    between atoms: C_29  and  O_30
REMARK   11  A    between atoms: O_30  and  C_31
REMARK                            x       y       z     vdW  Elec       q    Type
REMARK                         _______ _______ _______ _____ _____    ______ ____
ROOT
ATOM      1  C   UNL     1       0.994  11.390  19.201  0.00  0.00    +0.000 C 
ATOM      2  C   UNL     1       1.945  11.263  18.004  0.00  0.00    +0.000 C 
ENDROOT
BRANCH   1   3
ATOM      3  C   UNL     1       1.179  10.267  20.219  0.00  0.00    +0.000 A 
ATOM      4  C   UNL     1       1.690   9.025  19.744  0.00  0.00    +0.000 A 
ATOM      5  C   UNL     1       1.679   7.836  20.498  0.00  0.00    +0.000 A 
ATOM      6  C   UNL     1       1.299   7.951  21.836  0.00  0.00    +0.000 A 
ATOM      7  C   UNL     1       0.852   9.171  22.352  0.00  0.00    +0.000 A 
ATOM      8  C   UNL     1       0.762  10.324  21.558  0.00  0.00    +0.000 A 
BRANCH   5   9
ATOM      9  C   UNL     1       1.917   6.514  19.852  0.00  0.00    +0.000 A 
ATOM     10  C   UNL     1       1.780   5.299  20.549  0.00  0.00    +0.000 A 
ATOM     11  C   UNL     1       2.152   4.077  19.966  0.00  0.00    +0.000 A 
ATOM     12  C   UNL     1       2.648   4.032  18.660  0.00  0.00    +0.000 A 
ATOM     13  C   UNL     1       2.730   5.216  17.925  0.00  0.00    +0.000 A 
ATOM     14  C   UNL     1       2.387   6.435  18.523  0.00  0.00    +0.000 A 
BRANCH  12  15
ATOM     15  C   UNL     1       3.038   2.713  18.096  0.00  0.00    +0.000 C 
ATOM     16  O   UNL     1       2.336   2.099  17.311  0.00  0.00    +0.000 OA
BRANCH  15  17
ATOM     17  O   UNL     1       4.210   2.231  18.564  0.00  0.00    +0.000 OA
ATOM     18  H   UNL     1       4.454   2.515  19.462  0.00  0.00    +0.000 HD
ENDBRANCH  15  17
ENDBRANCH  12  15
ENDBRANCH   5   9
BRANCH   8  19
ATOM     19  O   UNL     1       0.113  11.340  22.200  0.00  0.00    +0.000 OA
ATOM     20  C   UNL     1      -1.021  11.039  22.995  0.00  0.00    +0.000 C 
ENDBRANCH   8  19
ENDBRANCH   1   3
BRANCH   1  22
ATOM     21  C   UNL     1      -1.562  11.552  18.399  0.00  0.00    +0.000 C 
ATOM     22  C   UNL     1      -0.404  11.452  18.712  0.00  0.00    +0.000 C 
BRANCH  21  30
ATOM     23  C   UNL     1      -3.888  12.133  18.967  0.00  0.00    +0.000 A 
ATOM     24  N   UNL     1      -5.190  12.294  18.633  0.00  0.00    +0.000 NA
ATOM     25  C   UNL     1      -5.530  12.061  17.363  0.00  0.00    +0.000 A 
ATOM     26  N   UNL     1      -6.853  12.249  17.024  0.00  0.00    +0.000 N 
ATOM     27  N   UNL     1      -4.703  11.611  16.418  0.00  0.00    +0.000 NA
ATOM     28  C   UNL     1      -3.419  11.444  16.767  0.00  0.00    +0.000 A 
ATOM     29  N   UNL     1      -2.580  10.990  15.740  0.00  0.00    +0.000 N 
ATOM     30  C   UNL     1      -2.941  11.719  18.046  0.00  0.00    +0.000 A 
ATOM     31  H   UNL     1      -7.430  12.196  17.851  0.00  0.00    +0.000 HD
ATOM     32  H   UNL     1      -7.100  11.668  16.237  0.00  0.00    +0.000 HD
ATOM     33  H   UNL     1      -3.171  10.793  14.934  0.00  0.00    +0.000 HD
ATOM     34  H   UNL     1      -2.047  10.180  16.031  0.00  0.00    +0.000 HD
BRANCH  23  36
ATOM     35  C   UNL     1      -4.809  12.624  21.242  0.00  0.00    +0.000 C 
ATOM     36  C   UNL     1      -3.556  12.357  20.419  0.00  0.00    +0.000 C 
ENDBRANCH  23  36
ENDBRANCH  21  30
ENDBRANCH   1  22
TORSDOF 8
ENDMDL
MODEL 6
REMARK VINA RESULT:      -7.8      4.475      7.918
REMARK  Name = 
REMARK  11 active torsions:
REMARK  status: ('A' for Active; 'I' for Inactive)
REMARK    1  A    between atoms: C_1  and  C_2
REMARK    2  A    between atoms: C_2  and  C_3
REMARK    3  A    between atoms: C_10  and  C_11
REMARK    4  A    between atoms: C_12  and  C_13
REMARK    5  A    between atoms: C_13  and  C_14
REMARK    6  A    between atoms: C_13  and  C_15
REMARK    7  A    between atoms: C_17  and  C_18
REMARK    8  A    between atoms: C_21  and  C_22
REMARK    9  A    between atoms: C_22  and  O_24
REMARK   10  A    between atoms: C_29  and  O_30
REMARK   11  A    between atoms: O_30  and  C_31
REMARK                            x       y       z     vdW  Elec       q    Type
REMARK                         _______ _______ _______ _____ _____    ______ ____
ROOT
ATOM      1  C   UNL     1       0.386  10.032  21.958  0.00  0.00    +0.000 C 
ATOM      2  C   UNL     1      -0.352   9.287  23.077  0.00  0.00    +0.000 C 
ENDROOT
BRANCH   1   3
ATOM      3  C   UNL     1      -0.502  11.048  21.243  0.00  0.00    +0.000 A 
ATOM      4  C   UNL     1      -1.245  10.595  20.115  0.00  0.00    +0.000 A 
ATOM      5  C   UNL     1      -1.902  11.454  19.214  0.00  0.00    +0.000 A 
ATOM      6  C   UNL     1      -1.951  12.804  19.567  0.00  0.00    +0.000 A 
ATOM      7  C   UNL     1      -1.283  13.274  20.702  0.00  0.00    +0.000 A 
ATOM      8  C   UNL     1      -0.539  12.421  21.531  0.00  0.00    +0.000 A 
BRANCH   5   9
ATOM      9  C   UNL     1      -2.380  10.963  17.891  0.00  0.00    +0.000 A 
ATOM     10  C   UNL     1      -1.684   9.989  17.152  0.00  0.00    +0.000 A 
ATOM     11  C   UNL     1      -2.071   9.650  15.846  0.00  0.00    +0.000 A 
ATOM     12  C   UNL     1      -3.181  10.256  15.250  0.00  0.00    +0.000 A 
ATOM     13  C   UNL     1      -3.928  11.176  15.988  0.00  0.00    +0.000 A 
ATOM     14  C   UNL     1      -3.519  11.533  17.280  0.00  0.00    +0.000 A 
BRANCH  12  15
ATOM     15  C   UNL     1      -3.539   9.868  13.861  0.00  0.00    +0.000 C 
ATOM     16  O   UNL     1      -4.687   9.655  13.512  0.00  0.00    +0.000 OA
BRANCH  15  17
ATOM     17  O   UNL     1      -2.483   9.725  13.032  0.00  0.00    +0.000 OA
ATOM     18  H   UNL     1      -2.254   8.808  12.796  0.00  0.00    +0.000 HD
ENDBRANCH  15  17
ENDBRANCH  12  15
ENDBRANCH   5   9
BRANCH   8  19
ATOM     19  O   UNL     1       0.192  13.113  22.454  0.00  0.00    +0.000 OA
ATOM     20  C   UNL     1       0.224  14.528  22.388  0.00  0.00    +0.000 C 
ENDBRANCH   8  19
ENDBRANCH   1   3
BRANCH   1  22
ATOM     21  C   UNL     1       1.511   8.287  20.257  0.00  0.00    +0.000 C 
ATOM     22  C   UNL     1       0.957   9.049  21.007  0.00  0.00    +0.000 C 
BRANCH  21  30
ATOM     23  C   UNL     1       2.340   6.031  19.715  0.00  0.00    +0.000 A 
ATOM     24  N   UNL     1       2.995   5.168  18.903  0.00  0.00    +0.000 NA
ATOM     25  C   UNL     1       3.493   5.654  17.765  0.00  0.00    +0.000 A 
ATOM     26  N   UNL     1       4.139   4.765  16.932  0.00  0.00    +0.000 N 
ATOM     27  N   UNL     1       3.461   6.937  17.400  0.00  0.00    +0.000 NA
ATOM     28  C   UNL     1       2.821   7.783  18.219  0.00  0.00    +0.000 A 
ATOM     29  N   UNL     1       2.791   9.117  17.789  0.00  0.00    +0.000 N 
ATOM     30  C   UNL     1       2.207   7.374  19.400  0.00  0.00    +0.000 A 
ATOM     31  H   UNL     1       4.444   3.960  17.461  0.00  0.00    +0.000 HD
ATOM     32  H   UNL     1       4.822   5.245  16.366  0.00  0.00    +0.000 HD
ATOM     33  H   UNL     1       3.365   9.175  16.949  0.00  0.00    +0.000 HD
ATOM     34  H   UNL     1       3.112   9.745  18.515  0.00  0.00    +0.000 HD
BRANCH  23  36
ATOM     35  C   UNL     1       1.832   3.931  20.978  0.00  0.00    +0.000 C 
ATOM     36  C   UNL     1       1.838   5.453  21.012  0.00  0.00    +0.000 C 
ENDBRANCH  23  36
ENDBRANCH  21  30
ENDBRANCH   1  22
TORSDOF 8
ENDMDL
MODEL 7
REMARK VINA RESULT:      -7.7      1.820      2.963
REMARK  Name = 
REMARK  11 active torsions:
REMARK  status: ('A' for Active; 'I' for Inactive)
REMARK    1  A    between atoms: C_1  and  C_2
REMARK    2  A    between atoms: C_2  and  C_3
REMARK    3  A    between atoms: C_10  and  C_11
REMARK    4  A    between atoms: C_12  and  C_13
REMARK    5  A    between atoms: C_13  and  C_14
REMARK    6  A    between atoms: C_13  and  C_15
REMARK    7  A    between atoms: C_17  and  C_18
REMARK    8  A    between atoms: C_21  and  C_22
REMARK    9  A    between atoms: C_22  and  O_24
REMARK   10  A    between atoms: C_29  and  O_30
REMARK   11  A    between atoms: O_30  and  C_31
REMARK                            x       y       z     vdW  Elec       q    Type
REMARK                         _______ _______ _______ _____ _____    ______ ____
ROOT
ATOM      1  C   UNL     1       0.916  10.996  18.951  0.00  0.00    +0.000 C 
ATOM      2  C   UNL     1       1.802  10.671  17.742  0.00  0.00    +0.000 C 
ENDROOT
BRANCH   1   3
ATOM      3  C   UNL     1       1.028   9.950  20.059  0.00  0.00    +0.000 A 
ATOM      4  C   UNL     1       1.674   8.720  19.741  0.00  0.00    +0.000 A 
ATOM      5  C   UNL     1       1.633   7.580  20.565  0.00  0.00    +0.000 A 
ATOM      6  C   UNL     1       1.065   7.747  21.829  0.00  0.00    +0.000 A 
ATOM      7  C   UNL     1       0.477   8.960  22.197  0.00  0.00    +0.000 A 
ATOM      8  C   UNL     1       0.427  10.056  21.322  0.00  0.00    +0.000 A 
BRANCH   5   9
ATOM      9  C   UNL     1       2.038   6.242  20.048  0.00  0.00    +0.000 A 
ATOM     10  C   UNL     1       2.647   6.072  18.792  0.00  0.00    +0.000 A 
ATOM     11  C   UNL     1       2.884   4.794  18.261  0.00  0.00    +0.000 A 
ATOM     12  C   UNL     1       2.540   3.647  18.984  0.00  0.00    +0.000 A 
ATOM     13  C   UNL     1       1.996   3.790  20.262  0.00  0.00    +0.000 A 
ATOM     14  C   UNL     1       1.734   5.068  20.772  0.00  0.00    +0.000 A 
BRANCH  12  15
ATOM     15  C   UNL     1       2.802   2.319  18.371  0.00  0.00    +0.000 C 
ATOM     16  O   UNL     1       3.755   1.626  18.683  0.00  0.00    +0.000 OA
BRANCH  15  17
ATOM     17  O   UNL     1       1.926   1.968  17.406  0.00  0.00    +0.000 OA
ATOM     18  H   UNL     1       2.271   1.368  16.721  0.00  0.00    +0.000 HD
ENDBRANCH  15  17
ENDBRANCH  12  15
ENDBRANCH   5   9
BRANCH   8  19
ATOM     19  O   UNL     1      -0.366  11.060  21.801  0.00  0.00    +0.000 OA
ATOM     20  C   UNL     1      -1.075  10.859  23.012  0.00  0.00    +0.000 C 
ENDBRANCH   8  19
ENDBRANCH   1   3
BRANCH   1  22
ATOM     21  C   UNL     1      -1.647  11.327  18.227  0.00  0.00    +0.000 C 
ATOM     22  C   UNL     1      -0.486  11.160  18.501  0.00  0.00    +0.000 C 
BRANCH  21  30
ATOM     23  C   UNL     1      -3.880  12.165  18.843  0.00  0.00    +0.000 A 
ATOM     24  N   UNL     1      -5.184  12.398  18.560  0.00  0.00    +0.000 NA
ATOM     25  C   UNL     1      -5.618  12.054  17.345  0.00  0.00    +0.000 A 
ATOM     26  N   UNL     1      -6.940  12.316  17.055  0.00  0.00    +0.000 N 
ATOM     27  N   UNL     1      -4.888  11.431  16.418  0.00  0.00    +0.000 NA
ATOM     28  C   UNL     1      -3.603  11.196  16.717  0.00  0.00    +0.000 A 
ATOM     29  N   UNL     1      -2.867  10.560  15.708  0.00  0.00    +0.000 N 
ATOM     30  C   UNL     1      -3.027  11.571  17.928  0.00  0.00    +0.000 A 
ATOM     31  H   UNL     1      -7.468  12.405  17.912  0.00  0.00    +0.000 HD
ATOM     32  H   UNL     1      -7.280  11.673  16.355  0.00  0.00    +0.000 HD
ATOM     33  H   UNL     1      -3.519  10.325  14.962  0.00  0.00    +0.000 HD
ATOM     34  H   UNL     1      -2.382   9.745  16.063  0.00  0.00    +0.000 HD
BRANCH  23  36
ATOM     35  C   UNL     1      -4.631  12.609  21.189  0.00  0.00    +0.000 C 
ATOM     36  C   UNL     1      -3.444  12.521  20.240  0.00  0.00    +0.000 C 
ENDBRANCH  23  36
ENDBRANCH  21  30
ENDBRANCH   1  22
TORSDOF 8
ENDMDL
MODEL 8
REMARK VINA RESULT:      -7.7      0.930      2.124
REMARK  Name = 
REMARK  11 active torsions:
REMARK  status: ('A' for Active; 'I' for Inactive)
REMARK    1  A    between atoms: C_1  and  C_2
REMARK    2  A    between atoms: C_2  and  C_3
REMARK    3  A    between atoms: C_10  and  C_11
REMARK    4  A    between atoms: C_12  and  C_13
REMARK    5  A    between atoms: C_13  and  C_14
REMARK    6  A    between atoms: C_13  and  C_15
REMARK    7  A    between atoms: C_17  and  C_18
REMARK    8  A    between atoms: C_21  and  C_22
REMARK    9  A    between atoms: C_22  and  O_24
REMARK   10  A    between atoms: C_29  and  O_30
REMARK   11  A    between atoms: O_30  and  C_31
REMARK                            x       y       z     vdW  Elec       q    Type
REMARK                         _______ _______ _______ _____ _____    ______ ____
ROOT
ATOM      1  C   UNL     1       1.066  10.654  19.408  0.00  0.00    +0.000 C 
ATOM      2  C   UNL     1       1.929  11.202  18.265  0.00  0.00    +0.000 C 
ENDROOT
BRANCH   1   3
ATOM      3  C   UNL     1       1.413   9.210  19.765  0.00  0.00    +0.000 A 
ATOM      4  C   UNL     1       2.400   8.555  18.974  0.00  0.00    +0.000 A 
ATOM      5  C   UNL     1       2.643   7.168  19.017  0.00  0.00    +0.000 A 
ATOM      6  C   UNL     1       1.985   6.453  20.020  0.00  0.00    +0.000 A 
ATOM      7  C   UNL     1       1.056   7.079  20.856  0.00  0.00    +0.000 A 
ATOM      8  C   UNL     1       0.741   8.440  20.727  0.00  0.00    +0.000 A 
BRANCH   5   9
ATOM      9  C   UNL     1       3.440   6.493  17.954  0.00  0.00    +0.000 A 
ATOM     10  C   UNL     1       3.477   5.095  17.813  0.00  0.00    +0.000 A 
ATOM     11  C   UNL     1       4.349   4.475  16.904  0.00  0.00    +0.000 A 
ATOM     12  C   UNL     1       5.191   5.238  16.090  0.00  0.00    +0.000 A 
ATOM     13  C   UNL     1       5.125   6.631  16.164  0.00  0.00    +0.000 A 
ATOM     14  C   UNL     1       4.276   7.242  17.096  0.00  0.00    +0.000 A 
BRANCH  12  15
ATOM     15  C   UNL     1       6.103   4.531  15.154  0.00  0.00    +0.000 C 
ATOM     16  O   UNL     1       7.311   4.499  15.309  0.00  0.00    +0.000 OA
BRANCH  15  17
ATOM     17  O   UNL     1       5.485   3.969  14.092  0.00  0.00    +0.000 OA
ATOM     18  H   UNL     1       5.529   2.998  14.044  0.00  0.00    +0.000 HD
ENDBRANCH  15  17
ENDBRANCH  12  15
ENDBRANCH   5   9
BRANCH   8  19
ATOM     19  O   UNL     1      -0.330   8.794  21.498  0.00  0.00    +0.000 OA
ATOM     20  C   UNL     1      -0.101   9.425  22.746  0.00  0.00    +0.000 C 
ENDBRANCH   8  19
ENDBRANCH   1   3
BRANCH   1  22
ATOM     21  C   UNL     1      -1.506  10.996  18.721  0.00  0.00    +0.000 C 
ATOM     22  C   UNL     1      -0.366  10.794  19.051  0.00  0.00    +0.000 C 
BRANCH  21  30
ATOM     23  C   UNL     1      -3.725  12.021  19.034  0.00  0.00    +0.000 A 
ATOM     24  N   UNL     1      -4.989  12.270  18.620  0.00  0.00    +0.000 NA
ATOM     25  C   UNL     1      -5.357  11.770  17.438  0.00  0.00    +0.000 A 
ATOM     26  N   UNL     1      -6.639  12.047  17.012  0.00  0.00    +0.000 N 
ATOM     27  N   UNL     1      -4.602  10.983  16.670  0.00  0.00    +0.000 NA
ATOM     28  C   UNL     1      -3.356  10.734  17.099  0.00  0.00    +0.000 A 
ATOM     29  N   UNL     1      -2.590   9.921  16.253  0.00  0.00    +0.000 N 
ATOM     30  C   UNL     1      -2.846  11.257  18.284  0.00  0.00    +0.000 A 
ATOM     31  H   UNL     1      -7.219  12.288  17.803  0.00  0.00    +0.000 HD
ATOM     32  H   UNL     1      -6.966  11.325  16.388  0.00  0.00    +0.000 HD
ATOM     33  H   UNL     1      -3.201   9.608  15.501  0.00  0.00    +0.000 HD
ATOM     34  H   UNL     1      -2.179   9.146  16.759  0.00  0.00    +0.000 HD
BRANCH  23  36
ATOM     35  C   UNL     1      -4.413  13.543  20.897  0.00  0.00    +0.000 C 
ATOM     36  C   UNL     1      -3.367  12.559  20.395  0.00  0.00    +0.000 C 
ENDBRANCH  23  36
ENDBRANCH  21  30
ENDBRANCH   1  22
TORSDOF 8
ENDMDL
MODEL 9
REMARK VINA RESULT:      -7.5      1.601      2.203
REMARK  Name = 
REMARK  11 active torsions:
REMARK  status: ('A' for Active; 'I' for Inactive)
REMARK    1  A    between atoms: C_1  and  C_2
REMARK    2  A    between atoms: C_2  and  C_3
REMARK    3  A    between atoms: C_10  and  C_11
REMARK    4  A    between atoms: C_12  and  C_13
REMARK    5  A    between atoms: C_13  and  C_14
REMARK    6  A    between atoms: C_13  and  C_15
REMARK    7  A    between atoms: C_17  and  C_18
REMARK    8  A    between atoms: C_21  and  C_22
REMARK    9  A    between atoms: C_22  and  O_24
REMARK   10  A    between atoms: C_29  and  O_30
REMARK   11  A    between atoms: O_30  and  C_31
REMARK                            x       y       z     vdW  Elec       q    Type
REMARK                         _______ _______ _______ _____ _____    ______ ____
ROOT
ATOM      1  C   UNL     1       0.431  12.090  20.036  0.00  0.00    +0.000 C 
ATOM      2  C   UNL     1       1.285  12.115  18.761  0.00  0.00    +0.000 C 
ENDROOT
BRANCH   1   3
ATOM      3  C   UNL     1       0.727  10.878  20.916  0.00  0.00    +0.000 A 
ATOM      4  C   UNL     1       1.391   9.771  20.312  0.00  0.00    +0.000 A 
ATOM      5  C   UNL     1       1.505   8.504  20.915  0.00  0.00    +0.000 A 
ATOM      6  C   UNL     1       1.086   8.408  22.243  0.00  0.00    +0.000 A 
ATOM      7  C   UNL     1       0.487   9.494  22.887  0.00  0.00    +0.000 A 
ATOM      8  C   UNL     1       0.278  10.719  22.236  0.00  0.00    +0.000 A 
BRANCH   5   9
ATOM      9  C   UNL     1       1.911   7.309  20.123  0.00  0.00    +0.000 A 
ATOM     10  C   UNL     1       2.446   7.410  18.826  0.00  0.00    +0.000 A 
ATOM     11  C   UNL     1       2.682   6.269  18.042  0.00  0.00    +0.000 A 
ATOM     12  C   UNL     1       2.413   4.992  18.543  0.00  0.00    +0.000 A 
ATOM     13  C   UNL     1       1.944   4.862  19.852  0.00  0.00    +0.000 A 
ATOM     14  C   UNL     1       1.682   6.005  20.617  0.00  0.00    +0.000 A 
BRANCH  12  15
ATOM     15  C   UNL     1       2.670   3.819  17.666  0.00  0.00    +0.000 C 
ATOM     16  O   UNL     1       1.814   3.339  16.943  0.00  0.00    +0.000 OA
BRANCH  15  17
ATOM     17  O   UNL     1       3.912   3.303  17.775  0.00  0.00    +0.000 OA
ATOM     18  H   UNL     1       3.994   2.354  17.571  0.00  0.00    +0.000 HD
ENDBRANCH  15  17
ENDBRANCH  12  15
ENDBRANCH   5   9
BRANCH   8  19
ATOM     19  O   UNL     1      -0.501  11.566  22.973  0.00  0.00    +0.000 OA
ATOM     20  C   UNL     1      -1.870  11.253  23.162  0.00  0.00    +0.000 C 
ENDBRANCH   8  19
ENDBRANCH   1   3
BRANCH   1  22
ATOM     21  C   UNL     1      -2.154  12.122  19.315  0.00  0.00    +0.000 C 
ATOM     22  C   UNL     1      -1.003  12.154  19.667  0.00  0.00    +0.000 C 
BRANCH  21  30
ATOM     23  C   UNL     1      -3.885  11.532  17.664  0.00  0.00    +0.000 A 
ATOM     24  N   UNL     1      -5.179  11.445  17.277  0.00  0.00    +0.000 NA
ATOM     25  C   UNL     1      -6.108  11.837  18.151  0.00  0.00    +0.000 A 
ATOM     26  N   UNL     1      -7.425  11.723  17.760  0.00  0.00    +0.000 N 
ATOM     27  N   UNL     1      -5.858  12.379  19.345  0.00  0.00    +0.000 NA
ATOM     28  C   UNL     1      -4.572  12.471  19.709  0.00  0.00    +0.000 A 
ATOM     29  N   UNL     1      -4.354  13.025  20.979  0.00  0.00    +0.000 N 
ATOM     30  C   UNL     1      -3.524  12.032  18.905  0.00  0.00    +0.000 A 
ATOM     31  H   UNL     1      -7.482  11.690  16.752  0.00  0.00    +0.000 HD
ATOM     32  H   UNL     1      -7.996  12.401  18.243  0.00  0.00    +0.000 HD
ATOM     33  H   UNL     1      -5.258  13.333  21.332  0.00  0.00    +0.000 HD
ATOM     34  H   UNL     1      -3.681  13.782  20.940  0.00  0.00    +0.000 HD
BRANCH  23  36
ATOM     35  C   UNL     1      -2.433   9.680  16.814  0.00  0.00    +0.000 C 
ATOM     36  C   UNL     1      -2.867  11.127  16.631  0.00  0.00    +0.000 C 
ENDBRANCH  23  36
ENDBRANCH  21  30
ENDBRANCH   1  22
TORSDOF 8
ENDMDL
