MODEL 1
REMARK VINA RESULT:      -8.0      0.000      0.000
REMARK  Name = 
REMARK  4 active torsions:
REMARK  status: ('A' for Active; 'I' for Inactive)
REMARK    1  A    between atoms: C_1  and  C_2
REMARK    2  A    between atoms: C_2  and  N_3
REMARK    3  A    between atoms: N_14  and  C_15
REMARK    4  A    between atoms: C_15  and  C_16
REMARK                            x       y       z     vdW  Elec       q    Type
REMARK                         _______ _______ _______ _____ _____    ______ ____
ROOT
ATOM      1  N   UNL     1       0.858  11.163  18.893  0.00  0.00    +0.000 N 
ATOM      2  C   UNL     1       0.709  10.044  19.734  0.00  0.00    +0.000 A 
ATOM      3  C   UNL     1      -0.284  10.083  20.687  0.00  0.00    +0.000 A 
ATOM      4  C   UNL     1      -0.401   8.973  21.481  0.00  0.00    +0.000 A 
ATOM      5  N   UNL     1       0.360   7.877  21.336  0.00  0.00    +0.000 NA
ATOM      6  C   UNL     1       1.286   7.894  20.363  0.00  0.00    +0.000 A 
ATOM      7  N   UNL     1       2.049   6.788  20.176  0.00  0.00    +0.000 N 
ATOM      8  C   UNL     1       1.808   5.534  20.924  0.00  0.00    +0.000 C 
ATOM      9  C   UNL     1       2.647   4.555  20.199  0.00  0.00    +0.000 A 
ATOM     10  C   UNL     1       3.120   3.251  20.201  0.00  0.00    +0.000 A 
ATOM     11  N   UNL     1       3.937   3.026  19.157  0.00  0.00    +0.000 NA
ATOM     12  N   UNL     1       4.018   4.233  18.518  0.00  0.00    +0.000 N 
ATOM     13  C   UNL     1       3.220   5.146  19.107  0.00  0.00    +0.000 A 
ATOM     14  C   UNL     1       2.860   6.573  18.956  0.00  0.00    +0.000 C 
ATOM     15  N   UNL     1       1.483   8.958  19.565  0.00  0.00    +0.000 NA
ATOM     16  H   UNL     1       0.103  11.127  18.212  0.00  0.00    +0.000 HD
ENDROOT
BRANCH   1  18
ATOM     17  C   UNL     1       2.560  12.733  18.152  0.00  0.00    +0.000 C 
ATOM     18  C   UNL     1       2.173  11.268  18.269  0.00  0.00    +0.000 C 
ENDBRANCH   1  18
BRANCH  12  19
ATOM     19  C   UNL     1       4.909   4.396  17.376  0.00  0.00    +0.000 C 
BRANCH  19  20
ATOM     20  C   UNL     1       6.005   5.395  17.670  0.00  0.00    +0.000 A 
ATOM     21  C   UNL     1       6.958   5.135  18.672  0.00  0.00    +0.000 A 
ATOM     22  C   UNL     1       7.928   6.084  18.994  0.00  0.00    +0.000 A 
ATOM     23  C   UNL     1       7.963   7.286  18.302  0.00  0.00    +0.000 A 
ATOM     24  F   UNL     1       8.877   8.210  18.628  0.00  0.00    +0.000 F 
ATOM     25  C   UNL     1       7.059   7.547  17.279  0.00  0.00    +0.000 A 
ATOM     26  C   UNL     1       6.084   6.601  16.956  0.00  0.00    +0.000 A 
ENDBRANCH  19  20
ENDBRANCH  12  19
TORSDOF 3
ENDMDL
MODEL 2
REMARK VINA RESULT:      -7.6      0.285      1.008
REMARK  Name = 
REMARK  4 active torsions:
REMARK  status: ('A' for Active; 'I' for Inactive)
REMARK    1  A    between atoms: C_1  and  C_2
REMARK    2  A    between atoms: C_2  and  N_3
REMARK    3  A    between atoms: N_14  and  C_15
REMARK    4  A    between atoms: C_15  and  C_16
REMARK                            x       y       z     vdW  Elec       q    Type
REMARK                         _______ _______ _______ _____ _____    ______ ____
ROOT
ATOM      1  N   UNL     1       0.900  11.417  18.726  0.00  0.00    +0.000 N 
ATOM      2  C   UNL     1       0.692  10.330  19.597  0.00  0.00    +0.000 A 
ATOM      3  C   UNL     1      -0.328  10.429  20.516  0.00  0.00    +0.000 A 
ATOM      4  C   UNL     1      -0.503   9.349  21.340  0.00  0.00    +0.000 A 
ATOM      5  N   UNL     1       0.230   8.227  21.254  0.00  0.00    +0.000 NA
ATOM      6  C   UNL     1       1.185   8.186  20.311  0.00  0.00    +0.000 A 
ATOM      7  N   UNL     1       1.921   7.054  20.183  0.00  0.00    +0.000 N 
ATOM      8  C   UNL     1       1.620   5.832  20.962  0.00  0.00    +0.000 C 
ATOM      9  C   UNL     1       2.451   4.806  20.295  0.00  0.00    +0.000 A 
ATOM     10  C   UNL     1       2.885   3.490  20.354  0.00  0.00    +0.000 A 
ATOM     11  N   UNL     1       3.727   3.208  19.344  0.00  0.00    +0.000 NA
ATOM     12  N   UNL     1       3.863   4.391  18.670  0.00  0.00    +0.000 N 
ATOM     13  C   UNL     1       3.075   5.345  19.204  0.00  0.00    +0.000 A 
ATOM     14  C   UNL     1       2.762   6.776  18.998  0.00  0.00    +0.000 C 
ATOM     15  N   UNL     1       1.438   9.218  19.487  0.00  0.00    +0.000 NA
ATOM     16  H   UNL     1       0.166  11.381  18.022  0.00  0.00    +0.000 HD
ENDROOT
BRANCH   1  18
ATOM     17  C   UNL     1       2.746  12.895  18.164  0.00  0.00    +0.000 C 
ATOM     18  C   UNL     1       2.237  11.464  18.141  0.00  0.00    +0.000 C 
ENDBRANCH   1  18
BRANCH  12  19
ATOM     19  C   UNL     1       4.794   4.491  17.553  0.00  0.00    +0.000 C 
BRANCH  19  20
ATOM     20  C   UNL     1       5.877   5.510  17.826  0.00  0.00    +0.000 A 
ATOM     21  C   UNL     1       5.960   6.685  17.057  0.00  0.00    +0.000 A 
ATOM     22  C   UNL     1       6.998   7.595  17.259  0.00  0.00    +0.000 A 
ATOM     23  C   UNL     1       7.943   7.345  18.243  0.00  0.00    +0.000 A 
ATOM     24  F   UNL     1       8.956   8.203  18.420  0.00  0.00    +0.000 F 
ATOM     25  C   UNL     1       7.857   6.212  19.044  0.00  0.00    +0.000 A 
ATOM     26  C   UNL     1       6.820   5.297  18.842  0.00  0.00    +0.000 A 
ENDBRANCH  19  20
ENDBRANCH  12  19
TORSDOF 3
ENDMDL
MODEL 3
REMARK VINA RESULT:      -7.5      1.179      1.411
REMARK  Name = 
REMARK  4 active torsions:
REMARK  status: ('A' for Active; 'I' for Inactive)
REMARK    1  A    between atoms: C_1  and  C_2
REMARK    2  A    between atoms: C_2  and  N_3
REMARK    3  A    between atoms: N_14  and  C_15
REMARK    4  A    between atoms: C_15  and  C_16
REMARK                            x       y       z     vdW  Elec       q    Type
REMARK                         _______ _______ _______ _____ _____    ______ ____
ROOT
ATOM      1  N   UNL     1       0.998  12.662  18.945  0.00  0.00    +0.000 N 
ATOM      2  C   UNL     1       0.720  11.624  19.855  0.00  0.00    +0.000 A 
ATOM      3  C   UNL     1      -0.180  11.877  20.864  0.00  0.00    +0.000 A 
ATOM      4  C   UNL     1      -0.428  10.840  21.725  0.00  0.00    +0.000 A 
ATOM      5  N   UNL     1       0.123   9.622  21.593  0.00  0.00    +0.000 NA
ATOM      6  C   UNL     1       0.966   9.435  20.564  0.00  0.00    +0.000 A 
ATOM      7  N   UNL     1       1.513   8.206  20.390  0.00  0.00    +0.000 N 
ATOM      8  C   UNL     1       1.116   7.047  21.220  0.00  0.00    +0.000 C 
ATOM      9  C   UNL     1       1.721   5.906  20.499  0.00  0.00    +0.000 A 
ATOM     10  C   UNL     1       1.963   4.542  20.544  0.00  0.00    +0.000 A 
ATOM     11  N   UNL     1       2.652   4.132  19.464  0.00  0.00    +0.000 NA
ATOM     12  N   UNL     1       2.892   5.278  18.755  0.00  0.00    +0.000 N 
ATOM     13  C   UNL     1       2.306   6.340  19.342  0.00  0.00    +0.000 A 
ATOM     14  C   UNL     1       2.185   7.800  19.136  0.00  0.00    +0.000 C 
ATOM     15  N   UNL     1       1.283  10.413  19.697  0.00  0.00    +0.000 NA
ATOM     16  H   UNL     1       0.201  12.729  18.315  0.00  0.00    +0.000 HD
ENDROOT
BRANCH   1  18
ATOM     17  C   UNL     1       2.988  13.843  18.202  0.00  0.00    +0.000 C 
ATOM     18  C   UNL     1       2.263  12.508  18.233  0.00  0.00    +0.000 C 
ENDBRANCH   1  18
BRANCH  12  19
ATOM     19  C   UNL     1       3.713   5.232  17.552  0.00  0.00    +0.000 C 
BRANCH  19  20
ATOM     20  C   UNL     1       5.107   5.753  17.816  0.00  0.00    +0.000 A 
ATOM     21  C   UNL     1       5.879   5.225  18.868  0.00  0.00    +0.000 A 
ATOM     22  C   UNL     1       7.138   5.750  19.160  0.00  0.00    +0.000 A 
ATOM     23  C   UNL     1       7.639   6.789  18.389  0.00  0.00    +0.000 A 
ATOM     24  F   UNL     1       8.836   7.312  18.684  0.00  0.00    +0.000 F 
ATOM     25  C   UNL     1       6.914   7.298  17.318  0.00  0.00    +0.000 A 
ATOM     26  C   UNL     1       5.651   6.777  17.025  0.00  0.00    +0.000 A 
ENDBRANCH  19  20
ENDBRANCH  12  19
TORSDOF 3
ENDMDL
MODEL 4
REMARK VINA RESULT:      -6.8      3.354      7.636
REMARK  Name = 
REMARK  4 active torsions:
REMARK  status: ('A' for Active; 'I' for Inactive)
REMARK    1  A    between atoms: C_1  and  C_2
REMARK    2  A    between atoms: C_2  and  N_3
REMARK    3  A    between atoms: N_14  and  C_15
REMARK    4  A    between atoms: C_15  and  C_16
REMARK                            x       y       z     vdW  Elec       q    Type
REMARK                         _______ _______ _______ _____ _____    ______ ____
ROOT
ATOM      1  N   UNL     1       5.467   3.864  16.829  0.00  0.00    +0.000 N 
ATOM      2  C   UNL     1       4.688   3.837  18.002  0.00  0.00    +0.000 A 
ATOM      3  C   UNL     1       4.840   2.764  18.850  0.00  0.00    +0.000 A 
ATOM      4  C   UNL     1       4.070   2.778  19.983  0.00  0.00    +0.000 A 
ATOM      5  N   UNL     1       3.240   3.784  20.301  0.00  0.00    +0.000 NA
ATOM      6  C   UNL     1       3.167   4.816  19.445  0.00  0.00    +0.000 A 
ATOM      7  N   UNL     1       2.358   5.860  19.755  0.00  0.00    +0.000 N 
ATOM      8  C   UNL     1       1.657   5.947  21.056  0.00  0.00    +0.000 C 
ATOM      9  C   UNL     1       1.162   7.341  21.066  0.00  0.00    +0.000 A 
ATOM     10  C   UNL     1       0.380   8.257  21.755  0.00  0.00    +0.000 A 
ATOM     11  N   UNL     1       0.348   9.444  21.123  0.00  0.00    +0.000 NA
ATOM     12  N   UNL     1       1.083   9.247  19.985  0.00  0.00    +0.000 N 
ATOM     13  C   UNL     1       1.609   8.006  19.959  0.00  0.00    +0.000 A 
ATOM     14  C   UNL     1       2.440   7.168  19.067  0.00  0.00    +0.000 C 
ATOM     15  N   UNL     1       3.867   4.860  18.297  0.00  0.00    +0.000 NA
ATOM     16  H   UNL     1       6.411   4.123  17.104  0.00  0.00    +0.000 HD
ENDROOT
BRANCH   1  18
ATOM     17  C   UNL     1       5.667   4.449  14.478  0.00  0.00    +0.000 C 
ATOM     18  C   UNL     1       4.931   4.726  15.779  0.00  0.00    +0.000 C 
ENDBRANCH   1  18
BRANCH  12  19
ATOM     19  C   UNL     1       1.186  10.308  18.991  0.00  0.00    +0.000 C 
BRANCH  19  20
ATOM     20  C   UNL     1      -0.170  10.675  18.434  0.00  0.00    +0.000 A 
ATOM     21  C   UNL     1      -0.834   9.809  17.544  0.00  0.00    +0.000 A 
ATOM     22  C   UNL     1      -2.053  10.175  16.973  0.00  0.00    +0.000 A 
ATOM     23  C   UNL     1      -2.623  11.395  17.304  0.00  0.00    +0.000 A 
ATOM     24  F   UNL     1      -3.780  11.760  16.736  0.00  0.00    +0.000 F 
ATOM     25  C   UNL     1      -2.008  12.247  18.213  0.00  0.00    +0.000 A 
ATOM     26  C   UNL     1      -0.785  11.887  18.785  0.00  0.00    +0.000 A 
ENDBRANCH  19  20
ENDBRANCH  12  19
TORSDOF 3
ENDMDL
MODEL 5
REMARK VINA RESULT:      -6.8      3.187      5.231
REMARK  Name = 
REMARK  4 active torsions:
REMARK  status: ('A' for Active; 'I' for Inactive)
REMARK    1  A    between atoms: C_1  and  C_2
REMARK    2  A    between atoms: C_2  and  N_3
REMARK    3  A    between atoms: N_14  and  C_15
REMARK    4  A    between atoms: C_15  and  C_16
REMARK                            x       y       z     vdW  Elec       q    Type
REMARK                         _______ _______ _______ _____ _____    ______ ____
ROOT
ATOM      1  N   UNL     1      -1.064  13.064  22.665  0.00  0.00    +0.000 N 
ATOM      2  C   UNL     1      -0.415  12.926  21.423  0.00  0.00    +0.000 A 
ATOM      3  C   UNL     1      -0.121  14.072  20.720  0.00  0.00    +0.000 A 
ATOM      4  C   UNL     1       0.516  13.896  19.520  0.00  0.00    +0.000 A 
ATOM      5  N   UNL     1       0.887  12.694  19.050  0.00  0.00    +0.000 NA
ATOM      6  C   UNL     1       0.600  11.621  19.804  0.00  0.00    +0.000 A 
ATOM      7  N   UNL     1       0.989  10.398  19.366  0.00  0.00    +0.000 N 
ATOM      8  C   UNL     1       1.822  10.229  18.154  0.00  0.00    +0.000 C 
ATOM      9  C   UNL     1       2.236   8.811  18.239  0.00  0.00    +0.000 A 
ATOM     10  C   UNL     1       2.891   7.785  17.575  0.00  0.00    +0.000 A 
ATOM     11  N   UNL     1       2.869   6.647  18.293  0.00  0.00    +0.000 NA
ATOM     12  N   UNL     1       2.136   6.958  19.406  0.00  0.00    +0.000 N 
ATOM     13  C   UNL     1       1.786   8.260  19.405  0.00  0.00    +0.000 A 
ATOM     14  C   UNL     1       1.017   9.206  20.243  0.00  0.00    +0.000 C 
ATOM     15  N   UNL     1      -0.052  11.711  20.977  0.00  0.00    +0.000 NA
ATOM     16  H   UNL     1      -0.366  13.381  23.333  0.00  0.00    +0.000 HD
ENDROOT
BRANCH   1  18
ATOM     17  C   UNL     1      -3.196  12.214  23.466  0.00  0.00    +0.000 C 
ATOM     18  C   UNL     1      -1.762  11.861  23.109  0.00  0.00    +0.000 C 
ENDBRANCH   1  18
BRANCH  12  19
ATOM     19  C   UNL     1       1.816   5.923  20.380  0.00  0.00    +0.000 C 
BRANCH  19  20
ATOM     20  C   UNL     1       2.265   4.560  19.904  0.00  0.00    +0.000 A 
ATOM     21  C   UNL     1       3.595   4.142  20.091  0.00  0.00    +0.000 A 
ATOM     22  C   UNL     1       4.032   2.914  19.592  0.00  0.00    +0.000 A 
ATOM     23  C   UNL     1       3.136   2.092  18.924  0.00  0.00    +0.000 A 
ATOM     24  F   UNL     1       3.559   0.925  18.421  0.00  0.00    +0.000 F 
ATOM     25  C   UNL     1       1.806   2.464  18.766  0.00  0.00    +0.000 A 
ATOM     26  C   UNL     1       1.366   3.694  19.261  0.00  0.00    +0.000 A 
ENDBRANCH  19  20
ENDBRANCH  12  19
TORSDOF 3
ENDMDL
MODEL 6
REMARK VINA RESULT:      -6.7      2.930      6.657
REMARK  Name = 
REMARK  4 active torsions:
REMARK  status: ('A' for Active; 'I' for Inactive)
REMARK    1  A    between atoms: C_1  and  C_2
REMARK    2  A    between atoms: C_2  and  N_3
REMARK    3  A    between atoms: N_14  and  C_15
REMARK    4  A    between atoms: C_15  and  C_16
REMARK                            x       y       z     vdW  Elec       q    Type
REMARK                         _______ _______ _______ _____ _____    ______ ____
ROOT
ATOM      1  N   UNL     1       7.928   6.696  16.422  0.00  0.00    +0.000 N 
ATOM      2  C   UNL     1       6.924   5.741  16.175  0.00  0.00    +0.000 A 
ATOM      3  C   UNL     1       7.152   4.809  15.188  0.00  0.00    +0.000 A 
ATOM      4  C   UNL     1       6.155   3.893  14.982  0.00  0.00    +0.000 A 
ATOM      5  N   UNL     1       5.029   3.850  15.712  0.00  0.00    +0.000 NA
ATOM      6  C   UNL     1       4.887   4.768  16.682  0.00  0.00    +0.000 A 
ATOM      7  N   UNL     1       3.772   4.729  17.454  0.00  0.00    +0.000 N 
ATOM      8  C   UNL     1       2.778   3.639  17.338  0.00  0.00    +0.000 C 
ATOM      9  C   UNL     1       1.932   3.841  18.535  0.00  0.00    +0.000 A 
ATOM     10  C   UNL     1       0.785   3.420  19.191  0.00  0.00    +0.000 A 
ATOM     11  N   UNL     1       0.584   4.123  20.321  0.00  0.00    +0.000 NA
ATOM     12  N   UNL     1       1.600   5.039  20.341  0.00  0.00    +0.000 N 
ATOM     13  C   UNL     1       2.436   4.855  19.300  0.00  0.00    +0.000 A 
ATOM     14  C   UNL     1       3.658   5.466  18.732  0.00  0.00    +0.000 C 
ATOM     15  N   UNL     1       5.808   5.719  16.923  0.00  0.00    +0.000 NA
ATOM     16  H   UNL     1       8.668   6.226  16.938  0.00  0.00    +0.000 HD
ENDROOT
BRANCH   1  18
ATOM     17  C   UNL     1       8.316   8.168  18.318  0.00  0.00    +0.000 C 
ATOM     18  C   UNL     1       7.452   7.900  17.098  0.00  0.00    +0.000 C 
ENDBRANCH   1  18
BRANCH  12  19
ATOM     19  C   UNL     1       1.649   6.050  21.388  0.00  0.00    +0.000 C 
BRANCH  19  20
ATOM     20  C   UNL     1       1.224   7.405  20.867  0.00  0.00    +0.000 A 
ATOM     21  C   UNL     1       0.218   8.138  21.523  0.00  0.00    +0.000 A 
ATOM     22  C   UNL     1      -0.226   9.356  21.007  0.00  0.00    +0.000 A 
ATOM     23  C   UNL     1       0.348   9.854  19.847  0.00  0.00    +0.000 A 
ATOM     24  F   UNL     1      -0.095  11.010  19.334  0.00  0.00    +0.000 F 
ATOM     25  C   UNL     1       1.373   9.169  19.205  0.00  0.00    +0.000 A 
ATOM     26  C   UNL     1       1.818   7.948  19.717  0.00  0.00    +0.000 A 
ENDBRANCH  19  20
ENDBRANCH  12  19
TORSDOF 3
ENDMDL
MODEL 7
REMARK VINA RESULT:      -6.6      3.476      7.699
REMARK  Name = 
REMARK  4 active torsions:
REMARK  status: ('A' for Active; 'I' for Inactive)
REMARK    1  A    between atoms: C_1  and  C_2
REMARK    2  A    between atoms: C_2  and  N_3
REMARK    3  A    between atoms: N_14  and  C_15
REMARK    4  A    between atoms: C_15  and  C_16
REMARK                            x       y       z     vdW  Elec       q    Type
REMARK                         _______ _______ _______ _____ _____    ______ ____
ROOT
ATOM      1  N   UNL     1       5.762   4.919  16.920  0.00  0.00    +0.000 N 
ATOM      2  C   UNL     1       4.930   4.740  18.043  0.00  0.00    +0.000 A 
ATOM      3  C   UNL     1       5.160   3.646  18.845  0.00  0.00    +0.000 A 
ATOM      4  C   UNL     1       4.335   3.511  19.930  0.00  0.00    +0.000 A 
ATOM      5  N   UNL     1       3.378   4.398  20.246  0.00  0.00    +0.000 NA
ATOM      6  C   UNL     1       3.232   5.461  19.439  0.00  0.00    +0.000 A 
ATOM      7  N   UNL     1       2.292   6.388  19.751  0.00  0.00    +0.000 N 
ATOM      8  C   UNL     1       1.518   6.324  21.011  0.00  0.00    +0.000 C 
ATOM      9  C   UNL     1       0.865   7.651  21.060  0.00  0.00    +0.000 A 
ATOM     10  C   UNL     1      -0.053   8.433  21.745  0.00  0.00    +0.000 A 
ATOM     11  N   UNL     1      -0.189   9.642  21.170  0.00  0.00    +0.000 NA
ATOM     12  N   UNL     1       0.624   9.592  20.069  0.00  0.00    +0.000 N 
ATOM     13  C   UNL     1       1.290   8.422  20.014  0.00  0.00    +0.000 A 
ATOM     14  C   UNL     1       2.259   7.733  19.134  0.00  0.00    +0.000 C 
ATOM     15  N   UNL     1       3.982   5.646  18.338  0.00  0.00    +0.000 NA
ATOM     16  H   UNL     1       6.655   5.268  17.262  0.00  0.00    +0.000 HD
ENDROOT
BRANCH   1  18
ATOM     17  C   UNL     1       5.675   5.305  14.522  0.00  0.00    +0.000 C 
ATOM     18  C   UNL     1       5.187   5.771  15.883  0.00  0.00    +0.000 C 
ENDBRANCH   1  18
BRANCH  12  19
ATOM     19  C   UNL     1       0.657  10.711  19.136  0.00  0.00    +0.000 C 
BRANCH  19  20
ATOM     20  C   UNL     1      -0.651  10.844  18.390  0.00  0.00    +0.000 A 
ATOM     21  C   UNL     1      -1.528  11.909  18.672  0.00  0.00    +0.000 A 
ATOM     22  C   UNL     1      -2.766  11.997  18.036  0.00  0.00    +0.000 A 
ATOM     23  C   UNL     1      -3.124  11.037  17.101  0.00  0.00    +0.000 A 
ATOM     24  F   UNL     1      -4.323  11.105  16.509  0.00  0.00    +0.000 F 
ATOM     25  C   UNL     1      -2.257  10.001  16.775  0.00  0.00    +0.000 A 
ATOM     26  C   UNL     1      -1.017   9.906  17.412  0.00  0.00    +0.000 A 
ENDBRANCH  19  20
ENDBRANCH  12  19
TORSDOF 3
ENDMDL
MODEL 8
REMARK VINA RESULT:      -6.5      3.653      7.792
REMARK  Name = 
REMARK  4 active torsions:
REMARK  status: ('A' for Active; 'I' for Inactive)
REMARK    1  A    between atoms: C_1  and  C_2
REMARK    2  A    between atoms: C_2  and  N_3
REMARK    3  A    between atoms: N_14  and  C_15
REMARK    4  A    between atoms: C_15  and  C_16
REMARK                            x       y       z     vdW  Elec       q    Type
REMARK                         _______ _______ _______ _____ _____    ______ ____
ROOT
ATOM      1  N   UNL     1       6.051   5.554  16.643  0.00  0.00    +0.000 N 
ATOM      2  C   UNL     1       5.278   5.306  17.794  0.00  0.00    +0.000 A 
ATOM      3  C   UNL     1       5.660   4.268  18.613  0.00  0.00    +0.000 A 
ATOM      4  C   UNL     1       4.887   4.062  19.725  0.00  0.00    +0.000 A 
ATOM      5  N   UNL     1       3.839   4.837  20.050  0.00  0.00    +0.000 NA
ATOM      6  C   UNL     1       3.544   5.853  19.224  0.00  0.00    +0.000 A 
ATOM      7  N   UNL     1       2.508   6.669  19.544  0.00  0.00    +0.000 N 
ATOM      8  C   UNL     1       1.782   6.545  20.828  0.00  0.00    +0.000 C 
ATOM      9  C   UNL     1       0.976   7.785  20.867  0.00  0.00    +0.000 A 
ATOM     10  C   UNL     1      -0.010   8.469  21.562  0.00  0.00    +0.000 A 
ATOM     11  N   UNL     1      -0.307   9.638  20.965  0.00  0.00    +0.000 NA
ATOM     12  N   UNL     1       0.475   9.657  19.842  0.00  0.00    +0.000 N 
ATOM     13  C   UNL     1       1.276   8.574  19.792  0.00  0.00    +0.000 A 
ATOM     14  C   UNL     1       2.296   7.983  18.898  0.00  0.00    +0.000 C 
ATOM     15  N   UNL     1       4.236   6.099  18.097  0.00  0.00    +0.000 NA
ATOM     16  H   UNL     1       6.904   6.016  16.950  0.00  0.00    +0.000 HD
ENDROOT
BRANCH   1  18
ATOM     17  C   UNL     1       5.258   5.457  14.347  0.00  0.00    +0.000 C 
ATOM     18  C   UNL     1       5.349   6.304  15.605  0.00  0.00    +0.000 C 
ENDBRANCH   1  18
BRANCH  12  19
ATOM     19  C   UNL     1       0.347  10.747  18.884  0.00  0.00    +0.000 C 
BRANCH  19  20
ATOM     20  C   UNL     1      -1.028  10.772  18.256  0.00  0.00    +0.000 A 
ATOM     21  C   UNL     1      -1.362   9.864  17.234  0.00  0.00    +0.000 A 
ATOM     22  C   UNL     1      -2.605   9.929  16.604  0.00  0.00    +0.000 A 
ATOM     23  C   UNL     1      -3.526  10.884  17.008  0.00  0.00    +0.000 A 
ATOM     24  F   UNL     1      -4.710  10.965  16.387  0.00  0.00    +0.000 F 
ATOM     25  C   UNL     1      -3.235  11.762  18.045  0.00  0.00    +0.000 A 
ATOM     26  C   UNL     1      -1.990  11.704  18.676  0.00  0.00    +0.000 A 
ENDBRANCH  19  20
ENDBRANCH  12  19
TORSDOF 3
ENDMDL
MODEL 9
REMARK VINA RESULT:      -6.5      4.091      6.218
REMARK  Name = 
REMARK  4 active torsions:
REMARK  status: ('A' for Active; 'I' for Inactive)
REMARK    1  A    between atoms: C_1  and  C_2
REMARK    2  A    between atoms: C_2  and  N_3
REMARK    3  A    between atoms: N_14  and  C_15
REMARK    4  A    between atoms: C_15  and  C_16
REMARK                            x       y       z     vdW  Elec       q    Type
REMARK                         _______ _______ _______ _____ _____    ______ ____
ROOT
ATOM      1  N   UNL     1      -4.214  10.429  15.051  0.00  0.00    +0.000 N 
ATOM      2  C   UNL     1      -3.949  10.885  16.357  0.00  0.00    +0.000 A 
ATOM      3  C   UNL     1      -4.931  11.607  16.997  0.00  0.00    +0.000 A 
ATOM      4  C   UNL     1      -4.638  12.028  18.267  0.00  0.00    +0.000 A 
ATOM      5  N   UNL     1      -3.490  11.732  18.897  0.00  0.00    +0.000 NA
ATOM      6  C   UNL     1      -2.591  10.994  18.227  0.00  0.00    +0.000 A 
ATOM      7  N   UNL     1      -1.435  10.657  18.850  0.00  0.00    +0.000 N 
ATOM      8  C   UNL     1      -1.194  10.971  20.276  0.00  0.00    +0.000 C 
ATOM      9  C   UNL     1       0.015  10.175  20.586  0.00  0.00    +0.000 A 
ATOM     10  C   UNL     1       0.974   9.908  21.551  0.00  0.00    +0.000 A 
ATOM     11  N   UNL     1       1.878   9.015  21.107  0.00  0.00    +0.000 NA
ATOM     12  N   UNL     1       1.502   8.761  19.815  0.00  0.00    +0.000 N 
ATOM     13  C   UNL     1       0.367   9.417  19.504  0.00  0.00    +0.000 A 
ATOM     14  C   UNL     1      -0.530   9.601  18.343  0.00  0.00    +0.000 C 
ATOM     15  N   UNL     1      -2.792  10.573  16.965  0.00  0.00    +0.000 NA
ATOM     16  H   UNL     1      -4.844   9.635  15.134  0.00  0.00    +0.000 HD
ENDROOT
BRANCH   1  18
ATOM     17  C   UNL     1      -3.420   9.715  12.867  0.00  0.00    +0.000 C 
ATOM     18  C   UNL     1      -3.016  10.117  14.276  0.00  0.00    +0.000 C 
ENDBRANCH   1  18
BRANCH  12  19
ATOM     19  C   UNL     1       2.322   7.898  18.975  0.00  0.00    +0.000 C 
BRANCH  19  20
ATOM     20  C   UNL     1       1.980   6.440  19.184  0.00  0.00    +0.000 A 
ATOM     21  C   UNL     1       1.720   5.946  20.476  0.00  0.00    +0.000 A 
ATOM     22  C   UNL     1       1.473   4.588  20.682  0.00  0.00    +0.000 A 
ATOM     23  C   UNL     1       1.464   3.724  19.597  0.00  0.00    +0.000 A 
ATOM     24  F   UNL     1       1.253   2.416  19.795  0.00  0.00    +0.000 F 
ATOM     25  C   UNL     1       1.674   4.196  18.306  0.00  0.00    +0.000 A 
ATOM     26  C   UNL     1       1.926   5.554  18.096  0.00  0.00    +0.000 A 
ENDBRANCH  19  20
ENDBRANCH  12  19
TORSDOF 3
ENDMDL
