MODEL 1
REMARK VINA RESULT:      -8.7      0.000      0.000
REMARK  Name = 
REMARK  1 active torsions:
REMARK  status: ('A' for Active; 'I' for Inactive)
REMARK    1  A    between atoms: C_1  and  N_2
REMARK                            x       y       z     vdW  Elec       q    Type
REMARK                         _______ _______ _______ _____ _____    ______ ____
ROOT
ATOM      1  C   UNL     1       1.324   4.399  19.753  0.00  0.00    +0.000 C 
ATOM      2  N   UNL     1       2.549   4.893  19.145  0.00  0.00    +0.000 N 
ATOM      3  C   UNL     1       2.773   6.247  19.131  0.00  0.00    +0.000 C 
ATOM      4  O   UNL     1       2.177   7.053  19.843  0.00  0.00    +0.000 OA
ATOM      5  N   UNL     1       3.649   6.711  18.197  0.00  0.00    +0.000 N 
ATOM      6  C   UNL     1       4.278   5.919  17.243  0.00  0.00    +0.000 A 
ATOM      7  C   UNL     1       4.923   6.528  16.162  0.00  0.00    +0.000 A 
ATOM      8  C   UNL     1       5.588   5.739  15.227  0.00  0.00    +0.000 A 
ATOM      9  C   UNL     1       5.626   4.362  15.401  0.00  0.00    +0.000 A 
ATOM     10  F   UNL     1       6.303   3.605  14.527  0.00  0.00    +0.000 F 
ATOM     11  C   UNL     1       4.977   3.752  16.472  0.00  0.00    +0.000 A 
ATOM     12  C   UNL     1       4.257   4.531  17.393  0.00  0.00    +0.000 A 
ATOM     13  C   UNL     1       3.519   3.957  18.587  0.00  0.00    +0.000 C 
ATOM     14  N   UNL     1       4.461   3.552  19.600  0.00  0.00    +0.000 N 
ATOM     15  C   UNL     1       4.470   2.197  19.826  0.00  0.00    +0.000 C 
ATOM     16  O   UNL     1       5.195   1.627  20.622  0.00  0.00    +0.000 OA
ATOM     17  N   UNL     1       3.555   1.614  19.025  0.00  0.00    +0.000 N 
ATOM     18  C   UNL     1       2.913   2.544  18.260  0.00  0.00    +0.000 C 
ATOM     19  O   UNL     1       2.006   2.288  17.481  0.00  0.00    +0.000 OA
ATOM     20  H   UNL     1       3.695   7.719  18.137  0.00  0.00    +0.000 HD
ATOM     21  H   UNL     1       5.070   4.182  20.098  0.00  0.00    +0.000 HD
ATOM     22  H   UNL     1       3.354   0.628  19.019  0.00  0.00    +0.000 HD
ENDROOT
TORSDOF 0
ENDMDL
MODEL 2
REMARK VINA RESULT:      -8.1      2.987      4.304
REMARK  Name = 
REMARK  1 active torsions:
REMARK  status: ('A' for Active; 'I' for Inactive)
REMARK    1  A    between atoms: C_1  and  N_2
REMARK                            x       y       z     vdW  Elec       q    Type
REMARK                         _______ _______ _______ _____ _____    ______ ____
ROOT
ATOM      1  C   UNL     1       7.058   4.483  16.968  0.00  0.00    +0.000 C 
ATOM      2  N   UNL     1       5.741   5.097  16.968  0.00  0.00    +0.000 N 
ATOM      3  C   UNL     1       5.440   6.001  15.980  0.00  0.00    +0.000 C 
ATOM      4  O   UNL     1       6.074   6.116  14.933  0.00  0.00    +0.000 OA
ATOM      5  N   UNL     1       4.428   6.875  16.240  0.00  0.00    +0.000 N 
ATOM      6  C   UNL     1       3.730   6.940  17.441  0.00  0.00    +0.000 A 
ATOM      7  C   UNL     1       2.921   8.049  17.705  0.00  0.00    +0.000 A 
ATOM      8  C   UNL     1       2.189   8.098  18.889  0.00  0.00    +0.000 A 
ATOM      9  C   UNL     1       2.252   7.029  19.773  0.00  0.00    +0.000 A 
ATOM     10  F   UNL     1       1.514   7.054  20.891  0.00  0.00    +0.000 F 
ATOM     11  C   UNL     1       3.064   5.927  19.516  0.00  0.00    +0.000 A 
ATOM     12  C   UNL     1       3.849   5.888  18.352  0.00  0.00    +0.000 A 
ATOM     13  C   UNL     1       4.763   4.735  17.989  0.00  0.00    +0.000 C 
ATOM     14  N   UNL     1       3.980   3.606  17.551  0.00  0.00    +0.000 N 
ATOM     15  C   UNL     1       4.077   2.519  18.384  0.00  0.00    +0.000 C 
ATOM     16  O   UNL     1       3.492   1.462  18.224  0.00  0.00    +0.000 OA
ATOM     17  N   UNL     1       4.915   2.817  19.398  0.00  0.00    +0.000 N 
ATOM     18  C   UNL     1       5.403   4.086  19.270  0.00  0.00    +0.000 C 
ATOM     19  O   UNL     1       6.218   4.591  20.030  0.00  0.00    +0.000 OA
ATOM     20  H   UNL     1       4.317   7.600  15.543  0.00  0.00    +0.000 HD
ATOM     21  H   UNL     1       3.404   3.597  16.724  0.00  0.00    +0.000 HD
ATOM     22  H   UNL     1       5.170   2.176  20.130  0.00  0.00    +0.000 HD
ENDROOT
TORSDOF 0
ENDMDL
MODEL 3
REMARK VINA RESULT:      -8.1      2.689      3.939
REMARK  Name = 
REMARK  1 active torsions:
REMARK  status: ('A' for Active; 'I' for Inactive)
REMARK    1  A    between atoms: C_1  and  N_2
REMARK                            x       y       z     vdW  Elec       q    Type
REMARK                         _______ _______ _______ _____ _____    ______ ____
ROOT
ATOM      1  C   UNL     1       3.640   1.852  19.338  0.00  0.00    +0.000 C 
ATOM      2  N   UNL     1       3.547   3.234  19.778  0.00  0.00    +0.000 N 
ATOM      3  C   UNL     1       2.964   3.497  20.993  0.00  0.00    +0.000 C 
ATOM      4  O   UNL     1       2.781   2.653  21.867  0.00  0.00    +0.000 OA
ATOM      5  N   UNL     1       2.484   4.758  21.179  0.00  0.00    +0.000 N 
ATOM      6  C   UNL     1       2.503   5.761  20.215  0.00  0.00    +0.000 A 
ATOM      7  C   UNL     1       1.733   6.911  20.407  0.00  0.00    +0.000 A 
ATOM      8  C   UNL     1       1.781   7.934  19.463  0.00  0.00    +0.000 A 
ATOM      9  C   UNL     1       2.618   7.806  18.362  0.00  0.00    +0.000 A 
ATOM     10  F   UNL     1       2.699   8.808  17.476  0.00  0.00    +0.000 F 
ATOM     11  C   UNL     1       3.378   6.657  18.164  0.00  0.00    +0.000 A 
ATOM     12  C   UNL     1       3.299   5.595  19.080  0.00  0.00    +0.000 A 
ATOM     13  C   UNL     1       4.087   4.306  18.947  0.00  0.00    +0.000 C 
ATOM     14  N   UNL     1       5.471   4.540  19.272  0.00  0.00    +0.000 N 
ATOM     15  C   UNL     1       6.320   4.361  18.207  0.00  0.00    +0.000 C 
ATOM     16  O   UNL     1       7.527   4.519  18.242  0.00  0.00    +0.000 OA
ATOM     17  N   UNL     1       5.598   3.988  17.130  0.00  0.00    +0.000 N 
ATOM     18  C   UNL     1       4.271   3.900  17.440  0.00  0.00    +0.000 C 
ATOM     19  O   UNL     1       3.404   3.539  16.657  0.00  0.00    +0.000 OA
ATOM     20  H   UNL     1       1.955   4.879  22.033  0.00  0.00    +0.000 HD
ATOM     21  H   UNL     1       5.806   4.818  20.182  0.00  0.00    +0.000 HD
ATOM     22  H   UNL     1       5.992   3.774  16.230  0.00  0.00    +0.000 HD
ENDROOT
TORSDOF 0
ENDMDL
MODEL 4
REMARK VINA RESULT:      -7.7      2.811      4.398
REMARK  Name = 
REMARK  1 active torsions:
REMARK  status: ('A' for Active; 'I' for Inactive)
REMARK    1  A    between atoms: C_1  and  N_2
REMARK                            x       y       z     vdW  Elec       q    Type
REMARK                         _______ _______ _______ _____ _____    ______ ____
ROOT
ATOM      1  C   UNL     1       6.143   7.337  17.503  0.00  0.00    +0.000 C 
ATOM      2  N   UNL     1       5.013   6.430  17.386  0.00  0.00    +0.000 N 
ATOM      3  C   UNL     1       3.751   6.929  17.586  0.00  0.00    +0.000 C 
ATOM      4  O   UNL     1       3.469   8.125  17.566  0.00  0.00    +0.000 OA
ATOM      5  N   UNL     1       2.785   6.027  17.918  0.00  0.00    +0.000 N 
ATOM      6  C   UNL     1       3.006   4.668  18.112  0.00  0.00    +0.000 A 
ATOM      7  C   UNL     1       2.019   3.892  18.726  0.00  0.00    +0.000 A 
ATOM      8  C   UNL     1       2.221   2.523  18.885  0.00  0.00    +0.000 A 
ATOM      9  C   UNL     1       3.389   1.947  18.402  0.00  0.00    +0.000 A 
ATOM     10  F   UNL     1       3.566   0.624  18.514  0.00  0.00    +0.000 F 
ATOM     11  C   UNL     1       4.378   2.719  17.798  0.00  0.00    +0.000 A 
ATOM     12  C   UNL     1       4.210   4.109  17.679  0.00  0.00    +0.000 A 
ATOM     13  C   UNL     1       5.231   5.029  17.039  0.00  0.00    +0.000 C 
ATOM     14  N   UNL     1       5.215   4.861  15.607  0.00  0.00    +0.000 N 
ATOM     15  C   UNL     1       6.386   4.346  15.106  0.00  0.00    +0.000 C 
ATOM     16  O   UNL     1       6.595   4.104  13.931  0.00  0.00    +0.000 OA
ATOM     17  N   UNL     1       7.250   4.153  16.123  0.00  0.00    +0.000 N 
ATOM     18  C   UNL     1       6.698   4.535  17.311  0.00  0.00    +0.000 C 
ATOM     19  O   UNL     1       7.285   4.507  18.385  0.00  0.00    +0.000 OA
ATOM     20  H   UNL     1       1.900   6.444  18.176  0.00  0.00    +0.000 HD
ATOM     21  H   UNL     1       4.432   5.084  15.015  0.00  0.00    +0.000 HD
ATOM     22  H   UNL     1       8.187   3.804  16.012  0.00  0.00    +0.000 HD
ENDROOT
TORSDOF 0
ENDMDL
MODEL 5
REMARK VINA RESULT:      -7.4      2.371      3.281
REMARK  Name = 
REMARK  1 active torsions:
REMARK  status: ('A' for Active; 'I' for Inactive)
REMARK    1  A    between atoms: C_1  and  N_2
REMARK                            x       y       z     vdW  Elec       q    Type
REMARK                         _______ _______ _______ _____ _____    ______ ____
ROOT
ATOM      1  C   UNL     1       5.331   5.523  19.562  0.00  0.00    +0.000 C 
ATOM      2  N   UNL     1       5.895   4.871  18.392  0.00  0.00    +0.000 N 
ATOM      3  C   UNL     1       7.257   4.894  18.222  0.00  0.00    +0.000 C 
ATOM      4  O   UNL     1       8.060   5.159  19.115  0.00  0.00    +0.000 OA
ATOM      5  N   UNL     1       7.717   4.699  16.954  0.00  0.00    +0.000 N 
ATOM      6  C   UNL     1       6.907   4.533  15.837  0.00  0.00    +0.000 A 
ATOM      7  C   UNL     1       7.469   4.631  14.561  0.00  0.00    +0.000 A 
ATOM      8  C   UNL     1       6.667   4.424  13.441  0.00  0.00    +0.000 A 
ATOM      9  C   UNL     1       5.329   4.093  13.612  0.00  0.00    +0.000 A 
ATOM     10  F   UNL     1       4.568   3.851  12.537  0.00  0.00    +0.000 F 
ATOM     11  C   UNL     1       4.765   4.004  14.882  0.00  0.00    +0.000 A 
ATOM     12  C   UNL     1       5.549   4.262  16.019  0.00  0.00    +0.000 A 
ATOM     13  C   UNL     1       5.023   4.192  17.439  0.00  0.00    +0.000 C 
ATOM     14  N   UNL     1       4.837   2.816  17.826  0.00  0.00    +0.000 N 
ATOM     15  C   UNL     1       3.523   2.487  18.056  0.00  0.00    +0.000 C 
ATOM     16  O   UNL     1       3.127   1.381  18.377  0.00  0.00    +0.000 OA
ATOM     17  N   UNL     1       2.758   3.581  17.866  0.00  0.00    +0.000 N 
ATOM     18  C   UNL     1       3.523   4.657  17.518  0.00  0.00    +0.000 C 
ATOM     19  O   UNL     1       3.084   5.783  17.332  0.00  0.00    +0.000 OA
ATOM     20  H   UNL     1       8.713   4.845  16.848  0.00  0.00    +0.000 HD
ATOM     21  H   UNL     1       5.581   2.142  17.917  0.00  0.00    +0.000 HD
ATOM     22  H   UNL     1       1.761   3.605  17.995  0.00  0.00    +0.000 HD
ENDROOT
TORSDOF 0
ENDMDL
MODEL 6
REMARK VINA RESULT:      -7.1      2.887      4.998
REMARK  Name = 
REMARK  1 active torsions:
REMARK  status: ('A' for Active; 'I' for Inactive)
REMARK    1  A    between atoms: C_1  and  N_2
REMARK                            x       y       z     vdW  Elec       q    Type
REMARK                         _______ _______ _______ _____ _____    ______ ____
ROOT
ATOM      1  C   UNL     1       5.221   3.362  16.352  0.00  0.00    +0.000 C 
ATOM      2  N   UNL     1       4.481   3.422  17.602  0.00  0.00    +0.000 N 
ATOM      3  C   UNL     1       3.712   2.343  17.960  0.00  0.00    +0.000 C 
ATOM      4  O   UNL     1       3.823   1.222  17.468  0.00  0.00    +0.000 OA
ATOM      5  N   UNL     1       2.709   2.579  18.851  0.00  0.00    +0.000 N 
ATOM      6  C   UNL     1       2.391   3.829  19.370  0.00  0.00    +0.000 A 
ATOM      7  C   UNL     1       1.177   4.005  20.042  0.00  0.00    +0.000 A 
ATOM      8  C   UNL     1       0.875   5.246  20.598  0.00  0.00    +0.000 A 
ATOM      9  C   UNL     1       1.799   6.278  20.503  0.00  0.00    +0.000 A 
ATOM     10  F   UNL     1       1.528   7.459  21.075  0.00  0.00    +0.000 F 
ATOM     11  C   UNL     1       3.004   6.108  19.827  0.00  0.00    +0.000 A 
ATOM     12  C   UNL     1       3.299   4.878  19.215  0.00  0.00    +0.000 A 
ATOM     13  C   UNL     1       4.583   4.600  18.457  0.00  0.00    +0.000 C 
ATOM     14  N   UNL     1       5.678   4.452  19.383  0.00  0.00    +0.000 N 
ATOM     15  C   UNL     1       6.631   5.434  19.262  0.00  0.00    +0.000 C 
ATOM     16  O   UNL     1       7.633   5.522  19.948  0.00  0.00    +0.000 OA
ATOM     17  N   UNL     1       6.270   6.275  18.271  0.00  0.00    +0.000 N 
ATOM     18  C   UNL     1       5.092   5.882  17.703  0.00  0.00    +0.000 C 
ATOM     19  O   UNL     1       4.564   6.443  16.753  0.00  0.00    +0.000 OA
ATOM     20  H   UNL     1       2.091   1.792  18.997  0.00  0.00    +0.000 HD
ATOM     21  H   UNL     1       5.753   3.715  20.065  0.00  0.00    +0.000 HD
ATOM     22  H   UNL     1       6.815   7.065  17.972  0.00  0.00    +0.000 HD
ENDROOT
TORSDOF 0
ENDMDL
MODEL 7
REMARK VINA RESULT:      -7.0      2.267      3.816
REMARK  Name = 
REMARK  1 active torsions:
REMARK  status: ('A' for Active; 'I' for Inactive)
REMARK    1  A    between atoms: C_1  and  N_2
REMARK                            x       y       z     vdW  Elec       q    Type
REMARK                         _______ _______ _______ _____ _____    ______ ____
ROOT
ATOM      1  C   UNL     1       2.869   2.199  21.867  0.00  0.00    +0.000 C 
ATOM      2  N   UNL     1       3.500   2.637  20.633  0.00  0.00    +0.000 N 
ATOM      3  C   UNL     1       4.809   2.293  20.409  0.00  0.00    +0.000 C 
ATOM      4  O   UNL     1       5.403   1.404  21.016  0.00  0.00    +0.000 OA
ATOM      5  N   UNL     1       5.498   3.060  19.518  0.00  0.00    +0.000 N 
ATOM      6  C   UNL     1       4.982   4.179  18.874  0.00  0.00    +0.000 A 
ATOM      7  C   UNL     1       5.850   5.053  18.213  0.00  0.00    +0.000 A 
ATOM      8  C   UNL     1       5.331   6.151  17.533  0.00  0.00    +0.000 A 
ATOM      9  C   UNL     1       3.956   6.343  17.497  0.00  0.00    +0.000 A 
ATOM     10  F   UNL     1       3.452   7.374  16.806  0.00  0.00    +0.000 F 
ATOM     11  C   UNL     1       3.090   5.479  18.163  0.00  0.00    +0.000 A 
ATOM     12  C   UNL     1       3.602   4.397  18.897  0.00  0.00    +0.000 A 
ATOM     13  C   UNL     1       2.739   3.407  19.654  0.00  0.00    +0.000 C 
ATOM     14  N   UNL     1       2.079   2.521  18.727  0.00  0.00    +0.000 N 
ATOM     15  C   UNL     1       0.713   2.657  18.721  0.00  0.00    +0.000 C 
ATOM     16  O   UNL     1      -0.048   2.027  18.009  0.00  0.00    +0.000 OA
ATOM     17  N   UNL     1       0.362   3.597  19.623  0.00  0.00    +0.000 N 
ATOM     18  C   UNL     1       1.463   4.101  20.254  0.00  0.00    +0.000 C 
ATOM     19  O   UNL     1       1.423   4.934  21.149  0.00  0.00    +0.000 OA
ATOM     20  H   UNL     1       6.487   2.854  19.472  0.00  0.00    +0.000 HD
ATOM     21  H   UNL     1       2.554   1.866  18.126  0.00  0.00    +0.000 HD
ATOM     22  H   UNL     1      -0.586   3.864  19.824  0.00  0.00    +0.000 HD
ENDROOT
TORSDOF 0
ENDMDL
MODEL 8
REMARK VINA RESULT:      -7.0      2.836      4.469
REMARK  Name = 
REMARK  1 active torsions:
REMARK  status: ('A' for Active; 'I' for Inactive)
REMARK    1  A    between atoms: C_1  and  N_2
REMARK                            x       y       z     vdW  Elec       q    Type
REMARK                         _______ _______ _______ _____ _____    ______ ____
ROOT
ATOM      1  C   UNL     1       5.689   7.599  17.363  0.00  0.00    +0.000 C 
ATOM      2  N   UNL     1       4.592   6.710  17.706  0.00  0.00    +0.000 N 
ATOM      3  C   UNL     1       3.332   7.240  17.825  0.00  0.00    +0.000 C 
ATOM      4  O   UNL     1       3.001   8.339  17.383  0.00  0.00    +0.000 OA
ATOM      5  N   UNL     1       2.437   6.527  18.564  0.00  0.00    +0.000 N 
ATOM      6  C   UNL     1       2.730   5.344  19.232  0.00  0.00    +0.000 A 
ATOM      7  C   UNL     1       1.833   4.854  20.186  0.00  0.00    +0.000 A 
ATOM      8  C   UNL     1       2.105   3.648  20.828  0.00  0.00    +0.000 A 
ATOM      9  C   UNL     1       3.248   2.937  20.487  0.00  0.00    +0.000 A 
ATOM     10  F   UNL     1       3.489   1.756  21.071  0.00  0.00    +0.000 F 
ATOM     11  C   UNL     1       4.148   3.428  19.544  0.00  0.00    +0.000 A 
ATOM     12  C   UNL     1       3.914   4.668  18.927  0.00  0.00    +0.000 A 
ATOM     13  C   UNL     1       4.836   5.283  17.893  0.00  0.00    +0.000 C 
ATOM     14  N   UNL     1       4.701   4.585  16.638  0.00  0.00    +0.000 N 
ATOM     15  C   UNL     1       5.843   3.924  16.257  0.00  0.00    +0.000 C 
ATOM     16  O   UNL     1       5.958   3.256  15.245  0.00  0.00    +0.000 OA
ATOM     17  N   UNL     1       6.801   4.135  17.183  0.00  0.00    +0.000 N 
ATOM     18  C   UNL     1       6.340   4.936  18.188  0.00  0.00    +0.000 C 
ATOM     19  O   UNL     1       7.019   5.319  19.130  0.00  0.00    +0.000 OA
ATOM     20  H   UNL     1       1.562   7.006  18.730  0.00  0.00    +0.000 HD
ATOM     21  H   UNL     1       3.860   4.563  16.084  0.00  0.00    +0.000 HD
ATOM     22  H   UNL     1       7.738   3.775  17.122  0.00  0.00    +0.000 HD
ENDROOT
TORSDOF 0
ENDMDL
MODEL 9
REMARK VINA RESULT:      -6.8      3.448      5.179
REMARK  Name = 
REMARK  1 active torsions:
REMARK  status: ('A' for Active; 'I' for Inactive)
REMARK    1  A    between atoms: C_1  and  N_2
REMARK                            x       y       z     vdW  Elec       q    Type
REMARK                         _______ _______ _______ _____ _____    ______ ____
ROOT
ATOM      1  C   UNL     1       7.488   5.185  15.385  0.00  0.00    +0.000 C 
ATOM      2  N   UNL     1       6.400   4.757  16.248  0.00  0.00    +0.000 N 
ATOM      3  C   UNL     1       5.581   3.744  15.816  0.00  0.00    +0.000 C 
ATOM      4  O   UNL     1       5.862   2.972  14.901  0.00  0.00    +0.000 OA
ATOM      5  N   UNL     1       4.348   3.669  16.390  0.00  0.00    +0.000 N 
ATOM      6  C   UNL     1       3.859   4.568  17.332  0.00  0.00    +0.000 A 
ATOM      7  C   UNL     1       2.495   4.569  17.636  0.00  0.00    +0.000 A 
ATOM      8  C   UNL     1       2.010   5.441  18.608  0.00  0.00    +0.000 A 
ATOM      9  C   UNL     1       2.896   6.272  19.280  0.00  0.00    +0.000 A 
ATOM     10  F   UNL     1       2.437   7.080  20.246  0.00  0.00    +0.000 F 
ATOM     11  C   UNL     1       4.254   6.279  18.972  0.00  0.00    +0.000 A 
ATOM     12  C   UNL     1       4.749   5.444  17.957  0.00  0.00    +0.000 A 
ATOM     13  C   UNL     1       6.208   5.384  17.552  0.00  0.00    +0.000 C 
ATOM     14  N   UNL     1       6.970   4.686  18.558  0.00  0.00    +0.000 N 
ATOM     15  C   UNL     1       7.892   5.481  19.193  0.00  0.00    +0.000 C 
ATOM     16  O   UNL     1       8.634   5.113  20.086  0.00  0.00    +0.000 OA
ATOM     17  N   UNL     1       7.835   6.723  18.669  0.00  0.00    +0.000 N 
ATOM     18  C   UNL     1       6.897   6.791  17.679  0.00  0.00    +0.000 C 
ATOM     19  O   UNL     1       6.674   7.790  17.009  0.00  0.00    +0.000 OA
ATOM     20  H   UNL     1       3.732   2.990  15.962  0.00  0.00    +0.000 HD
ATOM     21  H   UNL     1       6.848   3.714  18.794  0.00  0.00    +0.000 HD
ATOM     22  H   UNL     1       8.428   7.485  18.950  0.00  0.00    +0.000 HD
ENDROOT
TORSDOF 0
ENDMDL
