MODEL 1
REMARK VINA RESULT:      -6.1      0.000      0.000
REMARK  Name = 
REMARK  4 active torsions:
REMARK  status: ('A' for Active; 'I' for Inactive)
REMARK    1  A    between atoms: C_1  and  C_2
REMARK    2  A    between atoms: C_7  and  C_8
REMARK    3  A    between atoms: C_10  and  C_11
REMARK    4  A    between atoms: N_19  and  C_20
REMARK                            x       y       z     vdW  Elec       q    Type
REMARK                         _______ _______ _______ _____ _____    ______ ____
ROOT
ATOM      1  C   UNL     1       6.002   3.812  12.563  0.00  0.00    +0.000 C 
ATOM      2  C   UNL     1       5.945   4.008  14.048  0.00  0.00    +0.000 A 
ATOM      3  N   UNL     1       7.061   4.528  14.606  0.00  0.00    +0.000 NA
ATOM      4  C   UNL     1       7.096   4.726  15.932  0.00  0.00    +0.000 A 
ATOM      5  N   UNL     1       8.269   5.236  16.459  0.00  0.00    +0.000 N 
ATOM      6  C   UNL     1       5.962   4.411  16.687  0.00  0.00    +0.000 A 
ATOM      7  C   UNL     1       5.591   4.510  18.043  0.00  0.00    +0.000 A 
ATOM      8  C   UNL     1       4.288   4.040  18.214  0.00  0.00    +0.000 A 
ATOM      9  N   UNL     1       3.879   3.624  16.949  0.00  0.00    +0.000 N 
ATOM     10  C   UNL     1       2.634   2.984  16.575  0.00  0.00    +0.000 C 
ATOM     11  C   UNL     1       4.876   3.878  16.019  0.00  0.00    +0.000 A 
ATOM     12  N   UNL     1       4.810   3.646  14.693  0.00  0.00    +0.000 NA
ATOM     13  H   UNL     1       8.866   5.638  15.748  0.00  0.00    +0.000 HD
ATOM     14  H   UNL     1       8.241   5.712  17.351  0.00  0.00    +0.000 HD
ENDROOT
BRANCH   8  15
ATOM     15  C   UNL     1       3.501   4.059  19.469  0.00  0.00    +0.000 A 
ATOM     16  C   UNL     1       2.749   5.208  19.795  0.00  0.00    +0.000 A 
ATOM     17  C   UNL     1       1.796   5.197  20.819  0.00  0.00    +0.000 A 
ATOM     18  C   UNL     1       1.619   4.052  21.585  0.00  0.00    +0.000 A 
ATOM     19  C   UNL     1       2.400   2.933  21.322  0.00  0.00    +0.000 A 
ATOM     20  F   UNL     1       2.237   1.836  22.074  0.00  0.00    +0.000 F 
ATOM     21  C   UNL     1       3.318   2.925  20.270  0.00  0.00    +0.000 A 
ATOM     22  F   UNL     1       3.983   1.789  20.009  0.00  0.00    +0.000 F 
ENDBRANCH   8  15
BRANCH   7  23
ATOM     23  C   UNL     1       6.429   5.072  19.051  0.00  0.00    +0.000 C 
ATOM     24  N   UNL     1       7.085   5.519  19.899  0.00  0.00    +0.000 NA
ENDBRANCH   7  23
TORSDOF 2
ENDMDL
MODEL 2
REMARK VINA RESULT:      -6.1      8.032      9.924
REMARK  Name = 
REMARK  4 active torsions:
REMARK  status: ('A' for Active; 'I' for Inactive)
REMARK    1  A    between atoms: C_1  and  C_2
REMARK    2  A    between atoms: C_7  and  C_8
REMARK    3  A    between atoms: C_10  and  C_11
REMARK    4  A    between atoms: N_19  and  C_20
REMARK                            x       y       z     vdW  Elec       q    Type
REMARK                         _______ _______ _______ _____ _____    ______ ____
ROOT
ATOM      1  C   UNL     1       2.459   6.354  20.011  0.00  0.00    +0.000 C 
ATOM      2  C   UNL     1       1.837   7.718  20.038  0.00  0.00    +0.000 A 
ATOM      3  N   UNL     1       1.907   8.408  18.878  0.00  0.00    +0.000 NA
ATOM      4  C   UNL     1       1.382   9.641  18.819  0.00  0.00    +0.000 A 
ATOM      5  N   UNL     1       1.502  10.316  17.617  0.00  0.00    +0.000 N 
ATOM      6  C   UNL     1       0.757  10.158  19.957  0.00  0.00    +0.000 A 
ATOM      7  C   UNL     1       0.069  11.345  20.281  0.00  0.00    +0.000 A 
ATOM      8  C   UNL     1      -0.360  11.297  21.609  0.00  0.00    +0.000 A 
ATOM      9  N   UNL     1       0.101  10.077  22.100  0.00  0.00    +0.000 N 
ATOM     10  C   UNL     1      -0.004   9.557  23.447  0.00  0.00    +0.000 C 
ATOM     11  C   UNL     1       0.747   9.374  21.095  0.00  0.00    +0.000 A 
ATOM     12  N   UNL     1       1.280   8.140  21.198  0.00  0.00    +0.000 NA
ATOM     13  H   UNL     1       1.742   9.699  16.852  0.00  0.00    +0.000 HD
ATOM     14  H   UNL     1       0.857  11.067  17.409  0.00  0.00    +0.000 HD
ENDROOT
BRANCH   8  15
ATOM     15  C   UNL     1      -1.193  12.306  22.304  0.00  0.00    +0.000 A 
ATOM     16  C   UNL     1      -2.484  11.947  22.748  0.00  0.00    +0.000 A 
ATOM     17  C   UNL     1      -3.212  12.761  23.623  0.00  0.00    +0.000 A 
ATOM     18  C   UNL     1      -2.691  13.985  24.022  0.00  0.00    +0.000 A 
ATOM     19  C   UNL     1      -1.451  14.384  23.539  0.00  0.00    +0.000 A 
ATOM     20  F   UNL     1      -0.959  15.574  23.915  0.00  0.00    +0.000 F 
ATOM     21  C   UNL     1      -0.700  13.554  22.704  0.00  0.00    +0.000 A 
ATOM     22  F   UNL     1       0.527  13.955  22.337  0.00  0.00    +0.000 F 
ENDBRANCH   8  15
BRANCH   7  23
ATOM     23  C   UNL     1      -0.184  12.390  19.345  0.00  0.00    +0.000 C 
ATOM     24  N   UNL     1      -0.363  13.264  18.600  0.00  0.00    +0.000 NA
ENDBRANCH   7  23
TORSDOF 2
ENDMDL
MODEL 3
REMARK VINA RESULT:      -6.1      3.112      6.567
REMARK  Name = 
REMARK  4 active torsions:
REMARK  status: ('A' for Active; 'I' for Inactive)
REMARK    1  A    between atoms: C_1  and  C_2
REMARK    2  A    between atoms: C_7  and  C_8
REMARK    3  A    between atoms: C_10  and  C_11
REMARK    4  A    between atoms: N_19  and  C_20
REMARK                            x       y       z     vdW  Elec       q    Type
REMARK                         _______ _______ _______ _____ _____    ______ ____
ROOT
ATOM      1  C   UNL     1       1.032   7.733  21.205  0.00  0.00    +0.000 C 
ATOM      2  C   UNL     1       1.763   6.701  20.398  0.00  0.00    +0.000 A 
ATOM      3  N   UNL     1       1.560   5.421  20.778  0.00  0.00    +0.000 NA
ATOM      4  C   UNL     1       2.185   4.436  20.115  0.00  0.00    +0.000 A 
ATOM      5  N   UNL     1       1.966   3.144  20.558  0.00  0.00    +0.000 N 
ATOM      6  C   UNL     1       3.005   4.772  19.033  0.00  0.00    +0.000 A 
ATOM      7  C   UNL     1       3.769   4.062  18.086  0.00  0.00    +0.000 A 
ATOM      8  C   UNL     1       4.385   4.956  17.208  0.00  0.00    +0.000 A 
ATOM      9  N   UNL     1       4.010   6.223  17.650  0.00  0.00    +0.000 N 
ATOM     10  C   UNL     1       4.431   7.511  17.140  0.00  0.00    +0.000 C 
ATOM     11  C   UNL     1       3.150   6.113  18.732  0.00  0.00    +0.000 A 
ATOM     12  N   UNL     1       2.555   7.131  19.387  0.00  0.00    +0.000 NA
ATOM     13  H   UNL     1       1.159   3.079  21.166  0.00  0.00    +0.000 HD
ATOM     14  H   UNL     1       2.118   2.374  19.921  0.00  0.00    +0.000 HD
ENDROOT
BRANCH   8  15
ATOM     15  C   UNL     1       5.198   4.607  16.020  0.00  0.00    +0.000 A 
ATOM     16  C   UNL     1       4.590   3.924  14.944  0.00  0.00    +0.000 A 
ATOM     17  C   UNL     1       5.225   3.792  13.704  0.00  0.00    +0.000 A 
ATOM     18  C   UNL     1       6.513   4.284  13.533  0.00  0.00    +0.000 A 
ATOM     19  C   UNL     1       7.153   4.898  14.603  0.00  0.00    +0.000 A 
ATOM     20  F   UNL     1       8.401   5.357  14.437  0.00  0.00    +0.000 F 
ATOM     21  C   UNL     1       6.503   5.074  15.826  0.00  0.00    +0.000 A 
ATOM     22  F   UNL     1       7.139   5.750  16.797  0.00  0.00    +0.000 F 
ENDBRANCH   8  15
BRANCH   7  23
ATOM     23  C   UNL     1       3.829   2.639  18.028  0.00  0.00    +0.000 C 
ATOM     24  N   UNL     1       3.866   1.478  18.019  0.00  0.00    +0.000 NA
ENDBRANCH   7  23
TORSDOF 2
ENDMDL
MODEL 4
REMARK VINA RESULT:      -6.0      2.952      6.305
REMARK  Name = 
REMARK  4 active torsions:
REMARK  status: ('A' for Active; 'I' for Inactive)
REMARK    1  A    between atoms: C_1  and  C_2
REMARK    2  A    between atoms: C_7  and  C_8
REMARK    3  A    between atoms: C_10  and  C_11
REMARK    4  A    between atoms: N_19  and  C_20
REMARK                            x       y       z     vdW  Elec       q    Type
REMARK                         _______ _______ _______ _____ _____    ______ ____
ROOT
ATOM      1  C   UNL     1       1.368   2.516  22.223  0.00  0.00    +0.000 C 
ATOM      2  C   UNL     1       1.982   3.284  21.091  0.00  0.00    +0.000 A 
ATOM      3  N   UNL     1       1.819   4.623  21.146  0.00  0.00    +0.000 NA
ATOM      4  C   UNL     1       2.330   5.384  20.166  0.00  0.00    +0.000 A 
ATOM      5  N   UNL     1       2.114   6.748  20.254  0.00  0.00    +0.000 N 
ATOM      6  C   UNL     1       3.038   4.761  19.134  0.00  0.00    +0.000 A 
ATOM      7  C   UNL     1       3.742   5.188  17.990  0.00  0.00    +0.000 A 
ATOM      8  C   UNL     1       4.272   4.084  17.320  0.00  0.00    +0.000 A 
ATOM      9  N   UNL     1       3.857   2.974  18.055  0.00  0.00    +0.000 N 
ATOM     10  C   UNL     1       4.069   1.573  17.757  0.00  0.00    +0.000 C 
ATOM     11  C   UNL     1       3.141   3.383  19.169  0.00  0.00    +0.000 A 
ATOM     12  N   UNL     1       2.624   2.585  20.124  0.00  0.00    +0.000 NA
ATOM     13  H   UNL     1       1.819   7.031  21.180  0.00  0.00    +0.000 HD
ATOM     14  H   UNL     1       2.737   7.376  19.764  0.00  0.00    +0.000 HD
ENDROOT
BRANCH   8  15
ATOM     15  C   UNL     1       5.149   4.113  16.127  0.00  0.00    +0.000 A 
ATOM     16  C   UNL     1       4.629   3.712  14.878  0.00  0.00    +0.000 A 
ATOM     17  C   UNL     1       5.316   3.954  13.683  0.00  0.00    +0.000 A 
ATOM     18  C   UNL     1       6.572   4.546  13.717  0.00  0.00    +0.000 A 
ATOM     19  C   UNL     1       7.129   4.884  14.945  0.00  0.00    +0.000 A 
ATOM     20  F   UNL     1       8.348   5.441  14.973  0.00  0.00    +0.000 F 
ATOM     21  C   UNL     1       6.426   4.689  16.135  0.00  0.00    +0.000 A 
ATOM     22  F   UNL     1       6.978   5.112  17.283  0.00  0.00    +0.000 F 
ENDBRANCH   8  15
BRANCH   7  23
ATOM     23  C   UNL     1       3.916   6.558  17.637  0.00  0.00    +0.000 C 
ATOM     24  N   UNL     1       4.018   7.679  17.349  0.00  0.00    +0.000 NA
ENDBRANCH   7  23
TORSDOF 2
ENDMDL
MODEL 5
REMARK VINA RESULT:      -6.0      3.855      5.050
REMARK  Name = 
REMARK  4 active torsions:
REMARK  status: ('A' for Active; 'I' for Inactive)
REMARK    1  A    between atoms: C_1  and  C_2
REMARK    2  A    between atoms: C_7  and  C_8
REMARK    3  A    between atoms: C_10  and  C_11
REMARK    4  A    between atoms: N_19  and  C_20
REMARK                            x       y       z     vdW  Elec       q    Type
REMARK                         _______ _______ _______ _____ _____    ______ ____
ROOT
ATOM      1  C   UNL     1       6.590   4.095  15.383  0.00  0.00    +0.000 C 
ATOM      2  C   UNL     1       5.448   4.389  16.310  0.00  0.00    +0.000 A 
ATOM      3  N   UNL     1       4.828   3.304  16.824  0.00  0.00    +0.000 NA
ATOM      4  C   UNL     1       3.789   3.479  17.654  0.00  0.00    +0.000 A 
ATOM      5  N   UNL     1       3.171   2.338  18.134  0.00  0.00    +0.000 N 
ATOM      6  C   UNL     1       3.403   4.783  17.980  0.00  0.00    +0.000 A 
ATOM      7  C   UNL     1       2.433   5.371  18.817  0.00  0.00    +0.000 A 
ATOM      8  C   UNL     1       2.527   6.762  18.746  0.00  0.00    +0.000 A 
ATOM      9  N   UNL     1       3.547   7.015  17.831  0.00  0.00    +0.000 N 
ATOM     10  C   UNL     1       4.005   8.296  17.333  0.00  0.00    +0.000 C 
ATOM     11  C   UNL     1       4.100   5.822  17.393  0.00  0.00    +0.000 A 
ATOM     12  N   UNL     1       5.134   5.686  16.539  0.00  0.00    +0.000 NA
ATOM     13  H   UNL     1       3.739   1.511  18.004  0.00  0.00    +0.000 HD
ATOM     14  H   UNL     1       2.637   2.392  18.991  0.00  0.00    +0.000 HD
ENDROOT
BRANCH   8  15
ATOM     15  C   UNL     1       1.748   7.740  19.541  0.00  0.00    +0.000 A 
ATOM     16  C   UNL     1       1.785   7.669  20.951  0.00  0.00    +0.000 A 
ATOM     17  C   UNL     1       1.286   8.702  21.752  0.00  0.00    +0.000 A 
ATOM     18  C   UNL     1       0.678   9.802  21.160  0.00  0.00    +0.000 A 
ATOM     19  C   UNL     1       0.572   9.855  19.775  0.00  0.00    +0.000 A 
ATOM     20  F   UNL     1      -0.029  10.912  19.210  0.00  0.00    +0.000 F 
ATOM     21  C   UNL     1       1.112   8.849  18.971  0.00  0.00    +0.000 A 
ATOM     22  F   UNL     1       1.055   8.995  17.638  0.00  0.00    +0.000 F 
ENDBRANCH   8  15
BRANCH   7  23
ATOM     23  C   UNL     1       1.547   4.621  19.645  0.00  0.00    +0.000 C 
ATOM     24  N   UNL     1       0.832   3.978  20.297  0.00  0.00    +0.000 NA
ENDBRANCH   7  23
TORSDOF 2
ENDMDL
MODEL 6
REMARK VINA RESULT:      -5.8      6.901      9.662
REMARK  Name = 
REMARK  4 active torsions:
REMARK  status: ('A' for Active; 'I' for Inactive)
REMARK    1  A    between atoms: C_1  and  C_2
REMARK    2  A    between atoms: C_7  and  C_8
REMARK    3  A    between atoms: C_10  and  C_11
REMARK    4  A    between atoms: N_19  and  C_20
REMARK                            x       y       z     vdW  Elec       q    Type
REMARK                         _______ _______ _______ _____ _____    ______ ____
ROOT
ATOM      1  C   UNL     1      -1.587  13.775  23.713  0.00  0.00    +0.000 C 
ATOM      2  C   UNL     1      -1.360  12.854  22.551  0.00  0.00    +0.000 A 
ATOM      3  N   UNL     1      -2.182  13.041  21.496  0.00  0.00    +0.000 NA
ATOM      4  C   UNL     1      -2.052  12.252  20.418  0.00  0.00    +0.000 A 
ATOM      5  N   UNL     1      -2.934  12.465  19.374  0.00  0.00    +0.000 N 
ATOM      6  C   UNL     1      -1.046  11.280  20.418  0.00  0.00    +0.000 A 
ATOM      7  C   UNL     1      -0.568  10.321  19.502  0.00  0.00    +0.000 A 
ATOM      8  C   UNL     1       0.498   9.619  20.064  0.00  0.00    +0.000 A 
ATOM      9  N   UNL     1       0.646  10.141  21.348  0.00  0.00    +0.000 N 
ATOM     10  C   UNL     1       1.561   9.717  22.388  0.00  0.00    +0.000 C 
ATOM     11  C   UNL     1      -0.264  11.167  21.551  0.00  0.00    +0.000 A 
ATOM     12  N   UNL     1      -0.378  11.926  22.659  0.00  0.00    +0.000 NA
ATOM     13  H   UNL     1      -3.403  13.360  19.445  0.00  0.00    +0.000 HD
ATOM     14  H   UNL     1      -2.678  12.159  18.445  0.00  0.00    +0.000 HD
ENDROOT
BRANCH   8  15
ATOM     15  C   UNL     1       1.331   8.593  19.394  0.00  0.00    +0.000 A 
ATOM     16  C   UNL     1       2.010   8.927  18.202  0.00  0.00    +0.000 A 
ATOM     17  C   UNL     1       3.001   8.098  17.665  0.00  0.00    +0.000 A 
ATOM     18  C   UNL     1       3.288   6.882  18.272  0.00  0.00    +0.000 A 
ATOM     19  C   UNL     1       2.580   6.507  19.407  0.00  0.00    +0.000 A 
ATOM     20  F   UNL     1       2.851   5.326  19.981  0.00  0.00    +0.000 F 
ATOM     21  C   UNL     1       1.625   7.353  19.974  0.00  0.00    +0.000 A 
ATOM     22  F   UNL     1       1.033   6.976  21.118  0.00  0.00    +0.000 F 
ENDBRANCH   8  15
BRANCH   7  23
ATOM     23  C   UNL     1      -1.085  10.166  18.181  0.00  0.00    +0.000 C 
ATOM     24  N   UNL     1      -1.512  10.078  17.105  0.00  0.00    +0.000 NA
ENDBRANCH   7  23
TORSDOF 2
ENDMDL
MODEL 7
REMARK VINA RESULT:      -5.8      9.638     11.402
REMARK  Name = 
REMARK  4 active torsions:
REMARK  status: ('A' for Active; 'I' for Inactive)
REMARK    1  A    between atoms: C_1  and  C_2
REMARK    2  A    between atoms: C_7  and  C_8
REMARK    3  A    between atoms: C_10  and  C_11
REMARK    4  A    between atoms: N_19  and  C_20
REMARK                            x       y       z     vdW  Elec       q    Type
REMARK                         _______ _______ _______ _____ _____    ______ ____
ROOT
ATOM      1  C   UNL     1      -3.281   9.849  15.471  0.00  0.00    +0.000 C 
ATOM      2  C   UNL     1      -2.757  10.369  16.776  0.00  0.00    +0.000 A 
ATOM      3  N   UNL     1      -1.491  10.004  17.077  0.00  0.00    +0.000 NA
ATOM      4  C   UNL     1      -0.949  10.419  18.232  0.00  0.00    +0.000 A 
ATOM      5  N   UNL     1       0.340   9.998  18.507  0.00  0.00    +0.000 N 
ATOM      6  C   UNL     1      -1.708  11.239  19.072  0.00  0.00    +0.000 A 
ATOM      7  C   UNL     1      -1.498  11.899  20.299  0.00  0.00    +0.000 A 
ATOM      8  C   UNL     1      -2.646  12.607  20.660  0.00  0.00    +0.000 A 
ATOM      9  N   UNL     1      -3.571  12.346  19.650  0.00  0.00    +0.000 N 
ATOM     10  C   UNL     1      -4.951  12.775  19.567  0.00  0.00    +0.000 C 
ATOM     11  C   UNL     1      -2.995  11.548  18.673  0.00  0.00    +0.000 A 
ATOM     12  N   UNL     1      -3.581  11.134  17.532  0.00  0.00    +0.000 NA
ATOM     13  H   UNL     1       0.810   9.640  17.685  0.00  0.00    +0.000 HD
ATOM     14  H   UNL     1       0.903  10.531  19.156  0.00  0.00    +0.000 HD
ENDROOT
BRANCH   8  15
ATOM     15  C   UNL     1      -2.801  13.500  21.832  0.00  0.00    +0.000 A 
ATOM     16  C   UNL     1      -2.853  14.897  21.632  0.00  0.00    +0.000 A 
ATOM     17  C   UNL     1      -3.248  15.770  22.652  0.00  0.00    +0.000 A 
ATOM     18  C   UNL     1      -3.537  15.270  23.915  0.00  0.00    +0.000 A 
ATOM     19  C   UNL     1      -3.423  13.904  24.147  0.00  0.00    +0.000 A 
ATOM     20  F   UNL     1      -3.688  13.429  25.372  0.00  0.00    +0.000 F 
ATOM     21  C   UNL     1      -3.076  13.025  23.119  0.00  0.00    +0.000 A 
ATOM     22  F   UNL     1      -3.065  11.708  23.380  0.00  0.00    +0.000 F 
ENDBRANCH   8  15
BRANCH   7  23
ATOM     23  C   UNL     1      -0.260  11.873  21.007  0.00  0.00    +0.000 C 
ATOM     24  N   UNL     1       0.753  11.814  21.571  0.00  0.00    +0.000 NA
ENDBRANCH   7  23
TORSDOF 2
ENDMDL
MODEL 8
REMARK VINA RESULT:      -5.8      9.807     12.396
REMARK  Name = 
REMARK  4 active torsions:
REMARK  status: ('A' for Active; 'I' for Inactive)
REMARK    1  A    between atoms: C_1  and  C_2
REMARK    2  A    between atoms: C_7  and  C_8
REMARK    3  A    between atoms: C_10  and  C_11
REMARK    4  A    between atoms: N_19  and  C_20
REMARK                            x       y       z     vdW  Elec       q    Type
REMARK                         _______ _______ _______ _____ _____    ______ ____
ROOT
ATOM      1  C   UNL     1      -7.481  12.839  21.804  0.00  0.00    +0.000 C 
ATOM      2  C   UNL     1      -6.396  12.514  20.821  0.00  0.00    +0.000 A 
ATOM      3  N   UNL     1      -6.821  12.073  19.617  0.00  0.00    +0.000 NA
ATOM      4  C   UNL     1      -5.914  11.750  18.683  0.00  0.00    +0.000 A 
ATOM      5  N   UNL     1      -6.398  11.279  17.475  0.00  0.00    +0.000 N 
ATOM      6  C   UNL     1      -4.557  11.908  18.983  0.00  0.00    +0.000 A 
ATOM      7  C   UNL     1      -3.342  11.734  18.290  0.00  0.00    +0.000 A 
ATOM      8  C   UNL     1      -2.271  12.071  19.120  0.00  0.00    +0.000 A 
ATOM      9  N   UNL     1      -2.848  12.425  20.338  0.00  0.00    +0.000 N 
ATOM     10  C   UNL     1      -2.182  12.788  21.572  0.00  0.00    +0.000 C 
ATOM     11  C   UNL     1      -4.230  12.360  20.247  0.00  0.00    +0.000 A 
ATOM     12  N   UNL     1      -5.111  12.674  21.218  0.00  0.00    +0.000 NA
ATOM     13  H   UNL     1      -7.382  11.479  17.352  0.00  0.00    +0.000 HD
ATOM     14  H   UNL     1      -5.815  11.347  16.652  0.00  0.00    +0.000 HD
ENDROOT
BRANCH   8  15
ATOM     15  C   UNL     1      -0.840  12.110  18.741  0.00  0.00    +0.000 A 
ATOM     16  C   UNL     1      -0.204  13.360  18.574  0.00  0.00    +0.000 A 
ATOM     17  C   UNL     1       1.187  13.468  18.468  0.00  0.00    +0.000 A 
ATOM     18  C   UNL     1       1.970  12.321  18.462  0.00  0.00    +0.000 A 
ATOM     19  C   UNL     1       1.354  11.079  18.556  0.00  0.00    +0.000 A 
ATOM     20  F   UNL     1       2.113   9.974  18.535  0.00  0.00    +0.000 F 
ATOM     21  C   UNL     1      -0.029  10.969  18.710  0.00  0.00    +0.000 A 
ATOM     22  F   UNL     1      -0.560   9.748  18.882  0.00  0.00    +0.000 F 
ENDBRANCH   8  15
BRANCH   7  23
ATOM     23  C   UNL     1      -3.263  11.331  16.925  0.00  0.00    +0.000 C 
ATOM     24  N   UNL     1      -3.196  11.041  15.802  0.00  0.00    +0.000 NA
ENDBRANCH   7  23
TORSDOF 2
ENDMDL
MODEL 9
REMARK VINA RESULT:      -5.7     10.832     12.454
REMARK  Name = 
REMARK  4 active torsions:
REMARK  status: ('A' for Active; 'I' for Inactive)
REMARK    1  A    between atoms: C_1  and  C_2
REMARK    2  A    between atoms: C_7  and  C_8
REMARK    3  A    between atoms: C_10  and  C_11
REMARK    4  A    between atoms: N_19  and  C_20
REMARK                            x       y       z     vdW  Elec       q    Type
REMARK                         _______ _______ _______ _____ _____    ______ ____
ROOT
ATOM      1  C   UNL     1      -3.642  10.057  14.119  0.00  0.00    +0.000 C 
ATOM      2  C   UNL     1      -3.524  10.578  15.521  0.00  0.00    +0.000 A 
ATOM      3  N   UNL     1      -2.287  10.512  16.060  0.00  0.00    +0.000 NA
ATOM      4  C   UNL     1      -2.097  10.948  17.314  0.00  0.00    +0.000 A 
ATOM      5  N   UNL     1      -0.819  10.836  17.830  0.00  0.00    +0.000 N 
ATOM      6  C   UNL     1      -3.186  11.483  18.009  0.00  0.00    +0.000 A 
ATOM      7  C   UNL     1      -3.387  12.069  19.275  0.00  0.00    +0.000 A 
ATOM      8  C   UNL     1      -4.725  12.440  19.418  0.00  0.00    +0.000 A 
ATOM      9  N   UNL     1      -5.345  12.045  18.234  0.00  0.00    +0.000 N 
ATOM     10  C   UNL     1      -6.748  12.126  17.887  0.00  0.00    +0.000 C 
ATOM     11  C   UNL     1      -4.410  11.498  17.368  0.00  0.00    +0.000 A 
ATOM     12  N   UNL     1      -4.644  11.050  16.119  0.00  0.00    +0.000 NA
ATOM     13  H   UNL     1      -0.126  10.675  17.109  0.00  0.00    +0.000 HD
ATOM     14  H   UNL     1      -0.544  11.434  18.597  0.00  0.00    +0.000 HD
ENDROOT
BRANCH   8  15
ATOM     15  C   UNL     1      -5.322  13.165  20.564  0.00  0.00    +0.000 A 
ATOM     16  C   UNL     1      -5.042  14.539  20.732  0.00  0.00    +0.000 A 
ATOM     17  C   UNL     1      -5.765  15.331  21.630  0.00  0.00    +0.000 A 
ATOM     18  C   UNL     1      -6.742  14.752  22.430  0.00  0.00    +0.000 A 
ATOM     19  C   UNL     1      -6.983  13.388  22.326  0.00  0.00    +0.000 A 
ATOM     20  F   UNL     1      -7.916  12.831  23.111  0.00  0.00    +0.000 F 
ATOM     21  C   UNL     1      -6.297  12.603  21.396  0.00  0.00    +0.000 A 
ATOM     22  F   UNL     1      -6.631  11.308  21.281  0.00  0.00    +0.000 F 
ENDBRANCH   8  15
BRANCH   7  23
ATOM     23  C   UNL     1      -2.340  12.289  20.218  0.00  0.00    +0.000 C 
ATOM     24  N   UNL     1      -1.475  12.499  20.964  0.00  0.00    +0.000 NA
ENDBRANCH   7  23
TORSDOF 2
ENDMDL
