MODEL 1
REMARK VINA RESULT:      -6.9      0.000      0.000
REMARK  Name = 
REMARK  9 active torsions:
REMARK  status: ('A' for Active; 'I' for Inactive)
REMARK    1  A    between atoms: C_1  and  C_2
REMARK    2  A    between atoms: C_2  and  N_3
REMARK    3  A    between atoms: N_3  and  C_4
REMARK    4  A    between atoms: N_3  and  C_6
REMARK    5  A    between atoms: C_4  and  C_5
REMARK    6  A    between atoms: C_6  and  C_7
REMARK    7  A    between atoms: C_7  and  C_8
REMARK    8  A    between atoms: N_13  and  C_14
REMARK    9  A    between atoms: C_14  and  C_15
REMARK                            x       y       z     vdW  Elec       q    Type
REMARK                         _______ _______ _______ _____ _____    ______ ____
ROOT
ATOM      1  C   UNL     1      -1.498  10.878  17.957  0.00  0.00    +0.000 C 
ATOM      2  O   UNL     1      -1.598   9.982  17.118  0.00  0.00    +0.000 OA
ATOM      3  N   UNL     1      -0.456  10.927  18.910  0.00  0.00    +0.000 N 
ATOM      4  C   UNL     1       0.479   9.863  19.064  0.00  0.00    +0.000 A 
ATOM      5  C   UNL     1       1.018   9.223  17.935  0.00  0.00    +0.000 A 
ATOM      6  C   UNL     1       1.889   8.140  18.066  0.00  0.00    +0.000 A 
ATOM      7  C   UNL     1       2.203   7.654  19.330  0.00  0.00    +0.000 A 
ATOM      8  C   UNL     1       1.655   8.258  20.460  0.00  0.00    +0.000 A 
ATOM      9  C   UNL     1       0.825   9.383  20.339  0.00  0.00    +0.000 A 
ATOM     10  N   UNL     1       0.313   9.909  21.537  0.00  0.00    +0.000 N 
ATOM     11  C   UNL     1      -0.076  11.189  21.827  0.00  0.00    +0.000 C 
ATOM     12  O   UNL     1      -0.505  11.455  22.947  0.00  0.00    +0.000 OA
ATOM     13  C   UNL     1       0.175  12.283  20.864  0.00  0.00    +0.000 A 
ATOM     14  C   UNL     1       0.566  13.527  21.391  0.00  0.00    +0.000 A 
ATOM     15  C   UNL     1       0.799  14.616  20.551  0.00  0.00    +0.000 A 
ATOM     16  C   UNL     1       0.637  14.474  19.177  0.00  0.00    +0.000 A 
ATOM     17  C   UNL     1       0.235  13.247  18.651  0.00  0.00    +0.000 A 
ATOM     18  C   UNL     1      -0.018  12.146  19.491  0.00  0.00    +0.000 A 
ATOM     19  H   UNL     1       0.338   9.321  22.361  0.00  0.00    +0.000 HD
ENDROOT
BRANCH   1  20
ATOM     20  C   UNL     1      -2.574  11.993  18.147  0.00  0.00    +0.000 C 
BRANCH  20  26
ATOM     21  C   UNL     1      -4.393  12.547  19.732  0.00  0.00    +0.000 C 
ATOM     22  C   UNL     1      -5.718  12.009  20.337  0.00  0.00    +0.000 C 
ATOM     23  C   UNL     1      -6.749  11.638  19.284  0.00  0.00    +0.000 C 
ATOM     24  C   UNL     1      -6.140  10.702  18.263  0.00  0.00    +0.000 C 
ATOM     25  C   UNL     1      -4.864  11.308  17.691  0.00  0.00    +0.000 C 
ATOM     26  N   UNL     1      -3.859  11.546  18.751  0.00  0.00    +0.000 NA
BRANCH  21  27
ATOM     27  C   UNL     1      -3.409  12.903  20.890  0.00  0.00    +0.000 C 
BRANCH  27  28
ATOM     28  C   UNL     1      -4.044  12.725  22.284  0.00  0.00    +0.000 C 
BRANCH  28  29
ATOM     29  N   UNL     1      -4.093  13.936  23.132  0.00  0.00    +0.000 NA
BRANCH  29  31
ATOM     30  C   UNL     1      -6.275  12.929  23.951  0.00  0.00    +0.000 C 
ATOM     31  C   UNL     1      -5.496  14.171  23.533  0.00  0.00    +0.000 C 
ENDBRANCH  29  31
BRANCH  29  32
ATOM     32  C   UNL     1      -3.155  13.892  24.268  0.00  0.00    +0.000 C 
ATOM     33  C   UNL     1      -1.826  14.619  24.073  0.00  0.00    +0.000 C 
ENDBRANCH  29  32
ENDBRANCH  28  29
ENDBRANCH  27  28
ENDBRANCH  21  27
ENDBRANCH  20  26
ENDBRANCH   1  20
TORSDOF 7
ENDMDL
MODEL 2
REMARK VINA RESULT:      -6.8      4.144      7.868
REMARK  Name = 
REMARK  9 active torsions:
REMARK  status: ('A' for Active; 'I' for Inactive)
REMARK    1  A    between atoms: C_1  and  C_2
REMARK    2  A    between atoms: C_2  and  N_3
REMARK    3  A    between atoms: N_3  and  C_4
REMARK    4  A    between atoms: N_3  and  C_6
REMARK    5  A    between atoms: C_4  and  C_5
REMARK    6  A    between atoms: C_6  and  C_7
REMARK    7  A    between atoms: C_7  and  C_8
REMARK    8  A    between atoms: N_13  and  C_14
REMARK    9  A    between atoms: C_14  and  C_15
REMARK                            x       y       z     vdW  Elec       q    Type
REMARK                         _______ _______ _______ _____ _____    ______ ____
ROOT
ATOM      1  C   UNL     1       3.095   7.250  18.303  0.00  0.00    +0.000 C 
ATOM      2  O   UNL     1       3.789   8.173  17.877  0.00  0.00    +0.000 OA
ATOM      3  N   UNL     1       3.526   5.905  18.312  0.00  0.00    +0.000 N 
ATOM      4  C   UNL     1       4.744   5.497  17.694  0.00  0.00    +0.000 A 
ATOM      5  C   UNL     1       5.906   6.276  17.832  0.00  0.00    +0.000 A 
ATOM      6  C   UNL     1       7.092   5.924  17.185  0.00  0.00    +0.000 A 
ATOM      7  C   UNL     1       7.124   4.809  16.357  0.00  0.00    +0.000 A 
ATOM      8  C   UNL     1       5.973   4.040  16.185  0.00  0.00    +0.000 A 
ATOM      9  C   UNL     1       4.793   4.353  16.876  0.00  0.00    +0.000 A 
ATOM     10  N   UNL     1       3.687   3.526  16.624  0.00  0.00    +0.000 N 
ATOM     11  C   UNL     1       2.617   3.238  17.428  0.00  0.00    +0.000 C 
ATOM     12  O   UNL     1       1.738   2.482  17.022  0.00  0.00    +0.000 OA
ATOM     13  C   UNL     1       2.597   3.687  18.837  0.00  0.00    +0.000 A 
ATOM     14  C   UNL     1       2.062   2.801  19.788  0.00  0.00    +0.000 A 
ATOM     15  C   UNL     1       1.986   3.160  21.134  0.00  0.00    +0.000 A 
ATOM     16  C   UNL     1       2.437   4.410  21.541  0.00  0.00    +0.000 A 
ATOM     17  C   UNL     1       2.955   5.299  20.599  0.00  0.00    +0.000 A 
ATOM     18  C   UNL     1       3.022   4.953  19.236  0.00  0.00    +0.000 A 
ATOM     19  H   UNL     1       3.708   2.947  15.794  0.00  0.00    +0.000 HD
ENDROOT
BRANCH   1  20
ATOM     20  C   UNL     1       1.616   7.436  18.767  0.00  0.00    +0.000 C 
BRANCH  20  26
ATOM     21  C   UNL     1       0.117   9.292  19.428  0.00  0.00    +0.000 C 
ATOM     22  C   UNL     1      -0.052  10.444  20.454  0.00  0.00    +0.000 C 
ATOM     23  C   UNL     1      -0.002   9.972  21.898  0.00  0.00    +0.000 C 
ATOM     24  C   UNL     1       1.243   9.146  22.134  0.00  0.00    +0.000 C 
ATOM     25  C   UNL     1       1.326   8.017  21.112  0.00  0.00    +0.000 C 
ATOM     26  N   UNL     1       1.382   8.546  19.731  0.00  0.00    +0.000 NA
BRANCH  21  27
ATOM     27  C   UNL     1       0.045   9.879  17.983  0.00  0.00    +0.000 C 
BRANCH  27  28
ATOM     28  C   UNL     1      -1.247  10.684  17.733  0.00  0.00    +0.000 C 
BRANCH  28  29
ATOM     29  N   UNL     1      -2.260  10.032  16.876  0.00  0.00    +0.000 NA
BRANCH  29  31
ATOM     30  C   UNL     1      -4.469  10.695  17.939  0.00  0.00    +0.000 C 
ATOM     31  C   UNL     1      -3.401   9.627  17.725  0.00  0.00    +0.000 C 
ENDBRANCH  29  31
BRANCH  29  32
ATOM     32  C   UNL     1      -2.651  10.844  15.711  0.00  0.00    +0.000 C 
ATOM     33  C   UNL     1      -3.124  10.074  14.480  0.00  0.00    +0.000 C 
ENDBRANCH  29  32
ENDBRANCH  28  29
ENDBRANCH  27  28
ENDBRANCH  21  27
ENDBRANCH  20  26
ENDBRANCH   1  20
TORSDOF 7
ENDMDL
MODEL 3
REMARK VINA RESULT:      -6.8      0.535      1.253
REMARK  Name = 
REMARK  9 active torsions:
REMARK  status: ('A' for Active; 'I' for Inactive)
REMARK    1  A    between atoms: C_1  and  C_2
REMARK    2  A    between atoms: C_2  and  N_3
REMARK    3  A    between atoms: N_3  and  C_4
REMARK    4  A    between atoms: N_3  and  C_6
REMARK    5  A    between atoms: C_4  and  C_5
REMARK    6  A    between atoms: C_6  and  C_7
REMARK    7  A    between atoms: C_7  and  C_8
REMARK    8  A    between atoms: N_13  and  C_14
REMARK    9  A    between atoms: C_14  and  C_15
REMARK                            x       y       z     vdW  Elec       q    Type
REMARK                         _______ _______ _______ _____ _____    ______ ____
ROOT
ATOM      1  C   UNL     1      -1.508  10.953  17.986  0.00  0.00    +0.000 C 
ATOM      2  O   UNL     1      -1.604  10.082  17.122  0.00  0.00    +0.000 OA
ATOM      3  N   UNL     1      -0.470  10.976  18.944  0.00  0.00    +0.000 N 
ATOM      4  C   UNL     1       0.466   9.908  19.069  0.00  0.00    +0.000 A 
ATOM      5  C   UNL     1       1.010   9.302  17.924  0.00  0.00    +0.000 A 
ATOM      6  C   UNL     1       1.881   8.217  18.026  0.00  0.00    +0.000 A 
ATOM      7  C   UNL     1       2.192   7.694  19.276  0.00  0.00    +0.000 A 
ATOM      8  C   UNL     1       1.639   8.264  20.422  0.00  0.00    +0.000 A 
ATOM      9  C   UNL     1       0.808   9.391  20.332  0.00  0.00    +0.000 A 
ATOM     10  N   UNL     1       0.292   9.881  21.542  0.00  0.00    +0.000 N 
ATOM     11  C   UNL     1      -0.100  11.152  21.868  0.00  0.00    +0.000 C 
ATOM     12  O   UNL     1      -0.533  11.384  22.994  0.00  0.00    +0.000 OA
ATOM     13  C   UNL     1       0.153  12.274  20.939  0.00  0.00    +0.000 A 
ATOM     14  C   UNL     1       0.541  13.502  21.504  0.00  0.00    +0.000 A 
ATOM     15  C   UNL     1       0.775  14.616  20.697  0.00  0.00    +0.000 A 
ATOM     16  C   UNL     1       0.618  14.515  19.319  0.00  0.00    +0.000 A 
ATOM     17  C   UNL     1       0.220  13.303  18.756  0.00  0.00    +0.000 A 
ATOM     18  C   UNL     1      -0.035  12.177  19.562  0.00  0.00    +0.000 A 
ATOM     19  H   UNL     1       0.314   9.269  22.349  0.00  0.00    +0.000 HD
ENDROOT
BRANCH   1  20
ATOM     20  C   UNL     1      -2.586  12.062  18.206  0.00  0.00    +0.000 C 
BRANCH  20  26
ATOM     21  C   UNL     1      -4.394  12.543  19.828  0.00  0.00    +0.000 C 
ATOM     22  C   UNL     1      -5.722  11.985  20.406  0.00  0.00    +0.000 C 
ATOM     23  C   UNL     1      -6.761  11.688  19.338  0.00  0.00    +0.000 C 
ATOM     24  C   UNL     1      -6.167  10.806  18.262  0.00  0.00    +0.000 C 
ATOM     25  C   UNL     1      -4.886  11.430  17.720  0.00  0.00    +0.000 C 
ATOM     26  N   UNL     1      -3.874  11.595  18.789  0.00  0.00    +0.000 NA
BRANCH  21  27
ATOM     27  C   UNL     1      -3.401  12.819  21.001  0.00  0.00    +0.000 C 
BRANCH  27  28
ATOM     28  C   UNL     1      -4.102  13.395  22.248  0.00  0.00    +0.000 C 
BRANCH  28  29
ATOM     29  N   UNL     1      -3.522  13.009  23.552  0.00  0.00    +0.000 NA
BRANCH  29  31
ATOM     30  C   UNL     1      -3.297  15.536  23.667  0.00  0.00    +0.000 C 
ATOM     31  C   UNL     1      -2.781  14.166  24.097  0.00  0.00    +0.000 C 
ENDBRANCH  29  31
BRANCH  29  32
ATOM     32  C   UNL     1      -4.512  12.450  24.490  0.00  0.00    +0.000 C 
ATOM     33  C   UNL     1      -5.978  12.733  24.171  0.00  0.00    +0.000 C 
ENDBRANCH  29  32
ENDBRANCH  28  29
ENDBRANCH  27  28
ENDBRANCH  21  27
ENDBRANCH  20  26
ENDBRANCH   1  20
TORSDOF 7
ENDMDL
MODEL 4
REMARK VINA RESULT:      -6.7      4.034      7.703
REMARK  Name = 
REMARK  9 active torsions:
REMARK  status: ('A' for Active; 'I' for Inactive)
REMARK    1  A    between atoms: C_1  and  C_2
REMARK    2  A    between atoms: C_2  and  N_3
REMARK    3  A    between atoms: N_3  and  C_4
REMARK    4  A    between atoms: N_3  and  C_6
REMARK    5  A    between atoms: C_4  and  C_5
REMARK    6  A    between atoms: C_6  and  C_7
REMARK    7  A    between atoms: C_7  and  C_8
REMARK    8  A    between atoms: N_13  and  C_14
REMARK    9  A    between atoms: C_14  and  C_15
REMARK                            x       y       z     vdW  Elec       q    Type
REMARK                         _______ _______ _______ _____ _____    ______ ____
ROOT
ATOM      1  C   UNL     1       3.032   7.393  18.210  0.00  0.00    +0.000 C 
ATOM      2  O   UNL     1       3.715   8.321  17.777  0.00  0.00    +0.000 OA
ATOM      3  N   UNL     1       3.480   6.053  18.233  0.00  0.00    +0.000 N 
ATOM      4  C   UNL     1       4.705   5.655  17.622  0.00  0.00    +0.000 A 
ATOM      5  C   UNL     1       5.856   6.449  17.757  0.00  0.00    +0.000 A 
ATOM      6  C   UNL     1       7.048   6.106  17.117  0.00  0.00    +0.000 A 
ATOM      7  C   UNL     1       7.097   4.984  16.300  0.00  0.00    +0.000 A 
ATOM      8  C   UNL     1       5.957   4.199  16.132  0.00  0.00    +0.000 A 
ATOM      9  C   UNL     1       4.771   4.504  16.816  0.00  0.00    +0.000 A 
ATOM     10  N   UNL     1       3.676   3.660  16.569  0.00  0.00    +0.000 N 
ATOM     11  C   UNL     1       2.607   3.366  17.372  0.00  0.00    +0.000 C 
ATOM     12  O   UNL     1       1.738   2.596  16.970  0.00  0.00    +0.000 OA
ATOM     13  C   UNL     1       2.577   3.829  18.776  0.00  0.00    +0.000 A 
ATOM     14  C   UNL     1       2.050   2.945  19.735  0.00  0.00    +0.000 A 
ATOM     15  C   UNL     1       1.965   3.316  21.077  0.00  0.00    +0.000 A 
ATOM     16  C   UNL     1       2.399   4.576  21.473  0.00  0.00    +0.000 A 
ATOM     17  C   UNL     1       2.909   5.462  20.524  0.00  0.00    +0.000 A 
ATOM     18  C   UNL     1       2.984   5.104  19.164  0.00  0.00    +0.000 A 
ATOM     19  H   UNL     1       3.707   3.073  15.745  0.00  0.00    +0.000 HD
ENDROOT
BRANCH   1  20
ATOM     20  C   UNL     1       1.549   7.565  18.667  0.00  0.00    +0.000 C 
BRANCH  20  26
ATOM     21  C   UNL     1      -0.003   9.378  19.326  0.00  0.00    +0.000 C 
ATOM     22  C   UNL     1      -0.190  10.546  20.331  0.00  0.00    +0.000 C 
ATOM     23  C   UNL     1      -0.088  10.107  21.782  0.00  0.00    +0.000 C 
ATOM     24  C   UNL     1       1.193   9.333  22.006  0.00  0.00    +0.000 C 
ATOM     25  C   UNL     1       1.293   8.186  21.006  0.00  0.00    +0.000 C 
ATOM     26  N   UNL     1       1.297   8.686  19.613  0.00  0.00    +0.000 NA
BRANCH  21  27
ATOM     27  C   UNL     1      -0.131   9.930  17.871  0.00  0.00    +0.000 C 
BRANCH  27  28
ATOM     28  C   UNL     1      -1.577   9.873  17.340  0.00  0.00    +0.000 C 
BRANCH  28  29
ATOM     29  N   UNL     1      -2.247  11.177  17.146  0.00  0.00    +0.000 NA
BRANCH  29  31
ATOM     30  C   UNL     1      -2.774   9.877  15.029  0.00  0.00    +0.000 C 
ATOM     31  C   UNL     1      -2.937  11.159  15.839  0.00  0.00    +0.000 C 
ENDBRANCH  29  31
BRANCH  29  32
ATOM     32  C   UNL     1      -3.122  11.558  18.269  0.00  0.00    +0.000 C 
ATOM     33  C   UNL     1      -4.602  11.215  18.116  0.00  0.00    +0.000 C 
ENDBRANCH  29  32
ENDBRANCH  28  29
ENDBRANCH  27  28
ENDBRANCH  21  27
ENDBRANCH  20  26
ENDBRANCH   1  20
TORSDOF 7
ENDMDL
MODEL 5
REMARK VINA RESULT:      -6.7      0.666      1.134
REMARK  Name = 
REMARK  9 active torsions:
REMARK  status: ('A' for Active; 'I' for Inactive)
REMARK    1  A    between atoms: C_1  and  C_2
REMARK    2  A    between atoms: C_2  and  N_3
REMARK    3  A    between atoms: N_3  and  C_4
REMARK    4  A    between atoms: N_3  and  C_6
REMARK    5  A    between atoms: C_4  and  C_5
REMARK    6  A    between atoms: C_6  and  C_7
REMARK    7  A    between atoms: C_7  and  C_8
REMARK    8  A    between atoms: N_13  and  C_14
REMARK    9  A    between atoms: C_14  and  C_15
REMARK                            x       y       z     vdW  Elec       q    Type
REMARK                         _______ _______ _______ _____ _____    ______ ____
ROOT
ATOM      1  C   UNL     1      -1.489  10.959  17.996  0.00  0.00    +0.000 C 
ATOM      2  O   UNL     1      -1.582  10.082  17.138  0.00  0.00    +0.000 OA
ATOM      3  N   UNL     1      -0.459  10.984  18.963  0.00  0.00    +0.000 N 
ATOM      4  C   UNL     1       0.471   9.913  19.105  0.00  0.00    +0.000 A 
ATOM      5  C   UNL     1       1.021   9.295  17.969  0.00  0.00    +0.000 A 
ATOM      6  C   UNL     1       1.886   8.207  18.088  0.00  0.00    +0.000 A 
ATOM      7  C   UNL     1       2.183   7.692  19.344  0.00  0.00    +0.000 A 
ATOM      8  C   UNL     1       1.623   8.274  20.481  0.00  0.00    +0.000 A 
ATOM      9  C   UNL     1       0.799   9.404  20.374  0.00  0.00    +0.000 A 
ATOM     10  N   UNL     1       0.274   9.905  21.576  0.00  0.00    +0.000 N 
ATOM     11  C   UNL     1      -0.115  11.181  21.889  0.00  0.00    +0.000 C 
ATOM     12  O   UNL     1      -0.556  11.424  23.010  0.00  0.00    +0.000 OA
ATOM     13  C   UNL     1       0.153  12.295  20.954  0.00  0.00    +0.000 A 
ATOM     14  C   UNL     1       0.541  13.525  21.513  0.00  0.00    +0.000 A 
ATOM     15  C   UNL     1       0.788  14.631  20.699  0.00  0.00    +0.000 A 
ATOM     16  C   UNL     1       0.643  14.520  19.321  0.00  0.00    +0.000 A 
ATOM     17  C   UNL     1       0.244  13.306  18.764  0.00  0.00    +0.000 A 
ATOM     18  C   UNL     1      -0.024  12.188  19.576  0.00  0.00    +0.000 A 
ATOM     19  H   UNL     1       0.286   9.300  22.388  0.00  0.00    +0.000 HD
ENDROOT
BRANCH   1  20
ATOM     20  C   UNL     1      -2.563  12.075  18.198  0.00  0.00    +0.000 C 
BRANCH  20  26
ATOM     21  C   UNL     1      -4.395  12.545  19.796  0.00  0.00    +0.000 C 
ATOM     22  C   UNL     1      -5.742  11.994  20.335  0.00  0.00    +0.000 C 
ATOM     23  C   UNL     1      -6.764  11.738  19.240  0.00  0.00    +0.000 C 
ATOM     24  C   UNL     1      -6.162  10.872  18.155  0.00  0.00    +0.000 C 
ATOM     25  C   UNL     1      -4.862  11.489  17.653  0.00  0.00    +0.000 C 
ATOM     26  N   UNL     1      -3.869  11.614  18.745  0.00  0.00    +0.000 NA
BRANCH  21  27
ATOM     27  C   UNL     1      -3.422  12.779  20.994  0.00  0.00    +0.000 C 
BRANCH  27  28
ATOM     28  C   UNL     1      -3.630  14.150  21.669  0.00  0.00    +0.000 C 
BRANCH  28  29
ATOM     29  N   UNL     1      -4.502  14.157  22.863  0.00  0.00    +0.000 NA
BRANCH  29  31
ATOM     30  C   UNL     1      -4.378  12.434  24.725  0.00  0.00    +0.000 C 
ATOM     31  C   UNL     1      -3.736  13.615  24.006  0.00  0.00    +0.000 C 
ENDBRANCH  29  31
BRANCH  29  32
ATOM     32  C   UNL     1      -5.113  15.470  23.134  0.00  0.00    +0.000 C 
ATOM     33  C   UNL     1      -6.473  15.450  23.828  0.00  0.00    +0.000 C 
ENDBRANCH  29  32
ENDBRANCH  28  29
ENDBRANCH  27  28
ENDBRANCH  21  27
ENDBRANCH  20  26
ENDBRANCH   1  20
TORSDOF 7
ENDMDL
MODEL 6
REMARK VINA RESULT:      -6.6      0.998      1.234
REMARK  Name = 
REMARK  9 active torsions:
REMARK  status: ('A' for Active; 'I' for Inactive)
REMARK    1  A    between atoms: C_1  and  C_2
REMARK    2  A    between atoms: C_2  and  N_3
REMARK    3  A    between atoms: N_3  and  C_4
REMARK    4  A    between atoms: N_3  and  C_6
REMARK    5  A    between atoms: C_4  and  C_5
REMARK    6  A    between atoms: C_6  and  C_7
REMARK    7  A    between atoms: C_7  and  C_8
REMARK    8  A    between atoms: N_13  and  C_14
REMARK    9  A    between atoms: C_14  and  C_15
REMARK                            x       y       z     vdW  Elec       q    Type
REMARK                         _______ _______ _______ _____ _____    ______ ____
ROOT
ATOM      1  C   UNL     1      -1.902  11.148  18.149  0.00  0.00    +0.000 C 
ATOM      2  O   UNL     1      -1.848  10.384  17.186  0.00  0.00    +0.000 OA
ATOM      3  N   UNL     1      -0.953  11.134  19.197  0.00  0.00    +0.000 N 
ATOM      4  C   UNL     1       0.058  10.133  19.287  0.00  0.00    +0.000 A 
ATOM      5  C   UNL     1       0.747   9.714  18.136  0.00  0.00    +0.000 A 
ATOM      6  C   UNL     1       1.698   8.694  18.196  0.00  0.00    +0.000 A 
ATOM      7  C   UNL     1       1.946   8.049  19.401  0.00  0.00    +0.000 A 
ATOM      8  C   UNL     1       1.251   8.432  20.548  0.00  0.00    +0.000 A 
ATOM      9  C   UNL     1       0.336   9.494  20.509  0.00  0.00    +0.000 A 
ATOM     10  N   UNL     1      -0.321   9.793  21.713  0.00  0.00    +0.000 N 
ATOM     11  C   UNL     1      -0.848  10.981  22.144  0.00  0.00    +0.000 C 
ATOM     12  O   UNL     1      -1.393  11.041  23.244  0.00  0.00    +0.000 OA
ATOM     13  C   UNL     1      -0.616  12.224  21.377  0.00  0.00    +0.000 A 
ATOM     14  C   UNL     1      -0.386  13.401  22.111  0.00  0.00    +0.000 A 
ATOM     15  C   UNL     1      -0.182  14.618  21.462  0.00  0.00    +0.000 A 
ATOM     16  C   UNL     1      -0.213  14.673  20.074  0.00  0.00    +0.000 A 
ATOM     17  C   UNL     1      -0.455  13.512  19.341  0.00  0.00    +0.000 A 
ATOM     18  C   UNL     1      -0.678  12.280  19.986  0.00  0.00    +0.000 A 
ATOM     19  H   UNL     1      -0.314   9.091  22.443  0.00  0.00    +0.000 HD
ENDROOT
BRANCH   1  20
ATOM     20  C   UNL     1      -3.086  12.136  18.392  0.00  0.00    +0.000 C 
BRANCH  20  26
ATOM     21  C   UNL     1      -4.991  12.569  19.913  0.00  0.00    +0.000 C 
ATOM     22  C   UNL     1      -6.202  11.891  20.607  0.00  0.00    +0.000 C 
ATOM     23  C   UNL     1      -7.140  11.199  19.632  0.00  0.00    +0.000 C 
ATOM     24  C   UNL     1      -6.363  10.254  18.741  0.00  0.00    +0.000 C 
ATOM     25  C   UNL     1      -5.211  10.994  18.070  0.00  0.00    +0.000 C 
ATOM     26  N   UNL     1      -4.276  11.554  19.072  0.00  0.00    +0.000 NA
BRANCH  21  27
ATOM     27  C   UNL     1      -4.098  13.253  20.996  0.00  0.00    +0.000 C 
BRANCH  27  28
ATOM     28  C   UNL     1      -4.917  13.796  22.184  0.00  0.00    +0.000 C 
BRANCH  28  29
ATOM     29  N   UNL     1      -4.150  14.516  23.223  0.00  0.00    +0.000 NA
BRANCH  29  31
ATOM     30  C   UNL     1      -4.356  16.468  24.835  0.00  0.00    +0.000 C 
ATOM     31  C   UNL     1      -5.027  15.545  23.823  0.00  0.00    +0.000 C 
ENDBRANCH  29  31
BRANCH  29  32
ATOM     32  C   UNL     1      -3.526  13.623  24.214  0.00  0.00    +0.000 C 
ATOM     33  C   UNL     1      -4.368  12.438  24.679  0.00  0.00    +0.000 C 
ENDBRANCH  29  32
ENDBRANCH  28  29
ENDBRANCH  27  28
ENDBRANCH  21  27
ENDBRANCH  20  26
ENDBRANCH   1  20
TORSDOF 7
ENDMDL
MODEL 7
REMARK VINA RESULT:      -6.5      0.794      1.156
REMARK  Name = 
REMARK  9 active torsions:
REMARK  status: ('A' for Active; 'I' for Inactive)
REMARK    1  A    between atoms: C_1  and  C_2
REMARK    2  A    between atoms: C_2  and  N_3
REMARK    3  A    between atoms: N_3  and  C_4
REMARK    4  A    between atoms: N_3  and  C_6
REMARK    5  A    between atoms: C_4  and  C_5
REMARK    6  A    between atoms: C_6  and  C_7
REMARK    7  A    between atoms: C_7  and  C_8
REMARK    8  A    between atoms: N_13  and  C_14
REMARK    9  A    between atoms: C_14  and  C_15
REMARK                            x       y       z     vdW  Elec       q    Type
REMARK                         _______ _______ _______ _____ _____    ______ ____
ROOT
ATOM      1  C   UNL     1      -1.535  10.855  17.984  0.00  0.00    +0.000 C 
ATOM      2  O   UNL     1      -1.577   9.968  17.130  0.00  0.00    +0.000 OA
ATOM      3  N   UNL     1      -0.539  10.913  18.984  0.00  0.00    +0.000 N 
ATOM      4  C   UNL     1       0.412   9.867  19.167  0.00  0.00    +0.000 A 
ATOM      5  C   UNL     1       1.016   9.254  18.056  0.00  0.00    +0.000 A 
ATOM      6  C   UNL     1       1.903   8.189  18.213  0.00  0.00    +0.000 A 
ATOM      7  C   UNL     1       2.170   7.692  19.483  0.00  0.00    +0.000 A 
ATOM      8  C   UNL     1       1.558   8.269  20.595  0.00  0.00    +0.000 A 
ATOM      9  C   UNL     1       0.710   9.377  20.451  0.00  0.00    +0.000 A 
ATOM     10  N   UNL     1       0.133   9.875  21.630  0.00  0.00    +0.000 N 
ATOM     11  C   UNL     1      -0.298  11.143  21.918  0.00  0.00    +0.000 C 
ATOM     12  O   UNL     1      -0.783  11.384  23.021  0.00  0.00    +0.000 OA
ATOM     13  C   UNL     1      -0.027  12.255  20.982  0.00  0.00    +0.000 A 
ATOM     14  C   UNL     1       0.312  13.500  21.542  0.00  0.00    +0.000 A 
ATOM     15  C   UNL     1       0.558  14.605  20.728  0.00  0.00    +0.000 A 
ATOM     16  C   UNL     1       0.462  14.479  19.347  0.00  0.00    +0.000 A 
ATOM     17  C   UNL     1       0.112  13.250  18.787  0.00  0.00    +0.000 A 
ATOM     18  C   UNL     1      -0.155  12.132  19.600  0.00  0.00    +0.000 A 
ATOM     19  H   UNL     1       0.133   9.277  22.447  0.00  0.00    +0.000 HD
ENDROOT
BRANCH   1  20
ATOM     20  C   UNL     1      -2.643  11.944  18.139  0.00  0.00    +0.000 C 
BRANCH  20  26
ATOM     21  C   UNL     1      -4.428  12.568  19.737  0.00  0.00    +0.000 C 
ATOM     22  C   UNL     1      -5.702  12.033  20.444  0.00  0.00    +0.000 C 
ATOM     23  C   UNL     1      -6.752  11.517  19.473  0.00  0.00    +0.000 C 
ATOM     24  C   UNL     1      -6.136  10.514  18.523  0.00  0.00    +0.000 C 
ATOM     25  C   UNL     1      -4.912  11.117  17.844  0.00  0.00    +0.000 C 
ATOM     26  N   UNL     1      -3.882  11.501  18.835  0.00  0.00    +0.000 NA
BRANCH  21  27
ATOM     27  C   UNL     1      -3.421  13.077  20.815  0.00  0.00    +0.000 C 
BRANCH  27  28
ATOM     28  C   UNL     1      -4.068  13.232  22.206  0.00  0.00    +0.000 C 
BRANCH  28  29
ATOM     29  N   UNL     1      -3.861  14.534  22.876  0.00  0.00    +0.000 NA
BRANCH  29  31
ATOM     30  C   UNL     1      -2.967  14.767  25.241  0.00  0.00    +0.000 C 
ATOM     31  C   UNL     1      -2.699  14.414  23.782  0.00  0.00    +0.000 C 
ENDBRANCH  29  31
BRANCH  29  32
ATOM     32  C   UNL     1      -3.762  15.665  21.937  0.00  0.00    +0.000 C 
ATOM     33  C   UNL     1      -2.457  16.457  21.970  0.00  0.00    +0.000 C 
ENDBRANCH  29  32
ENDBRANCH  28  29
ENDBRANCH  27  28
ENDBRANCH  21  27
ENDBRANCH  20  26
ENDBRANCH   1  20
TORSDOF 7
ENDMDL
MODEL 8
REMARK VINA RESULT:      -6.4      0.787      1.289
REMARK  Name = 
REMARK  9 active torsions:
REMARK  status: ('A' for Active; 'I' for Inactive)
REMARK    1  A    between atoms: C_1  and  C_2
REMARK    2  A    between atoms: C_2  and  N_3
REMARK    3  A    between atoms: N_3  and  C_4
REMARK    4  A    between atoms: N_3  and  C_6
REMARK    5  A    between atoms: C_4  and  C_5
REMARK    6  A    between atoms: C_6  and  C_7
REMARK    7  A    between atoms: C_7  and  C_8
REMARK    8  A    between atoms: N_13  and  C_14
REMARK    9  A    between atoms: C_14  and  C_15
REMARK                            x       y       z     vdW  Elec       q    Type
REMARK                         _______ _______ _______ _____ _____    ______ ____
ROOT
ATOM      1  C   UNL     1      -1.390  10.821  17.894  0.00  0.00    +0.000 C 
ATOM      2  O   UNL     1      -1.480   9.926  17.053  0.00  0.00    +0.000 OA
ATOM      3  N   UNL     1      -0.365  10.864  18.865  0.00  0.00    +0.000 N 
ATOM      4  C   UNL     1       0.562   9.795  19.034  0.00  0.00    +0.000 A 
ATOM      5  C   UNL     1       1.118   9.153  17.914  0.00  0.00    +0.000 A 
ATOM      6  C   UNL     1       1.981   8.066  18.060  0.00  0.00    +0.000 A 
ATOM      7  C   UNL     1       2.270   7.577  19.328  0.00  0.00    +0.000 A 
ATOM      8  C   UNL     1       1.706   8.183  20.449  0.00  0.00    +0.000 A 
ATOM      9  C   UNL     1       0.883   9.312  20.315  0.00  0.00    +0.000 A 
ATOM     10  N   UNL     1       0.353   9.839  21.504  0.00  0.00    +0.000 N 
ATOM     11  C   UNL     1      -0.035  11.122  21.788  0.00  0.00    +0.000 C 
ATOM     12  O   UNL     1      -0.482  11.388  22.901  0.00  0.00    +0.000 OA
ATOM     13  C   UNL     1       0.238  12.215  20.831  0.00  0.00    +0.000 A 
ATOM     14  C   UNL     1       0.626  13.457  21.366  0.00  0.00    +0.000 A 
ATOM     15  C   UNL     1       0.878  14.545  20.531  0.00  0.00    +0.000 A 
ATOM     16  C   UNL     1       0.740  14.406  19.155  0.00  0.00    +0.000 A 
ATOM     17  C   UNL     1       0.342  13.180  18.621  0.00  0.00    +0.000 A 
ATOM     18  C   UNL     1       0.068  12.080  19.455  0.00  0.00    +0.000 A 
ATOM     19  H   UNL     1       0.360   9.251  22.328  0.00  0.00    +0.000 HD
ENDROOT
BRANCH   1  20
ATOM     20  C   UNL     1      -2.464  11.941  18.067  0.00  0.00    +0.000 C 
BRANCH  20  26
ATOM     21  C   UNL     1      -4.169  12.644  19.718  0.00  0.00    +0.000 C 
ATOM     22  C   UNL     1      -5.429  12.157  20.484  0.00  0.00    +0.000 C 
ATOM     23  C   UNL     1      -6.528  11.650  19.566  0.00  0.00    +0.000 C 
ATOM     24  C   UNL     1      -5.976  10.612  18.613  0.00  0.00    +0.000 C 
ATOM     25  C   UNL     1      -4.764  11.170  17.875  0.00  0.00    +0.000 C 
ATOM     26  N   UNL     1      -3.686  11.545  18.818  0.00  0.00    +0.000 NA
BRANCH  21  27
ATOM     27  C   UNL     1      -3.108  13.147  20.747  0.00  0.00    +0.000 C 
BRANCH  27  28
ATOM     28  C   UNL     1      -3.697  13.346  22.158  0.00  0.00    +0.000 C 
BRANCH  28  29
ATOM     29  N   UNL     1      -3.112  14.446  22.954  0.00  0.00    +0.000 NA
BRANCH  29  31
ATOM     30  C   UNL     1      -1.771  16.494  22.278  0.00  0.00    +0.000 C 
ATOM     31  C   UNL     1      -3.027  15.649  22.098  0.00  0.00    +0.000 C 
ENDBRANCH  29  31
BRANCH  29  32
ATOM     32  C   UNL     1      -3.810  14.680  24.230  0.00  0.00    +0.000 C 
ATOM     33  C   UNL     1      -2.924  14.953  25.443  0.00  0.00    +0.000 C 
ENDBRANCH  29  32
ENDBRANCH  28  29
ENDBRANCH  27  28
ENDBRANCH  21  27
ENDBRANCH  20  26
ENDBRANCH   1  20
TORSDOF 7
ENDMDL
MODEL 9
REMARK VINA RESULT:      -6.4      1.934      5.344
REMARK  Name = 
REMARK  9 active torsions:
REMARK  status: ('A' for Active; 'I' for Inactive)
REMARK    1  A    between atoms: C_1  and  C_2
REMARK    2  A    between atoms: C_2  and  N_3
REMARK    3  A    between atoms: N_3  and  C_4
REMARK    4  A    between atoms: N_3  and  C_6
REMARK    5  A    between atoms: C_4  and  C_5
REMARK    6  A    between atoms: C_6  and  C_7
REMARK    7  A    between atoms: C_7  and  C_8
REMARK    8  A    between atoms: N_13  and  C_14
REMARK    9  A    between atoms: C_14  and  C_15
REMARK                            x       y       z     vdW  Elec       q    Type
REMARK                         _______ _______ _______ _____ _____    ______ ____
ROOT
ATOM      1  C   UNL     1      -1.474  13.360  20.154  0.00  0.00    +0.000 C 
ATOM      2  O   UNL     1      -1.624  14.580  20.077  0.00  0.00    +0.000 OA
ATOM      3  N   UNL     1      -0.209  12.735  20.098  0.00  0.00    +0.000 N 
ATOM      4  C   UNL     1       0.982  13.462  19.804  0.00  0.00    +0.000 A 
ATOM      5  C   UNL     1       1.201  14.727  20.375  0.00  0.00    +0.000 A 
ATOM      6  C   UNL     1       2.331  15.479  20.053  0.00  0.00    +0.000 A 
ATOM      7  C   UNL     1       3.242  14.994  19.121  0.00  0.00    +0.000 A 
ATOM      8  C   UNL     1       3.026  13.754  18.522  0.00  0.00    +0.000 A 
ATOM      9  C   UNL     1       1.923  12.967  18.884  0.00  0.00    +0.000 A 
ATOM     10  N   UNL     1       1.788  11.740  18.213  0.00  0.00    +0.000 N 
ATOM     11  C   UNL     1       1.183  10.584  18.629  0.00  0.00    +0.000 C 
ATOM     12  O   UNL     1       1.167   9.606  17.886  0.00  0.00    +0.000 OA
ATOM     13  C   UNL     1       0.703  10.451  20.021  0.00  0.00    +0.000 A 
ATOM     14  C   UNL     1       0.881   9.204  20.647  0.00  0.00    +0.000 A 
ATOM     15  C   UNL     1       0.435   8.990  21.950  0.00  0.00    +0.000 A 
ATOM     16  C   UNL     1      -0.200  10.017  22.639  0.00  0.00    +0.000 A 
ATOM     17  C   UNL     1      -0.393  11.251  22.018  0.00  0.00    +0.000 A 
ATOM     18  C   UNL     1       0.040  11.473  20.697  0.00  0.00    +0.000 A 
ATOM     19  H   UNL     1       2.304  11.613  17.351  0.00  0.00    +0.000 HD
ENDROOT
BRANCH   1  20
ATOM     20  C   UNL     1      -2.668  12.355  20.196  0.00  0.00    +0.000 C 
BRANCH  20  26
ATOM     21  C   UNL     1      -5.125  12.321  19.897  0.00  0.00    +0.000 C 
ATOM     22  C   UNL     1      -6.444  12.975  20.391  0.00  0.00    +0.000 C 
ATOM     23  C   UNL     1      -6.627  12.888  21.897  0.00  0.00    +0.000 C 
ATOM     24  C   UNL     1      -5.400  13.421  22.604  0.00  0.00    +0.000 C 
ATOM     25  C   UNL     1      -4.151  12.713  22.092  0.00  0.00    +0.000 C 
ATOM     26  N   UNL     1      -3.970  12.925  20.638  0.00  0.00    +0.000 NA
BRANCH  21  27
ATOM     27  C   UNL     1      -5.037  12.459  18.344  0.00  0.00    +0.000 C 
BRANCH  27  28
ATOM     28  C   UNL     1      -4.586  11.154  17.658  0.00  0.00    +0.000 C 
BRANCH  28  29
ATOM     29  N   UNL     1      -3.614  11.306  16.554  0.00  0.00    +0.000 NA
BRANCH  29  31
ATOM     30  C   UNL     1      -2.328   9.657  17.996  0.00  0.00    +0.000 C 
ATOM     31  C   UNL     1      -2.294  10.831  17.023  0.00  0.00    +0.000 C 
ENDBRANCH  29  31
BRANCH  29  32
ATOM     32  C   UNL     1      -4.053  10.676  15.297  0.00  0.00    +0.000 C 
ATOM     33  C   UNL     1      -2.955  10.063  14.430  0.00  0.00    +0.000 C 
ENDBRANCH  29  32
ENDBRANCH  28  29
ENDBRANCH  27  28
ENDBRANCH  21  27
ENDBRANCH  20  26
ENDBRANCH   1  20
TORSDOF 7
ENDMDL
