MODEL 1
REMARK VINA RESULT:      -8.1      0.000      0.000
REMARK  Name = 
REMARK  9 active torsions:
REMARK  status: ('A' for Active; 'I' for Inactive)
REMARK    1  A    between atoms: C_1  and  N_2
REMARK    2  A    between atoms: N_2  and  C_3
REMARK    3  A    between atoms: C_3  and  C_4
REMARK    4  A    between atoms: N_6  and  C_7
REMARK    5  A    between atoms: C_14  and  C_16
REMARK    6  A    between atoms: C_16  and  O_17
REMARK    7  A    between atoms: O_17  and  C_18
REMARK    8  A    between atoms: C_18  and  C_20
REMARK    9  A    between atoms: C_20  and  N_21
REMARK                            x       y       z     vdW  Elec       q    Type
REMARK                         _______ _______ _______ _____ _____    ______ ____
ROOT
ATOM      1  C   UNL     1       1.293   6.013  20.965  0.00  0.00    +0.000 C 
ENDROOT
BRANCH   1   4
ATOM      2  C   UNL     1       1.320   9.748  20.027  0.00  0.00    +0.000 C 
ATOM      3  N   UNL     1       1.001   8.522  20.751  0.00  0.00    +0.000 N 
ATOM      4  C   UNL     1       1.662   7.367  20.333  0.00  0.00    +0.000 C 
ATOM      5  O   UNL     1       2.539   7.423  19.458  0.00  0.00    +0.000 OA
BRANCH   3   6
ATOM      6  C   UNL     1      -0.159   8.552  21.648  0.00  0.00    +0.000 C 
BRANCH   6   7
ATOM      7  C   UNL     1      -0.372   9.826  22.478  0.00  0.00    +0.000 C 
ATOM      8  O   UNL     1       0.134   9.902  23.599  0.00  0.00    +0.000 OA
ATOM      9  N   UNL     1      -1.236  10.774  21.950  0.00  0.00    +0.000 N 
ATOM     10  H   UNL     1      -1.910  10.431  21.275  0.00  0.00    +0.000 HD
BRANCH   9  11
ATOM     11  C   UNL     1      -1.572  11.931  22.689  0.00  0.00    +0.000 A 
ATOM     12  C   UNL     1      -2.781  12.011  23.395  0.00  0.00    +0.000 A 
ATOM     13  C   UNL     1      -3.148  13.195  24.037  0.00  0.00    +0.000 A 
ATOM     14  C   UNL     1      -2.314  14.301  23.952  0.00  0.00    +0.000 A 
ATOM     15  F   UNL     1      -2.688  15.456  24.517  0.00  0.00    +0.000 F 
ATOM     16  C   UNL     1      -1.097  14.228  23.281  0.00  0.00    +0.000 A 
ATOM     17  C   UNL     1      -0.707  13.028  22.675  0.00  0.00    +0.000 A 
ENDBRANCH   9  11
ENDBRANCH   6   7
ENDBRANCH   3   6
ENDBRANCH   1   4
BRANCH   1  18
ATOM     18  O   UNL     1       2.447   5.179  21.129  0.00  0.00    +0.000 OA
BRANCH  18  19
ATOM     19  C   UNL     1       2.154   3.849  21.194  0.00  0.00    +0.000 C 
ATOM     20  O   UNL     1       1.991   3.233  22.240  0.00  0.00    +0.000 OA
BRANCH  19  21
ATOM     21  C   UNL     1       2.143   3.217  19.811  0.00  0.00    +0.000 C 
BRANCH  21  22
ATOM     22  N   UNL     1       3.387   3.512  19.135  0.00  0.00    +0.000 N 
ATOM     23  C   UNL     1       4.587   2.971  19.473  0.00  0.00    +0.000 C 
ATOM     24  O   UNL     1       4.816   2.176  20.369  0.00  0.00    +0.000 OA
ATOM     25  N   UNL     1       5.547   3.474  18.630  0.00  0.00    +0.000 N 
ATOM     26  C   UNL     1       5.018   4.438  17.701  0.00  0.00    +0.000 C 
ATOM     27  C   UNL     1       5.583   5.850  17.898  0.00  0.00    +0.000 C 
ATOM     28  C   UNL     1       6.172   6.241  16.543  0.00  0.00    +0.000 C 
ATOM     29  C   UNL     1       5.397   5.406  15.538  0.00  0.00    +0.000 C 
ATOM     30  C   UNL     1       5.261   4.061  16.242  0.00  0.00    +0.000 C 
ATOM     31  C   UNL     1       3.526   4.370  18.079  0.00  0.00    +0.000 C 
ATOM     32  O   UNL     1       2.630   4.994  17.533  0.00  0.00    +0.000 OA
ATOM     33  H   UNL     1       6.521   3.212  18.735  0.00  0.00    +0.000 HD
ENDBRANCH  21  22
ENDBRANCH  19  21
ENDBRANCH  18  19
ENDBRANCH   1  18
TORSDOF 8
ENDMDL
MODEL 2
REMARK VINA RESULT:      -7.9      1.739      2.311
REMARK  Name = 
REMARK  9 active torsions:
REMARK  status: ('A' for Active; 'I' for Inactive)
REMARK    1  A    between atoms: C_1  and  N_2
REMARK    2  A    between atoms: N_2  and  C_3
REMARK    3  A    between atoms: C_3  and  C_4
REMARK    4  A    between atoms: N_6  and  C_7
REMARK    5  A    between atoms: C_14  and  C_16
REMARK    6  A    between atoms: C_16  and  O_17
REMARK    7  A    between atoms: O_17  and  C_18
REMARK    8  A    between atoms: C_18  and  C_20
REMARK    9  A    between atoms: C_20  and  N_21
REMARK                            x       y       z     vdW  Elec       q    Type
REMARK                         _______ _______ _______ _____ _____    ______ ____
ROOT
ATOM      1  C   UNL     1       1.723   5.169  20.693  0.00  0.00    +0.000 C 
ENDROOT
BRANCH   1   4
ATOM      2  C   UNL     1       2.084   8.448  18.706  0.00  0.00    +0.000 C 
ATOM      3  N   UNL     1       2.034   7.538  19.845  0.00  0.00    +0.000 N 
ATOM      4  C   UNL     1       1.904   6.182  19.548  0.00  0.00    +0.000 C 
ATOM      5  O   UNL     1       1.930   5.787  18.373  0.00  0.00    +0.000 OA
BRANCH   3   6
ATOM      6  C   UNL     1       1.850   8.131  21.175  0.00  0.00    +0.000 C 
BRANCH   6   7
ATOM      7  C   UNL     1       0.571   8.947  21.408  0.00  0.00    +0.000 C 
ATOM      8  O   UNL     1      -0.487   8.353  21.625  0.00  0.00    +0.000 OA
ATOM      9  N   UNL     1       0.669  10.320  21.237  0.00  0.00    +0.000 N 
ATOM     10  H   UNL     1       1.433  10.639  20.651  0.00  0.00    +0.000 HD
BRANCH   9  11
ATOM     11  C   UNL     1      -0.478  11.140  21.330  0.00  0.00    +0.000 A 
ATOM     12  C   UNL     1      -1.037  11.461  22.575  0.00  0.00    +0.000 A 
ATOM     13  C   UNL     1      -2.228  12.186  22.650  0.00  0.00    +0.000 A 
ATOM     14  C   UNL     1      -2.865  12.570  21.478  0.00  0.00    +0.000 A 
ATOM     15  F   UNL     1      -4.037  13.215  21.543  0.00  0.00    +0.000 F 
ATOM     16  C   UNL     1      -2.306  12.285  20.236  0.00  0.00    +0.000 A 
ATOM     17  C   UNL     1      -1.090  11.597  20.160  0.00  0.00    +0.000 A 
ENDBRANCH   9  11
ENDBRANCH   6   7
ENDBRANCH   3   6
ENDBRANCH   1   4
BRANCH   1  18
ATOM     18  O   UNL     1       2.870   4.321  20.829  0.00  0.00    +0.000 OA
BRANCH  18  19
ATOM     19  C   UNL     1       2.611   3.008  20.567  0.00  0.00    +0.000 C 
ATOM     20  O   UNL     1       1.621   2.411  20.967  0.00  0.00    +0.000 OA
BRANCH  19  21
ATOM     21  C   UNL     1       3.750   2.365  19.790  0.00  0.00    +0.000 C 
BRANCH  21  22
ATOM     22  N   UNL     1       4.093   3.196  18.658  0.00  0.00    +0.000 N 
ATOM     23  C   UNL     1       3.400   3.217  17.488  0.00  0.00    +0.000 C 
ATOM     24  O   UNL     1       2.409   2.567  17.201  0.00  0.00    +0.000 OA
ATOM     25  N   UNL     1       4.004   4.110  16.638  0.00  0.00    +0.000 N 
ATOM     26  C   UNL     1       5.188   4.701  17.205  0.00  0.00    +0.000 C 
ATOM     27  C   UNL     1       6.473   4.333  16.452  0.00  0.00    +0.000 C 
ATOM     28  C   UNL     1       7.111   5.666  16.067  0.00  0.00    +0.000 C 
ATOM     29  C   UNL     1       6.583   6.650  17.099  0.00  0.00    +0.000 C 
ATOM     30  C   UNL     1       5.129   6.225  17.265  0.00  0.00    +0.000 C 
ATOM     31  C   UNL     1       5.151   4.060  18.605  0.00  0.00    +0.000 C 
ATOM     32  O   UNL     1       5.948   4.280  19.504  0.00  0.00    +0.000 OA
ATOM     33  H   UNL     1       3.651   4.255  15.698  0.00  0.00    +0.000 HD
ENDBRANCH  21  22
ENDBRANCH  19  21
ENDBRANCH  18  19
ENDBRANCH   1  18
TORSDOF 8
ENDMDL
MODEL 3
REMARK VINA RESULT:      -7.8      1.492      2.170
REMARK  Name = 
REMARK  9 active torsions:
REMARK  status: ('A' for Active; 'I' for Inactive)
REMARK    1  A    between atoms: C_1  and  N_2
REMARK    2  A    between atoms: N_2  and  C_3
REMARK    3  A    between atoms: C_3  and  C_4
REMARK    4  A    between atoms: N_6  and  C_7
REMARK    5  A    between atoms: C_14  and  C_16
REMARK    6  A    between atoms: C_16  and  O_17
REMARK    7  A    between atoms: O_17  and  C_18
REMARK    8  A    between atoms: C_18  and  C_20
REMARK    9  A    between atoms: C_20  and  N_21
REMARK                            x       y       z     vdW  Elec       q    Type
REMARK                         _______ _______ _______ _____ _____    ______ ____
ROOT
ATOM      1  C   UNL     1       2.349   5.665  20.791  0.00  0.00    +0.000 C 
ENDROOT
BRANCH   1   4
ATOM      2  C   UNL     1       1.523   9.059  19.169  0.00  0.00    +0.000 C 
ATOM      3  N   UNL     1       1.808   8.072  20.205  0.00  0.00    +0.000 N 
ATOM      4  C   UNL     1       2.151   6.793  19.764  0.00  0.00    +0.000 C 
ATOM      5  O   UNL     1       2.295   6.560  18.554  0.00  0.00    +0.000 OA
BRANCH   3   6
ATOM      6  C   UNL     1       1.451   8.419  21.584  0.00  0.00    +0.000 C 
BRANCH   6   7
ATOM      7  C   UNL     1       0.102   9.119  21.804  0.00  0.00    +0.000 C 
ATOM      8  O   UNL     1      -0.932   8.447  21.785  0.00  0.00    +0.000 OA
ATOM      9  N   UNL     1       0.126  10.503  21.893  0.00  0.00    +0.000 N 
ATOM     10  H   UNL     1       0.927  10.958  21.469  0.00  0.00    +0.000 HD
BRANCH   9  11
ATOM     11  C   UNL     1      -1.076  11.238  21.992  0.00  0.00    +0.000 A 
ATOM     12  C   UNL     1      -1.606  11.911  20.882  0.00  0.00    +0.000 A 
ATOM     13  C   UNL     1      -2.737  12.717  21.016  0.00  0.00    +0.000 A 
ATOM     14  C   UNL     1      -3.323  12.864  22.267  0.00  0.00    +0.000 A 
ATOM     15  F   UNL     1      -4.373  13.682  22.413  0.00  0.00    +0.000 F 
ATOM     16  C   UNL     1      -2.827  12.179  23.372  0.00  0.00    +0.000 A 
ATOM     17  C   UNL     1      -1.719  11.335  23.229  0.00  0.00    +0.000 A 
ENDBRANCH   9  11
ENDBRANCH   6   7
ENDBRANCH   3   6
ENDBRANCH   1   4
BRANCH   1  18
ATOM     18  O   UNL     1       1.597   4.496  20.439  0.00  0.00    +0.000 OA
BRANCH  18  19
ATOM     19  C   UNL     1       2.181   3.331  20.839  0.00  0.00    +0.000 C 
ATOM     20  O   UNL     1       2.436   3.058  22.005  0.00  0.00    +0.000 OA
BRANCH  19  21
ATOM     21  C   UNL     1       2.551   2.461  19.649  0.00  0.00    +0.000 C 
BRANCH  21  22
ATOM     22  N   UNL     1       3.249   3.259  18.665  0.00  0.00    +0.000 N 
ATOM     23  C   UNL     1       2.675   3.756  17.538  0.00  0.00    +0.000 C 
ATOM     24  O   UNL     1       1.519   3.622  17.173  0.00  0.00    +0.000 OA
ATOM     25  N   UNL     1       3.624   4.456  16.834  0.00  0.00    +0.000 N 
ATOM     26  C   UNL     1       4.920   4.410  17.459  0.00  0.00    +0.000 C 
ATOM     27  C   UNL     1       5.977   3.685  16.617  0.00  0.00    +0.000 C 
ATOM     28  C   UNL     1       7.117   4.688  16.447  0.00  0.00    +0.000 C 
ATOM     29  C   UNL     1       6.988   5.613  17.646  0.00  0.00    +0.000 C 
ATOM     30  C   UNL     1       5.481   5.793  17.781  0.00  0.00    +0.000 C 
ATOM     31  C   UNL     1       4.568   3.614  18.729  0.00  0.00    +0.000 C 
ATOM     32  O   UNL     1       5.346   3.338  19.629  0.00  0.00    +0.000 OA
ATOM     33  H   UNL     1       3.400   4.887  15.945  0.00  0.00    +0.000 HD
ENDBRANCH  21  22
ENDBRANCH  19  21
ENDBRANCH  18  19
ENDBRANCH   1  18
TORSDOF 8
ENDMDL
MODEL 4
REMARK VINA RESULT:      -7.7      3.485      3.953
REMARK  Name = 
REMARK  9 active torsions:
REMARK  status: ('A' for Active; 'I' for Inactive)
REMARK    1  A    between atoms: C_1  and  N_2
REMARK    2  A    between atoms: N_2  and  C_3
REMARK    3  A    between atoms: C_3  and  C_4
REMARK    4  A    between atoms: N_6  and  C_7
REMARK    5  A    between atoms: C_14  and  C_16
REMARK    6  A    between atoms: C_16  and  O_17
REMARK    7  A    between atoms: O_17  and  C_18
REMARK    8  A    between atoms: C_18  and  C_20
REMARK    9  A    between atoms: C_20  and  N_21
REMARK                            x       y       z     vdW  Elec       q    Type
REMARK                         _______ _______ _______ _____ _____    ______ ____
ROOT
ATOM      1  C   UNL     1       1.795   7.318  19.837  0.00  0.00    +0.000 C 
ENDROOT
BRANCH   1   4
ATOM      2  C   UNL     1       0.506  10.577  21.433  0.00  0.00    +0.000 C 
ATOM      3  N   UNL     1       0.840   9.596  20.405  0.00  0.00    +0.000 N 
ATOM      4  C   UNL     1       1.309   8.363  20.857  0.00  0.00    +0.000 C 
ATOM      5  O   UNL     1       1.340   8.104  22.069  0.00  0.00    +0.000 OA
BRANCH   3   6
ATOM      6  C   UNL     1       0.915  10.070  19.019  0.00  0.00    +0.000 C 
BRANCH   6   7
ATOM      7  C   UNL     1      -0.292  10.849  18.478  0.00  0.00    +0.000 C 
ATOM      8  O   UNL     1      -0.211  12.073  18.358  0.00  0.00    +0.000 OA
ATOM      9  N   UNL     1      -1.457  10.125  18.269  0.00  0.00    +0.000 N 
ATOM     10  H   UNL     1      -1.542   9.264  18.797  0.00  0.00    +0.000 HD
BRANCH   9  11
ATOM     11  C   UNL     1      -2.647  10.776  17.870  0.00  0.00    +0.000 A 
ATOM     12  C   UNL     1      -3.424  11.489  18.794  0.00  0.00    +0.000 A 
ATOM     13  C   UNL     1      -4.648  12.041  18.412  0.00  0.00    +0.000 A 
ATOM     14  C   UNL     1      -5.099  11.859  17.111  0.00  0.00    +0.000 A 
ATOM     15  F   UNL     1      -6.299  12.336  16.755  0.00  0.00    +0.000 F 
ATOM     16  C   UNL     1      -4.325  11.179  16.176  0.00  0.00    +0.000 A 
ATOM     17  C   UNL     1      -3.077  10.664  16.546  0.00  0.00    +0.000 A 
ENDBRANCH   9  11
ENDBRANCH   6   7
ENDBRANCH   3   6
ENDBRANCH   1   4
BRANCH   1  18
ATOM     18  O   UNL     1       2.180   6.095  20.480  0.00  0.00    +0.000 OA
BRANCH  18  19
ATOM     19  C   UNL     1       1.562   4.993  19.969  0.00  0.00    +0.000 C 
ATOM     20  O   UNL     1       0.773   4.297  20.595  0.00  0.00    +0.000 OA
BRANCH  19  21
ATOM     21  C   UNL     1       2.045   4.693  18.559  0.00  0.00    +0.000 C 
BRANCH  21  22
ATOM     22  N   UNL     1       3.471   4.452  18.577  0.00  0.00    +0.000 N 
ATOM     23  C   UNL     1       4.047   3.309  19.034  0.00  0.00    +0.000 C 
ATOM     24  O   UNL     1       3.486   2.327  19.490  0.00  0.00    +0.000 OA
ATOM     25  N   UNL     1       5.410   3.425  18.910  0.00  0.00    +0.000 N 
ATOM     26  C   UNL     1       5.811   4.708  18.396  0.00  0.00    +0.000 C 
ATOM     27  C   UNL     1       6.630   5.536  19.395  0.00  0.00    +0.000 C 
ATOM     28  C   UNL     1       7.933   5.870  18.670  0.00  0.00    +0.000 C 
ATOM     29  C   UNL     1       7.570   5.814  17.195  0.00  0.00    +0.000 C 
ATOM     30  C   UNL     1       6.638   4.611  17.117  0.00  0.00    +0.000 C 
ATOM     31  C   UNL     1       4.425   5.333  18.149  0.00  0.00    +0.000 C 
ATOM     32  O   UNL     1       4.224   6.436  17.666  0.00  0.00    +0.000 OA
ATOM     33  H   UNL     1       6.026   2.682  19.221  0.00  0.00    +0.000 HD
ENDBRANCH  21  22
ENDBRANCH  19  21
ENDBRANCH  18  19
ENDBRANCH   1  18
TORSDOF 8
ENDMDL
MODEL 5
REMARK VINA RESULT:      -7.6      3.345      5.391
REMARK  Name = 
REMARK  9 active torsions:
REMARK  status: ('A' for Active; 'I' for Inactive)
REMARK    1  A    between atoms: C_1  and  N_2
REMARK    2  A    between atoms: N_2  and  C_3
REMARK    3  A    between atoms: C_3  and  C_4
REMARK    4  A    between atoms: N_6  and  C_7
REMARK    5  A    between atoms: C_14  and  C_16
REMARK    6  A    between atoms: C_16  and  O_17
REMARK    7  A    between atoms: O_17  and  C_18
REMARK    8  A    between atoms: C_18  and  C_20
REMARK    9  A    between atoms: C_20  and  N_21
REMARK                            x       y       z     vdW  Elec       q    Type
REMARK                         _______ _______ _______ _____ _____    ______ ____
ROOT
ATOM      1  C   UNL     1       4.901   3.089  20.225  0.00  0.00    +0.000 C 
ENDROOT
BRANCH   1   4
ATOM      2  C   UNL     1       1.248   2.286  19.305  0.00  0.00    +0.000 C 
ATOM      3  N   UNL     1       2.387   2.957  19.923  0.00  0.00    +0.000 N 
ATOM      4  C   UNL     1       3.652   2.517  19.532  0.00  0.00    +0.000 C 
ATOM      5  O   UNL     1       3.776   1.669  18.635  0.00  0.00    +0.000 OA
BRANCH   3   6
ATOM      6  C   UNL     1       2.116   3.822  21.076  0.00  0.00    +0.000 C 
BRANCH   6   7
ATOM      7  C   UNL     1       1.426   5.165  20.799  0.00  0.00    +0.000 C 
ATOM      8  O   UNL     1       0.241   5.172  20.461  0.00  0.00    +0.000 OA
ATOM      9  N   UNL     1       2.230   6.295  20.830  0.00  0.00    +0.000 N 
ATOM     10  H   UNL     1       3.221   6.137  20.681  0.00  0.00    +0.000 HD
BRANCH   9  11
ATOM     11  C   UNL     1       1.705   7.562  20.487  0.00  0.00    +0.000 A 
ATOM     12  C   UNL     1       1.885   8.095  19.202  0.00  0.00    +0.000 A 
ATOM     13  C   UNL     1       1.451   9.388  18.906  0.00  0.00    +0.000 A 
ATOM     14  C   UNL     1       0.857  10.150  19.902  0.00  0.00    +0.000 A 
ATOM     15  F   UNL     1       0.491  11.412  19.639  0.00  0.00    +0.000 F 
ATOM     16  C   UNL     1       0.644   9.624  21.172  0.00  0.00    +0.000 A 
ATOM     17  C   UNL     1       1.038   8.313  21.459  0.00  0.00    +0.000 A 
ENDBRANCH   9  11
ENDBRANCH   6   7
ENDBRANCH   3   6
ENDBRANCH   1   4
BRANCH   1  18
ATOM     18  O   UNL     1       5.784   3.712  19.283  0.00  0.00    +0.000 OA
BRANCH  18  19
ATOM     19  C   UNL     1       5.658   5.069  19.232  0.00  0.00    +0.000 C 
ATOM     20  O   UNL     1       4.720   5.688  19.717  0.00  0.00    +0.000 OA
BRANCH  19  21
ATOM     21  C   UNL     1       6.781   5.698  18.423  0.00  0.00    +0.000 C 
BRANCH  21  22
ATOM     22  N   UNL     1       6.436   5.676  17.019  0.00  0.00    +0.000 N 
ATOM     23  C   UNL     1       5.500   6.481  16.449  0.00  0.00    +0.000 C 
ATOM     24  O   UNL     1       4.814   7.326  16.999  0.00  0.00    +0.000 OA
ATOM     25  N   UNL     1       5.427   6.188  15.109  0.00  0.00    +0.000 N 
ATOM     26  C   UNL     1       6.304   5.111  14.730  0.00  0.00    +0.000 C 
ATOM     27  C   UNL     1       5.559   3.867  14.230  0.00  0.00    +0.000 C 
ATOM     28  C   UNL     1       6.127   3.588  12.839  0.00  0.00    +0.000 C 
ATOM     29  C   UNL     1       7.515   4.206  12.867  0.00  0.00    +0.000 C 
ATOM     30  C   UNL     1       7.299   5.501  13.640  0.00  0.00    +0.000 C 
ATOM     31  C   UNL     1       6.993   4.849  16.083  0.00  0.00    +0.000 C 
ATOM     32  O   UNL     1       7.875   4.028  16.279  0.00  0.00    +0.000 OA
ATOM     33  H   UNL     1       4.766   6.665  14.507  0.00  0.00    +0.000 HD
ENDBRANCH  21  22
ENDBRANCH  19  21
ENDBRANCH  18  19
ENDBRANCH   1  18
TORSDOF 8
ENDMDL
MODEL 6
REMARK VINA RESULT:      -7.5      1.341      1.916
REMARK  Name = 
REMARK  9 active torsions:
REMARK  status: ('A' for Active; 'I' for Inactive)
REMARK    1  A    between atoms: C_1  and  N_2
REMARK    2  A    between atoms: N_2  and  C_3
REMARK    3  A    between atoms: C_3  and  C_4
REMARK    4  A    between atoms: N_6  and  C_7
REMARK    5  A    between atoms: C_14  and  C_16
REMARK    6  A    between atoms: C_16  and  O_17
REMARK    7  A    between atoms: O_17  and  C_18
REMARK    8  A    between atoms: C_18  and  C_20
REMARK    9  A    between atoms: C_20  and  N_21
REMARK                            x       y       z     vdW  Elec       q    Type
REMARK                         _______ _______ _______ _____ _____    ______ ____
ROOT
ATOM      1  C   UNL     1       1.684   6.006  20.728  0.00  0.00    +0.000 C 
ENDROOT
BRANCH   1   4
ATOM      2  C   UNL     1       1.819   9.278  18.702  0.00  0.00    +0.000 C 
ATOM      3  N   UNL     1       1.493   8.349  19.778  0.00  0.00    +0.000 N 
ATOM      4  C   UNL     1       2.071   7.082  19.698  0.00  0.00    +0.000 C 
ATOM      5  O   UNL     1       2.890   6.817  18.805  0.00  0.00    +0.000 OA
BRANCH   3   6
ATOM      6  C   UNL     1       0.398   8.719  20.681  0.00  0.00    +0.000 C 
BRANCH   6   7
ATOM      7  C   UNL     1       0.524  10.056  21.425  0.00  0.00    +0.000 C 
ATOM      8  O   UNL     1       1.336  10.155  22.346  0.00  0.00    +0.000 OA
ATOM      9  N   UNL     1      -0.386  11.046  21.084  0.00  0.00    +0.000 N 
ATOM     10  H   UNL     1      -1.249  10.725  20.658  0.00  0.00    +0.000 HD
BRANCH   9  11
ATOM     11  C   UNL     1      -0.412  12.272  21.786  0.00  0.00    +0.000 A 
ATOM     12  C   UNL     1      -1.286  12.468  22.866  0.00  0.00    +0.000 A 
ATOM     13  C   UNL     1      -1.375  13.715  23.486  0.00  0.00    +0.000 A 
ATOM     14  C   UNL     1      -0.606  14.768  23.010  0.00  0.00    +0.000 A 
ATOM     15  F   UNL     1      -0.730  15.981  23.564  0.00  0.00    +0.000 F 
ATOM     16  C   UNL     1       0.287  14.581  21.960  0.00  0.00    +0.000 A 
ATOM     17  C   UNL     1       0.411  13.320  21.366  0.00  0.00    +0.000 A 
ENDBRANCH   9  11
ENDBRANCH   6   7
ENDBRANCH   3   6
ENDBRANCH   1   4
BRANCH   1  18
ATOM     18  O   UNL     1       2.688   4.988  20.826  0.00  0.00    +0.000 OA
BRANCH  18  19
ATOM     19  C   UNL     1       2.215   3.731  20.591  0.00  0.00    +0.000 C 
ATOM     20  O   UNL     1       1.114   3.335  20.949  0.00  0.00    +0.000 OA
BRANCH  19  21
ATOM     21  C   UNL     1       3.262   2.866  19.907  0.00  0.00    +0.000 C 
BRANCH  21  22
ATOM     22  N   UNL     1       3.702   3.510  18.689  0.00  0.00    +0.000 N 
ATOM     23  C   UNL     1       2.908   3.717  17.605  0.00  0.00    +0.000 C 
ATOM     24  O   UNL     1       1.736   3.408  17.474  0.00  0.00    +0.000 OA
ATOM     25  N   UNL     1       3.648   4.345  16.634  0.00  0.00    +0.000 N 
ATOM     26  C   UNL     1       5.020   4.544  17.025  0.00  0.00    +0.000 C 
ATOM     27  C   UNL     1       6.019   3.763  16.162  0.00  0.00    +0.000 C 
ATOM     28  C   UNL     1       6.988   4.811  15.618  0.00  0.00    +0.000 C 
ATOM     29  C   UNL     1       6.929   5.943  16.632  0.00  0.00    +0.000 C 
ATOM     30  C   UNL     1       5.449   6.008  16.987  0.00  0.00    +0.000 C 
ATOM     31  C   UNL     1       4.962   3.989  18.461  0.00  0.00    +0.000 C 
ATOM     32  O   UNL     1       5.894   3.971  19.249  0.00  0.00    +0.000 OA
ATOM     33  H   UNL     1       3.242   4.566  15.731  0.00  0.00    +0.000 HD
ENDBRANCH  21  22
ENDBRANCH  19  21
ENDBRANCH  18  19
ENDBRANCH   1  18
TORSDOF 8
ENDMDL
MODEL 7
REMARK VINA RESULT:      -7.3      3.497      3.946
REMARK  Name = 
REMARK  9 active torsions:
REMARK  status: ('A' for Active; 'I' for Inactive)
REMARK    1  A    between atoms: C_1  and  N_2
REMARK    2  A    between atoms: N_2  and  C_3
REMARK    3  A    between atoms: C_3  and  C_4
REMARK    4  A    between atoms: N_6  and  C_7
REMARK    5  A    between atoms: C_14  and  C_16
REMARK    6  A    between atoms: C_16  and  O_17
REMARK    7  A    between atoms: O_17  and  C_18
REMARK    8  A    between atoms: C_18  and  C_20
REMARK    9  A    between atoms: C_20  and  N_21
REMARK                            x       y       z     vdW  Elec       q    Type
REMARK                         _______ _______ _______ _____ _____    ______ ____
ROOT
ATOM      1  C   UNL     1       1.724   7.561  20.131  0.00  0.00    +0.000 C 
ENDROOT
BRANCH   1   4
ATOM      2  C   UNL     1       0.453  10.960  21.419  0.00  0.00    +0.000 C 
ATOM      3  N   UNL     1       0.753   9.875  20.492  0.00  0.00    +0.000 N 
ATOM      4  C   UNL     1       1.270   8.707  21.052  0.00  0.00    +0.000 C 
ATOM      5  O   UNL     1       1.368   8.587  22.283  0.00  0.00    +0.000 OA
BRANCH   3   6
ATOM      6  C   UNL     1       0.746  10.191  19.059  0.00  0.00    +0.000 C 
BRANCH   6   7
ATOM      7  C   UNL     1      -0.466  10.961  18.516  0.00  0.00    +0.000 C 
ATOM      8  O   UNL     1      -0.378  12.180  18.357  0.00  0.00    +0.000 OA
ATOM      9  N   UNL     1      -1.639  10.239  18.351  0.00  0.00    +0.000 N 
ATOM     10  H   UNL     1      -1.719   9.395  18.907  0.00  0.00    +0.000 HD
BRANCH   9  11
ATOM     11  C   UNL     1      -2.831  10.886  17.954  0.00  0.00    +0.000 A 
ATOM     12  C   UNL     1      -3.586  11.634  18.869  0.00  0.00    +0.000 A 
ATOM     13  C   UNL     1      -4.813  12.182  18.492  0.00  0.00    +0.000 A 
ATOM     14  C   UNL     1      -5.290  11.962  17.207  0.00  0.00    +0.000 A 
ATOM     15  F   UNL     1      -6.493  12.437  16.858  0.00  0.00    +0.000 F 
ATOM     16  C   UNL     1      -4.538  11.248  16.279  0.00  0.00    +0.000 A 
ATOM     17  C   UNL     1      -3.287  10.736  16.642  0.00  0.00    +0.000 A 
ENDBRANCH   9  11
ENDBRANCH   6   7
ENDBRANCH   3   6
ENDBRANCH   1   4
BRANCH   1  18
ATOM     18  O   UNL     1       1.568   6.285  20.765  0.00  0.00    +0.000 OA
BRANCH  18  19
ATOM     19  C   UNL     1       1.979   5.239  19.993  0.00  0.00    +0.000 C 
ATOM     20  O   UNL     1       1.255   4.642  19.207  0.00  0.00    +0.000 OA
BRANCH  19  21
ATOM     21  C   UNL     1       3.419   4.858  20.299  0.00  0.00    +0.000 C 
BRANCH  21  22
ATOM     22  N   UNL     1       4.056   4.371  19.095  0.00  0.00    +0.000 N 
ATOM     23  C   UNL     1       4.190   3.055  18.780  0.00  0.00    +0.000 C 
ATOM     24  O   UNL     1       3.813   2.095  19.431  0.00  0.00    +0.000 OA
ATOM     25  N   UNL     1       4.844   2.957  17.577  0.00  0.00    +0.000 N 
ATOM     26  C   UNL     1       5.227   4.241  17.049  0.00  0.00    +0.000 C 
ATOM     27  C   UNL     1       6.746   4.432  16.956  0.00  0.00    +0.000 C 
ATOM     28  C   UNL     1       7.020   4.782  15.494  0.00  0.00    +0.000 C 
ATOM     29  C   UNL     1       5.716   5.389  15.000  0.00  0.00    +0.000 C 
ATOM     30  C   UNL     1       4.659   4.513  15.659  0.00  0.00    +0.000 C 
ATOM     31  C   UNL     1       4.609   5.157  18.122  0.00  0.00    +0.000 C 
ATOM     32  O   UNL     1       4.629   6.378  18.106  0.00  0.00    +0.000 OA
ATOM     33  H   UNL     1       5.066   2.052  17.177  0.00  0.00    +0.000 HD
ENDBRANCH  21  22
ENDBRANCH  19  21
ENDBRANCH  18  19
ENDBRANCH   1  18
TORSDOF 8
ENDMDL
MODEL 8
REMARK VINA RESULT:      -7.3      2.871      4.867
REMARK  Name = 
REMARK  9 active torsions:
REMARK  status: ('A' for Active; 'I' for Inactive)
REMARK    1  A    between atoms: C_1  and  N_2
REMARK    2  A    between atoms: N_2  and  C_3
REMARK    3  A    between atoms: C_3  and  C_4
REMARK    4  A    between atoms: N_6  and  C_7
REMARK    5  A    between atoms: C_14  and  C_16
REMARK    6  A    between atoms: C_16  and  O_17
REMARK    7  A    between atoms: O_17  and  C_18
REMARK    8  A    between atoms: C_18  and  C_20
REMARK    9  A    between atoms: C_20  and  N_21
REMARK                            x       y       z     vdW  Elec       q    Type
REMARK                         _______ _______ _______ _____ _____    ______ ____
ROOT
ATOM      1  C   UNL     1       4.271   3.748  18.702  0.00  0.00    +0.000 C 
ENDROOT
BRANCH   1   4
ATOM      2  C   UNL     1       1.238   2.649  20.805  0.00  0.00    +0.000 C 
ATOM      3  N   UNL     1       2.281   3.507  20.254  0.00  0.00    +0.000 N 
ATOM      4  C   UNL     1       3.074   2.951  19.251  0.00  0.00    +0.000 C 
ATOM      5  O   UNL     1       2.824   1.823  18.801  0.00  0.00    +0.000 OA
BRANCH   3   6
ATOM      6  C   UNL     1       2.580   4.751  20.973  0.00  0.00    +0.000 C 
BRANCH   6   7
ATOM      7  C   UNL     1       1.591   5.913  20.805  0.00  0.00    +0.000 C 
ATOM      8  O   UNL     1       0.419   5.665  20.516  0.00  0.00    +0.000 OA
ATOM      9  N   UNL     1       2.119   7.194  20.874  0.00  0.00    +0.000 N 
ATOM     10  H   UNL     1       3.110   7.274  20.676  0.00  0.00    +0.000 HD
BRANCH   9  11
ATOM     11  C   UNL     1       1.304   8.322  20.630  0.00  0.00    +0.000 A 
ATOM     12  C   UNL     1       1.330   8.978  19.390  0.00  0.00    +0.000 A 
ATOM     13  C   UNL     1       0.598  10.150  19.195  0.00  0.00    +0.000 A 
ATOM     14  C   UNL     1      -0.141  10.673  20.247  0.00  0.00    +0.000 A 
ATOM     15  F   UNL     1      -0.799  11.829  20.083  0.00  0.00    +0.000 F 
ATOM     16  C   UNL     1      -0.201  10.018  21.473  0.00  0.00    +0.000 A 
ATOM     17  C   UNL     1       0.497   8.819  21.657  0.00  0.00    +0.000 A 
ENDBRANCH   9  11
ENDBRANCH   6   7
ENDBRANCH   3   6
ENDBRANCH   1   4
BRANCH   1  18
ATOM     18  O   UNL     1       3.897   4.544  17.570  0.00  0.00    +0.000 OA
BRANCH  18  19
ATOM     19  C   UNL     1       4.017   5.885  17.785  0.00  0.00    +0.000 C 
ATOM     20  O   UNL     1       3.067   6.650  17.892  0.00  0.00    +0.000 OA
BRANCH  19  21
ATOM     21  C   UNL     1       5.475   6.317  17.785  0.00  0.00    +0.000 C 
BRANCH  21  22
ATOM     22  N   UNL     1       6.197   5.580  16.771  0.00  0.00    +0.000 N 
ATOM     23  C   UNL     1       7.243   4.750  17.029  0.00  0.00    +0.000 C 
ATOM     24  O   UNL     1       7.735   4.493  18.115  0.00  0.00    +0.000 OA
ATOM     25  N   UNL     1       7.689   4.226  15.841  0.00  0.00    +0.000 N 
ATOM     26  C   UNL     1       6.969   4.738  14.705  0.00  0.00    +0.000 C 
ATOM     27  C   UNL     1       7.843   5.565  13.753  0.00  0.00    +0.000 C 
ATOM     28  C   UNL     1       7.689   4.901  12.385  0.00  0.00    +0.000 C 
ATOM     29  C   UNL     1       6.338   4.207  12.452  0.00  0.00    +0.000 C 
ATOM     30  C   UNL     1       6.311   3.645  13.868  0.00  0.00    +0.000 C 
ATOM     31  C   UNL     1       5.936   5.621  15.430  0.00  0.00    +0.000 C 
ATOM     32  O   UNL     1       5.045   6.257  14.887  0.00  0.00    +0.000 OA
ATOM     33  H   UNL     1       8.485   3.598  15.816  0.00  0.00    +0.000 HD
ENDBRANCH  21  22
ENDBRANCH  19  21
ENDBRANCH  18  19
ENDBRANCH   1  18
TORSDOF 8
ENDMDL
MODEL 9
REMARK VINA RESULT:      -7.3      5.829      7.427
REMARK  Name = 
REMARK  9 active torsions:
REMARK  status: ('A' for Active; 'I' for Inactive)
REMARK    1  A    between atoms: C_1  and  N_2
REMARK    2  A    between atoms: N_2  and  C_3
REMARK    3  A    between atoms: C_3  and  C_4
REMARK    4  A    between atoms: N_6  and  C_7
REMARK    5  A    between atoms: C_14  and  C_16
REMARK    6  A    between atoms: C_16  and  O_17
REMARK    7  A    between atoms: O_17  and  C_18
REMARK    8  A    between atoms: C_18  and  C_20
REMARK    9  A    between atoms: C_20  and  N_21
REMARK                            x       y       z     vdW  Elec       q    Type
REMARK                         _______ _______ _______ _____ _____    ______ ____
ROOT
ATOM      1  C   UNL     1       8.554   8.018  18.989  0.00  0.00    +0.000 C 
ENDROOT
BRANCH   1   4
ATOM      2  C   UNL     1       8.886  11.728  18.010  0.00  0.00    +0.000 C 
ATOM      3  N   UNL     1       9.157  10.461  18.681  0.00  0.00    +0.000 N 
ATOM      4  C   UNL     1       8.414   9.362  18.252  0.00  0.00    +0.000 C 
ATOM      5  O   UNL     1       7.643   9.459  17.285  0.00  0.00    +0.000 OA
BRANCH   3   6
ATOM      6  C   UNL     1       9.966  10.506  19.905  0.00  0.00    +0.000 C 
BRANCH   6   7
ATOM      7  C   UNL     1       9.594  11.565  20.952  0.00  0.00    +0.000 C 
ATOM      8  O   UNL     1      10.297  12.572  21.061  0.00  0.00    +0.000 OA
ATOM      9  N   UNL     1       8.543  11.256  21.803  0.00  0.00    +0.000 N 
ATOM     10  H   UNL     1       8.340  10.269  21.914  0.00  0.00    +0.000 HD
BRANCH   9  11
ATOM     11  C   UNL     1       8.197  12.125  22.863  0.00  0.00    +0.000 A 
ATOM     12  C   UNL     1       8.572  11.838  24.184  0.00  0.00    +0.000 A 
ATOM     13  C   UNL     1       8.137  12.648  25.234  0.00  0.00    +0.000 A 
ATOM     14  C   UNL     1       7.312  13.731  24.961  0.00  0.00    +0.000 A 
ATOM     15  F   UNL     1       6.846  14.477  25.970  0.00  0.00    +0.000 F 
ATOM     16  C   UNL     1       6.957  14.046  23.653  0.00  0.00    +0.000 A 
ATOM     17  C   UNL     1       7.428  13.260  22.595  0.00  0.00    +0.000 A 
ENDBRANCH   9  11
ENDBRANCH   6   7
ENDBRANCH   3   6
ENDBRANCH   1   4
BRANCH   1  18
ATOM     18  O   UNL     1       8.137   6.921  18.165  0.00  0.00    +0.000 OA
BRANCH  18  19
ATOM     19  C   UNL     1       7.820   5.799  18.872  0.00  0.00    +0.000 C 
ATOM     20  O   UNL     1       7.770   5.750  20.094  0.00  0.00    +0.000 OA
BRANCH  19  21
ATOM     21  C   UNL     1       7.624   4.604  17.952  0.00  0.00    +0.000 C 
BRANCH  21  22
ATOM     22  N   UNL     1       6.263   4.586  17.465  0.00  0.00    +0.000 N 
ATOM     23  C   UNL     1       5.884   5.036  16.240  0.00  0.00    +0.000 C 
ATOM     24  O   UNL     1       6.595   5.513  15.372  0.00  0.00    +0.000 OA
ATOM     25  N   UNL     1       4.525   4.875  16.115  0.00  0.00    +0.000 N 
ATOM     26  C   UNL     1       3.920   4.341  17.307  0.00  0.00    +0.000 C 
ATOM     27  C   UNL     1       2.942   5.312  17.980  0.00  0.00    +0.000 C 
ATOM     28  C   UNL     1       1.621   4.550  18.080  0.00  0.00    +0.000 C 
ATOM     29  C   UNL     1       2.028   3.086  18.085  0.00  0.00    +0.000 C 
ATOM     30  C   UNL     1       3.158   3.041  17.063  0.00  0.00    +0.000 C 
ATOM     31  C   UNL     1       5.181   4.127  18.164  0.00  0.00    +0.000 C 
ATOM     32  O   UNL     1       5.200   3.641  19.285  0.00  0.00    +0.000 OA
ATOM     33  H   UNL     1       4.041   5.174  15.276  0.00  0.00    +0.000 HD
ENDBRANCH  21  22
ENDBRANCH  19  21
ENDBRANCH  18  19
ENDBRANCH   1  18
TORSDOF 8
ENDMDL
