MODEL 1
REMARK VINA RESULT:      -7.8      0.000      0.000
REMARK  Name = 
REMARK  4 active torsions:
REMARK  status: ('A' for Active; 'I' for Inactive)
REMARK    1  A    between atoms: C_2  and  C_3
REMARK    2  A    between atoms: C_9  and  N_10
REMARK    3  A    between atoms: C_16  and  C_17
REMARK    4  A    between atoms: N_28  and  C_29
REMARK                            x       y       z     vdW  Elec       q    Type
REMARK                         _______ _______ _______ _____ _____    ______ ____
ROOT
ATOM      1  N   UNL     1      -1.316  12.553  22.728  0.00  0.00    +0.000 N 
ATOM      2  C   UNL     1      -1.262  11.251  23.381  0.00  0.00    +0.000 C 
ATOM      3  C   UNL     1      -0.401  10.409  22.475  0.00  0.00    +0.000 C 
ATOM      4  C   UNL     1       0.393   9.256  23.045  0.00  0.00    +0.000 C 
ATOM      5  C   UNL     1      -0.791   8.980  22.165  0.00  0.00    +0.000 C 
ATOM      6  C   UNL     1       0.176  11.283  21.396  0.00  0.00    +0.000 C 
ATOM      7  C   UNL     1      -0.780  12.488  21.350  0.00  0.00    +0.000 C 
ENDROOT
BRANCH   7   8
ATOM      8  C   UNL     1      -1.916  12.239  20.307  0.00  0.00    +0.000 A 
ATOM      9  N   UNL     1      -3.154  12.284  20.707  0.00  0.00    +0.000 NA
ATOM     10  C   UNL     1      -4.181  12.094  19.781  0.00  0.00    +0.000 A 
ATOM     11  C   UNL     1      -5.498  12.256  20.225  0.00  0.00    +0.000 A 
ATOM     12  C   UNL     1      -6.571  12.146  19.340  0.00  0.00    +0.000 A 
ATOM     13  C   UNL     1      -6.328  11.850  18.002  0.00  0.00    +0.000 A 
ATOM     14  C   UNL     1      -5.018  11.668  17.559  0.00  0.00    +0.000 A 
ATOM     15  F   UNL     1      -4.833  11.389  16.262  0.00  0.00    +0.000 F 
ATOM     16  C   UNL     1      -3.944  11.795  18.443  0.00  0.00    +0.000 A 
ATOM     17  C   UNL     1      -2.539  11.662  18.011  0.00  0.00    +0.000 A 
ATOM     18  O   UNL     1      -2.281  11.352  16.852  0.00  0.00    +0.000 OA
ATOM     19  N   UNL     1      -1.575  11.920  18.995  0.00  0.00    +0.000 N 
BRANCH  19  20
ATOM     20  C   UNL     1      -0.217  11.899  18.589  0.00  0.00    +0.000 A 
ATOM     21  C   UNL     1       0.470  13.109  18.439  0.00  0.00    +0.000 A 
ATOM     22  C   UNL     1       1.843  13.100  18.200  0.00  0.00    +0.000 A 
ATOM     23  C   UNL     1       2.525  11.886  18.101  0.00  0.00    +0.000 A 
ATOM     24  C   UNL     1       1.833  10.679  18.210  0.00  0.00    +0.000 A 
ATOM     25  C   UNL     1       0.457  10.682  18.445  0.00  0.00    +0.000 A 
ENDBRANCH  19  20
ENDBRANCH   7   8
BRANCH   1  32
ATOM     26  C   UNL     1      -2.961  13.999  23.846  0.00  0.00    +0.000 A 
ATOM     27  C   UNL     1      -3.164  15.234  24.459  0.00  0.00    +0.000 A 
ATOM     28  N   UNL     1      -4.411  15.631  24.950  0.00  0.00    +0.000 N 
ATOM     29  N   UNL     1      -2.207  16.164  24.548  0.00  0.00    +0.000 NA
ATOM     30  C   UNL     1      -1.037  15.844  23.993  0.00  0.00    +0.000 A 
ATOM     31  N   UNL     1      -0.747  14.695  23.367  0.00  0.00    +0.000 NA
ATOM     32  C   UNL     1      -1.700  13.737  23.307  0.00  0.00    +0.000 A 
ATOM     33  H   UNL     1      -4.882  14.940  25.525  0.00  0.00    +0.000 HD
ATOM     34  H   UNL     1      -4.313  16.529  25.414  0.00  0.00    +0.000 HD
BRANCH  26  36
ATOM     35  N   UNL     1      -4.935  12.331  23.852  0.00  0.00    +0.000 NA
ATOM     36  C   UNL     1      -4.047  13.078  23.812  0.00  0.00    +0.000 C 
ENDBRANCH  26  36
ENDBRANCH   1  32
TORSDOF 4
ENDMDL
MODEL 2
REMARK VINA RESULT:      -7.7      3.104      6.205
REMARK  Name = 
REMARK  4 active torsions:
REMARK  status: ('A' for Active; 'I' for Inactive)
REMARK    1  A    between atoms: C_2  and  C_3
REMARK    2  A    between atoms: C_9  and  N_10
REMARK    3  A    between atoms: C_16  and  C_17
REMARK    4  A    between atoms: N_28  and  C_29
REMARK                            x       y       z     vdW  Elec       q    Type
REMARK                         _______ _______ _______ _____ _____    ______ ____
ROOT
ATOM      1  N   UNL     1      -2.880  12.946  21.513  0.00  0.00    +0.000 N 
ATOM      2  C   UNL     1      -2.371  13.763  22.608  0.00  0.00    +0.000 C 
ATOM      3  C   UNL     1      -3.548  13.929  23.534  0.00  0.00    +0.000 C 
ATOM      4  C   UNL     1      -3.320  14.155  25.012  0.00  0.00    +0.000 C 
ATOM      5  C   UNL     1      -3.840  15.276  24.159  0.00  0.00    +0.000 C 
ATOM      6  C   UNL     1      -4.677  13.062  23.052  0.00  0.00    +0.000 C 
ATOM      7  C   UNL     1      -4.354  12.832  21.565  0.00  0.00    +0.000 C 
ENDROOT
BRANCH   7   8
ATOM      8  C   UNL     1      -5.041  13.925  20.686  0.00  0.00    +0.000 A 
ATOM      9  N   UNL     1      -4.543  15.127  20.678  0.00  0.00    +0.000 NA
ATOM     10  C   UNL     1      -5.127  16.106  19.873  0.00  0.00    +0.000 A 
ATOM     11  C   UNL     1      -4.500  17.356  19.807  0.00  0.00    +0.000 A 
ATOM     12  C   UNL     1      -4.992  18.361  18.972  0.00  0.00    +0.000 A 
ATOM     13  C   UNL     1      -6.133  18.123  18.212  0.00  0.00    +0.000 A 
ATOM     14  C   UNL     1      -6.772  16.885  18.290  0.00  0.00    +0.000 A 
ATOM     15  F   UNL     1      -7.865  16.701  17.537  0.00  0.00    +0.000 F 
ATOM     16  C   UNL     1      -6.270  15.875  19.113  0.00  0.00    +0.000 A 
ATOM     17  C   UNL     1      -6.881  14.534  19.190  0.00  0.00    +0.000 A 
ATOM     18  O   UNL     1      -7.916  14.297  18.576  0.00  0.00    +0.000 OA
ATOM     19  N   UNL     1      -6.199  13.601  19.981  0.00  0.00    +0.000 N 
BRANCH  19  20
ATOM     20  C   UNL     1      -6.703  12.276  19.997  0.00  0.00    +0.000 A 
ATOM     21  C   UNL     1      -6.261  11.365  19.032  0.00  0.00    +0.000 A 
ATOM     22  C   UNL     1      -6.621  10.022  19.132  0.00  0.00    +0.000 A 
ATOM     23  C   UNL     1      -7.429   9.593  20.186  0.00  0.00    +0.000 A 
ATOM     24  C   UNL     1      -7.904  10.510  21.126  0.00  0.00    +0.000 A 
ATOM     25  C   UNL     1      -7.550  11.857  21.029  0.00  0.00    +0.000 A 
ENDBRANCH  19  20
ENDBRANCH   7   8
BRANCH   1  32
ATOM     26  C   UNL     1      -1.153  11.305  20.902  0.00  0.00    +0.000 A 
ATOM     27  C   UNL     1      -0.526  10.649  19.845  0.00  0.00    +0.000 A 
ATOM     28  N   UNL     1       0.522   9.745  20.039  0.00  0.00    +0.000 N 
ATOM     29  N   UNL     1      -0.821  10.896  18.563  0.00  0.00    +0.000 NA
ATOM     30  C   UNL     1      -1.748  11.831  18.353  0.00  0.00    +0.000 A 
ATOM     31  N   UNL     1      -2.394  12.529  19.297  0.00  0.00    +0.000 NA
ATOM     32  C   UNL     1      -2.126  12.257  20.595  0.00  0.00    +0.000 A 
ATOM     33  H   UNL     1       0.355   9.047  20.756  0.00  0.00    +0.000 HD
ATOM     34  H   UNL     1       0.777   9.337  19.145  0.00  0.00    +0.000 HD
BRANCH  26  36
ATOM     35  N   UNL     1      -0.457  10.615  23.294  0.00  0.00    +0.000 NA
ATOM     36  C   UNL     1      -0.769  10.961  22.230  0.00  0.00    +0.000 C 
ENDBRANCH  26  36
ENDBRANCH   1  32
TORSDOF 4
ENDMDL
MODEL 3
REMARK VINA RESULT:      -7.7      2.375      5.813
REMARK  Name = 
REMARK  4 active torsions:
REMARK  status: ('A' for Active; 'I' for Inactive)
REMARK    1  A    between atoms: C_2  and  C_3
REMARK    2  A    between atoms: C_9  and  N_10
REMARK    3  A    between atoms: C_16  and  C_17
REMARK    4  A    between atoms: N_28  and  C_29
REMARK                            x       y       z     vdW  Elec       q    Type
REMARK                         _______ _______ _______ _____ _____    ______ ____
ROOT
ATOM      1  N   UNL     1       0.299  12.052  20.731  0.00  0.00    +0.000 N 
ATOM      2  C   UNL     1       1.206  12.883  19.949  0.00  0.00    +0.000 C 
ATOM      3  C   UNL     1       0.597  14.260  20.000  0.00  0.00    +0.000 C 
ATOM      4  C   UNL     1       1.478  15.481  19.869  0.00  0.00    +0.000 C 
ATOM      5  C   UNL     1       0.542  15.115  18.753  0.00  0.00    +0.000 C 
ATOM      6  C   UNL     1      -0.563  14.246  20.956  0.00  0.00    +0.000 C 
ATOM      7  C   UNL     1      -0.965  12.763  21.025  0.00  0.00    +0.000 C 
ENDROOT
BRANCH   7   8
ATOM      8  C   UNL     1      -2.058  12.446  19.956  0.00  0.00    +0.000 A 
ATOM      9  N   UNL     1      -1.689  11.955  18.809  0.00  0.00    +0.000 NA
ATOM     10  C   UNL     1      -2.658  11.638  17.855  0.00  0.00    +0.000 A 
ATOM     11  C   UNL     1      -2.233  11.013  16.677  0.00  0.00    +0.000 A 
ATOM     12  C   UNL     1      -3.154  10.608  15.709  0.00  0.00    +0.000 A 
ATOM     13  C   UNL     1      -4.509  10.850  15.909  0.00  0.00    +0.000 A 
ATOM     14  C   UNL     1      -4.935  11.492  17.072  0.00  0.00    +0.000 A 
ATOM     15  F   UNL     1      -6.250  11.699  17.222  0.00  0.00    +0.000 F 
ATOM     16  C   UNL     1      -4.014  11.880  18.048  0.00  0.00    +0.000 A 
ATOM     17  C   UNL     1      -4.421  12.515  19.317  0.00  0.00    +0.000 A 
ATOM     18  O   UNL     1      -5.600  12.792  19.513  0.00  0.00    +0.000 OA
ATOM     19  N   UNL     1      -3.389  12.751  20.235  0.00  0.00    +0.000 N 
BRANCH  19  20
ATOM     20  C   UNL     1      -3.758  13.266  21.503  0.00  0.00    +0.000 A 
ATOM     21  C   UNL     1      -3.761  12.414  22.613  0.00  0.00    +0.000 A 
ATOM     22  C   UNL     1      -3.963  12.940  23.888  0.00  0.00    +0.000 A 
ATOM     23  C   UNL     1      -4.172  14.310  24.052  0.00  0.00    +0.000 A 
ATOM     24  C   UNL     1      -4.209  15.154  22.940  0.00  0.00    +0.000 A 
ATOM     25  C   UNL     1      -4.012  14.633  21.661  0.00  0.00    +0.000 A 
ENDBRANCH  19  20
ENDBRANCH   7   8
BRANCH   1  32
ATOM     26  C   UNL     1       1.035   9.715  20.513  0.00  0.00    +0.000 A 
ATOM     27  C   UNL     1       1.332   8.544  21.206  0.00  0.00    +0.000 A 
ATOM     28  N   UNL     1       1.712   7.365  20.557  0.00  0.00    +0.000 N 
ATOM     29  N   UNL     1       1.197   8.433  22.532  0.00  0.00    +0.000 NA
ATOM     30  C   UNL     1       0.737   9.517  23.159  0.00  0.00    +0.000 A 
ATOM     31  N   UNL     1       0.406  10.681  22.583  0.00  0.00    +0.000 NA
ATOM     32  C   UNL     1       0.576  10.811  21.248  0.00  0.00    +0.000 A 
ATOM     33  H   UNL     1       2.435   7.480  19.855  0.00  0.00    +0.000 HD
ATOM     34  H   UNL     1       1.947   6.665  21.254  0.00  0.00    +0.000 HD
BRANCH  26  36
ATOM     35  N   UNL     1       1.432   9.706  17.959  0.00  0.00    +0.000 NA
ATOM     36  C   UNL     1       1.221   9.728  19.101  0.00  0.00    +0.000 C 
ENDBRANCH  26  36
ENDBRANCH   1  32
TORSDOF 4
ENDMDL
MODEL 4
REMARK VINA RESULT:      -7.6      2.686      4.671
REMARK  Name = 
REMARK  4 active torsions:
REMARK  status: ('A' for Active; 'I' for Inactive)
REMARK    1  A    between atoms: C_2  and  C_3
REMARK    2  A    between atoms: C_9  and  N_10
REMARK    3  A    between atoms: C_16  and  C_17
REMARK    4  A    between atoms: N_28  and  C_29
REMARK                            x       y       z     vdW  Elec       q    Type
REMARK                         _______ _______ _______ _____ _____    ______ ____
ROOT
ATOM      1  N   UNL     1      -0.537  13.103  20.121  0.00  0.00    +0.000 N 
ATOM      2  C   UNL     1       0.053  12.435  21.274  0.00  0.00    +0.000 C 
ATOM      3  C   UNL     1      -0.161  10.966  21.010  0.00  0.00    +0.000 C 
ATOM      4  C   UNL     1       0.791   9.948  21.596  0.00  0.00    +0.000 C 
ATOM      5  C   UNL     1      -0.609  10.050  22.128  0.00  0.00    +0.000 C 
ATOM      6  C   UNL     1      -0.717  10.794  19.625  0.00  0.00    +0.000 C 
ATOM      7  C   UNL     1      -1.340  12.164  19.306  0.00  0.00    +0.000 C 
ENDROOT
BRANCH   7   8
ATOM      8  C   UNL     1      -2.844  12.188  19.727  0.00  0.00    +0.000 A 
ATOM      9  N   UNL     1      -3.166  12.714  20.872  0.00  0.00    +0.000 NA
ATOM     10  C   UNL     1      -4.509  12.771  21.248  0.00  0.00    +0.000 A 
ATOM     11  C   UNL     1      -4.827  13.439  22.436  0.00  0.00    +0.000 A 
ATOM     12  C   UNL     1      -6.154  13.591  22.839  0.00  0.00    +0.000 A 
ATOM     13  C   UNL     1      -7.173  13.051  22.060  0.00  0.00    +0.000 A 
ATOM     14  C   UNL     1      -6.859  12.367  20.885  0.00  0.00    +0.000 A 
ATOM     15  F   UNL     1      -7.875  11.868  20.166  0.00  0.00    +0.000 F 
ATOM     16  C   UNL     1      -5.532  12.230  20.474  0.00  0.00    +0.000 A 
ATOM     17  C   UNL     1      -5.155  11.560  19.215  0.00  0.00    +0.000 A 
ATOM     18  O   UNL     1      -6.015  11.026  18.523  0.00  0.00    +0.000 OA
ATOM     19  N   UNL     1      -3.791  11.596  18.893  0.00  0.00    +0.000 N 
BRANCH  19  20
ATOM     20  C   UNL     1      -3.408  11.050  17.643  0.00  0.00    +0.000 A 
ATOM     21  C   UNL     1      -2.861   9.763  17.598  0.00  0.00    +0.000 A 
ATOM     22  C   UNL     1      -2.630   9.152  16.366  0.00  0.00    +0.000 A 
ATOM     23  C   UNL     1      -2.935   9.829  15.184  0.00  0.00    +0.000 A 
ATOM     24  C   UNL     1      -3.442  11.129  15.229  0.00  0.00    +0.000 A 
ATOM     25  C   UNL     1      -3.671  11.748  16.459  0.00  0.00    +0.000 A 
ENDBRANCH  19  20
ENDBRANCH   7   8
BRANCH   1  32
ATOM     26  C   UNL     1       0.784  14.850  19.002  0.00  0.00    +0.000 A 
ATOM     27  C   UNL     1       0.818  16.193  18.633  0.00  0.00    +0.000 A 
ATOM     28  N   UNL     1       1.914  16.762  17.978  0.00  0.00    +0.000 N 
ATOM     29  N   UNL     1      -0.153  17.057  18.951  0.00  0.00    +0.000 NA
ATOM     30  C   UNL     1      -1.161  16.555  19.666  0.00  0.00    +0.000 A 
ATOM     31  N   UNL     1      -1.279  15.287  20.084  0.00  0.00    +0.000 NA
ATOM     32  C   UNL     1      -0.317  14.402  19.734  0.00  0.00    +0.000 A 
ATOM     33  H   UNL     1       2.257  16.233  17.183  0.00  0.00    +0.000 HD
ATOM     34  H   UNL     1       1.696  17.727  17.745  0.00  0.00    +0.000 HD
BRANCH  26  36
ATOM     35  N   UNL     1       2.733  13.344  18.219  0.00  0.00    +0.000 NA
ATOM     36  C   UNL     1       1.868  14.015  18.606  0.00  0.00    +0.000 C 
ENDBRANCH  26  36
ENDBRANCH   1  32
TORSDOF 4
ENDMDL
MODEL 5
REMARK VINA RESULT:      -7.5      2.366      3.995
REMARK  Name = 
REMARK  4 active torsions:
REMARK  status: ('A' for Active; 'I' for Inactive)
REMARK    1  A    between atoms: C_2  and  C_3
REMARK    2  A    between atoms: C_9  and  N_10
REMARK    3  A    between atoms: C_16  and  C_17
REMARK    4  A    between atoms: N_28  and  C_29
REMARK                            x       y       z     vdW  Elec       q    Type
REMARK                         _______ _______ _______ _____ _____    ______ ____
ROOT
ATOM      1  N   UNL     1      -1.490  15.208  21.644  0.00  0.00    +0.000 N 
ATOM      2  C   UNL     1      -2.237  15.801  22.746  0.00  0.00    +0.000 C 
ATOM      3  C   UNL     1      -2.500  14.652  23.685  0.00  0.00    +0.000 C 
ATOM      4  C   UNL     1      -2.679  14.912  25.164  0.00  0.00    +0.000 C 
ATOM      5  C   UNL     1      -3.858  14.494  24.334  0.00  0.00    +0.000 C 
ATOM      6  C   UNL     1      -1.751  13.442  23.200  0.00  0.00    +0.000 C 
ATOM      7  C   UNL     1      -1.516  13.730  21.707  0.00  0.00    +0.000 C 
ENDROOT
BRANCH   7   8
ATOM      8  C   UNL     1      -2.684  13.144  20.851  0.00  0.00    +0.000 A 
ATOM      9  N   UNL     1      -3.908  13.324  21.254  0.00  0.00    +0.000 NA
ATOM     10  C   UNL     1      -4.963  12.833  20.484  0.00  0.00    +0.000 A 
ATOM     11  C   UNL     1      -6.267  13.137  20.892  0.00  0.00    +0.000 A 
ATOM     12  C   UNL     1      -7.367  12.735  20.134  0.00  0.00    +0.000 A 
ATOM     13  C   UNL     1      -7.165  12.002  18.968  0.00  0.00    +0.000 A 
ATOM     14  C   UNL     1      -5.869  11.679  18.569  0.00  0.00    +0.000 A 
ATOM     15  F   UNL     1      -5.724  10.975  17.437  0.00  0.00    +0.000 F 
ATOM     16  C   UNL     1      -4.767  12.097  19.319  0.00  0.00    +0.000 A 
ATOM     17  C   UNL     1      -3.376  11.823  18.909  0.00  0.00    +0.000 A 
ATOM     18  O   UNL     1      -3.153  11.138  17.917  0.00  0.00    +0.000 OA
ATOM     19  N   UNL     1      -2.383  12.397  19.714  0.00  0.00    +0.000 N 
BRANCH  19  20
ATOM     20  C   UNL     1      -1.039  12.239  19.293  0.00  0.00    +0.000 A 
ATOM     21  C   UNL     1      -0.454  13.221  18.486  0.00  0.00    +0.000 A 
ATOM     22  C   UNL     1       0.908  13.161  18.199  0.00  0.00    +0.000 A 
ATOM     23  C   UNL     1       1.682  12.116  18.708  0.00  0.00    +0.000 A 
ATOM     24  C   UNL     1       1.090  11.114  19.478  0.00  0.00    +0.000 A 
ATOM     25  C   UNL     1      -0.275  11.166  19.765  0.00  0.00    +0.000 A 
ENDBRANCH  19  20
ENDBRANCH   7   8
BRANCH   1  32
ATOM     26  C   UNL     1       0.646  15.938  20.668  0.00  0.00    +0.000 A 
ATOM     27  C   UNL     1       1.243  16.617  19.608  0.00  0.00    +0.000 A 
ATOM     28  N   UNL     1       2.626  16.804  19.521  0.00  0.00    +0.000 N 
ATOM     29  N   UNL     1       0.537  17.212  18.639  0.00  0.00    +0.000 NA
ATOM     30  C   UNL     1      -0.789  17.132  18.759  0.00  0.00    +0.000 A 
ATOM     31  N   UNL     1      -1.458  16.520  19.746  0.00  0.00    +0.000 NA
ATOM     32  C   UNL     1      -0.748  15.886  20.708  0.00  0.00    +0.000 A 
ATOM     33  H   UNL     1       3.179  15.969  19.681  0.00  0.00    +0.000 HD
ATOM     34  H   UNL     1       2.844  17.258  18.639  0.00  0.00    +0.000 HD
BRANCH  26  36
ATOM     35  N   UNL     1       2.230  14.836  22.389  0.00  0.00    +0.000 NA
ATOM     36  C   UNL     1       1.492  15.334  21.642  0.00  0.00    +0.000 C 
ENDBRANCH  26  36
ENDBRANCH   1  32
TORSDOF 4
ENDMDL
MODEL 6
REMARK VINA RESULT:      -7.5      2.557      5.013
REMARK  Name = 
REMARK  4 active torsions:
REMARK  status: ('A' for Active; 'I' for Inactive)
REMARK    1  A    between atoms: C_2  and  C_3
REMARK    2  A    between atoms: C_9  and  N_10
REMARK    3  A    between atoms: C_16  and  C_17
REMARK    4  A    between atoms: N_28  and  C_29
REMARK                            x       y       z     vdW  Elec       q    Type
REMARK                         _______ _______ _______ _____ _____    ______ ____
ROOT
ATOM      1  N   UNL     1       0.416  12.206  20.269  0.00  0.00    +0.000 N 
ATOM      2  C   UNL     1       0.796  11.493  21.482  0.00  0.00    +0.000 C 
ATOM      3  C   UNL     1       0.118  10.153  21.360  0.00  0.00    +0.000 C 
ATOM      4  C   UNL     1       0.712   8.942  22.043  0.00  0.00    +0.000 C 
ATOM      5  C   UNL     1      -0.567   9.535  22.560  0.00  0.00    +0.000 C 
ATOM      6  C   UNL     1      -0.505  10.041  19.996  0.00  0.00    +0.000 C 
ATOM      7  C   UNL     1      -0.667  11.503  19.546  0.00  0.00    +0.000 C 
ENDROOT
BRANCH   7   8
ATOM      8  C   UNL     1      -2.072  12.045  19.959  0.00  0.00    +0.000 A 
ATOM      9  N   UNL     1      -2.188  12.697  21.079  0.00  0.00    +0.000 NA
ATOM     10  C   UNL     1      -3.431  13.214  21.447  0.00  0.00    +0.000 A 
ATOM     11  C   UNL     1      -3.495  14.000  22.603  0.00  0.00    +0.000 A 
ATOM     12  C   UNL     1      -4.691  14.603  22.994  0.00  0.00    +0.000 A 
ATOM     13  C   UNL     1      -5.840  14.402  22.235  0.00  0.00    +0.000 A 
ATOM     14  C   UNL     1      -5.785  13.603  21.093  0.00  0.00    +0.000 A 
ATOM     15  F   UNL     1      -6.916  13.443  20.392  0.00  0.00    +0.000 F 
ATOM     16  C   UNL     1      -4.584  13.014  20.693  0.00  0.00    +0.000 A 
ATOM     17  C   UNL     1      -4.465  12.204  19.466  0.00  0.00    +0.000 A 
ATOM     18  O   UNL     1      -5.462  11.959  18.794  0.00  0.00    +0.000 OA
ATOM     19  N   UNL     1      -3.172  11.769  19.148  0.00  0.00    +0.000 N 
BRANCH  19  20
ATOM     20  C   UNL     1      -3.006  11.074  17.924  0.00  0.00    +0.000 A 
ATOM     21  C   UNL     1      -3.312   9.710  17.865  0.00  0.00    +0.000 A 
ATOM     22  C   UNL     1      -3.309   9.053  16.636  0.00  0.00    +0.000 A 
ATOM     23  C   UNL     1      -2.990   9.754  15.472  0.00  0.00    +0.000 A 
ATOM     24  C   UNL     1      -2.645  11.104  15.536  0.00  0.00    +0.000 A 
ATOM     25  C   UNL     1      -2.642  11.767  16.764  0.00  0.00    +0.000 A 
ENDBRANCH  19  20
ENDBRANCH   7   8
BRANCH   1  32
ATOM     26  C   UNL     1       1.959  13.333  18.719  0.00  0.00    +0.000 A 
ATOM     27  C   UNL     1       2.432  14.566  18.277  0.00  0.00    +0.000 A 
ATOM     28  N   UNL     1       3.431  14.681  17.305  0.00  0.00    +0.000 N 
ATOM     29  N   UNL     1       2.031  15.728  18.805  0.00  0.00    +0.000 NA
ATOM     30  C   UNL     1       1.153  15.635  19.806  0.00  0.00    +0.000 A 
ATOM     31  N   UNL     1       0.652  14.501  20.314  0.00  0.00    +0.000 NA
ATOM     32  C   UNL     1       1.027  13.325  19.759  0.00  0.00    +0.000 A 
ATOM     33  H   UNL     1       3.288  14.111  16.478  0.00  0.00    +0.000 HD
ATOM     34  H   UNL     1       3.569  15.663  17.087  0.00  0.00    +0.000 HD
BRANCH  26  36
ATOM     35  N   UNL     1       2.797  11.204  17.516  0.00  0.00    +0.000 NA
ATOM     36  C   UNL     1       2.448  12.156  18.082  0.00  0.00    +0.000 C 
ENDBRANCH  26  36
ENDBRANCH   1  32
TORSDOF 4
ENDMDL
MODEL 7
REMARK VINA RESULT:      -7.4      2.142      4.008
REMARK  Name = 
REMARK  4 active torsions:
REMARK  status: ('A' for Active; 'I' for Inactive)
REMARK    1  A    between atoms: C_2  and  C_3
REMARK    2  A    between atoms: C_9  and  N_10
REMARK    3  A    between atoms: C_16  and  C_17
REMARK    4  A    between atoms: N_28  and  C_29
REMARK                            x       y       z     vdW  Elec       q    Type
REMARK                         _______ _______ _______ _____ _____    ______ ____
ROOT
ATOM      1  N   UNL     1      -0.672  13.872  21.637  0.00  0.00    +0.000 N 
ATOM      2  C   UNL     1      -1.407  14.845  22.435  0.00  0.00    +0.000 C 
ATOM      3  C   UNL     1      -2.342  14.016  23.276  0.00  0.00    +0.000 C 
ATOM      4  C   UNL     1      -2.809  14.532  24.618  0.00  0.00    +0.000 C 
ATOM      5  C   UNL     1      -3.778  14.453  23.473  0.00  0.00    +0.000 C 
ATOM      6  C   UNL     1      -2.017  12.561  23.081  0.00  0.00    +0.000 C 
ATOM      7  C   UNL     1      -1.284  12.528  21.728  0.00  0.00    +0.000 C 
ENDROOT
BRANCH   7   8
ATOM      8  C   UNL     1      -2.300  12.284  20.567  0.00  0.00    +0.000 A 
ATOM      9  N   UNL     1      -3.484  12.818  20.648  0.00  0.00    +0.000 NA
ATOM     10  C   UNL     1      -4.392  12.635  19.603  0.00  0.00    +0.000 A 
ATOM     11  C   UNL     1      -5.615  13.312  19.675  0.00  0.00    +0.000 A 
ATOM     12  C   UNL     1      -6.542  13.227  18.636  0.00  0.00    +0.000 A 
ATOM     13  C   UNL     1      -6.256  12.441  17.524  0.00  0.00    +0.000 A 
ATOM     14  C   UNL     1      -5.047  11.748  17.458  0.00  0.00    +0.000 A 
ATOM     15  F   UNL     1      -4.814  11.008  16.365  0.00  0.00    +0.000 F 
ATOM     16  C   UNL     1      -4.112  11.848  18.490  0.00  0.00    +0.000 A 
ATOM     17  C   UNL     1      -2.799  11.175  18.442  0.00  0.00    +0.000 A 
ATOM     18  O   UNL     1      -2.525  10.432  17.505  0.00  0.00    +0.000 OA
ATOM     19  N   UNL     1      -1.934  11.457  19.507  0.00  0.00    +0.000 N 
BRANCH  19  20
ATOM     20  C   UNL     1      -0.629  10.908  19.442  0.00  0.00    +0.000 A 
ATOM     21  C   UNL     1      -0.333   9.757  20.181  0.00  0.00    +0.000 A 
ATOM     22  C   UNL     1       0.891   9.116  20.002  0.00  0.00    +0.000 A 
ATOM     23  C   UNL     1       1.821   9.628  19.096  0.00  0.00    +0.000 A 
ATOM     24  C   UNL     1       1.542  10.798  18.389  0.00  0.00    +0.000 A 
ATOM     25  C   UNL     1       0.320  11.448  18.567  0.00  0.00    +0.000 A 
ENDBRANCH  19  20
ENDBRANCH   7   8
BRANCH   1  32
ATOM     26  C   UNL     1       0.690  15.058  19.968  0.00  0.00    +0.000 A 
ATOM     27  C   UNL     1       1.968  15.199  19.430  0.00  0.00    +0.000 A 
ATOM     28  N   UNL     1       2.244  16.069  18.372  0.00  0.00    +0.000 N 
ATOM     29  N   UNL     1       3.006  14.454  19.826  0.00  0.00    +0.000 NA
ATOM     30  C   UNL     1       2.740  13.545  20.765  0.00  0.00    +0.000 A 
ATOM     31  N   UNL     1       1.547  13.320  21.331  0.00  0.00    +0.000 NA
ATOM     32  C   UNL     1       0.502  14.095  20.961  0.00  0.00    +0.000 A 
ATOM     33  H   UNL     1       1.870  17.006  18.482  0.00  0.00    +0.000 HD
ATOM     34  H   UNL     1       3.243  16.063  18.189  0.00  0.00    +0.000 HD
BRANCH  26  36
ATOM     35  N   UNL     1      -1.139  16.649  19.071  0.00  0.00    +0.000 NA
ATOM     36  C   UNL     1      -0.343  15.908  19.479  0.00  0.00    +0.000 C 
ENDBRANCH  26  36
ENDBRANCH   1  32
TORSDOF 4
ENDMDL
MODEL 8
REMARK VINA RESULT:      -7.4      2.439      4.688
REMARK  Name = 
REMARK  4 active torsions:
REMARK  status: ('A' for Active; 'I' for Inactive)
REMARK    1  A    between atoms: C_2  and  C_3
REMARK    2  A    between atoms: C_9  and  N_10
REMARK    3  A    between atoms: C_16  and  C_17
REMARK    4  A    between atoms: N_28  and  C_29
REMARK                            x       y       z     vdW  Elec       q    Type
REMARK                         _______ _______ _______ _____ _____    ______ ____
ROOT
ATOM      1  N   UNL     1       0.673  11.877  20.164  0.00  0.00    +0.000 N 
ATOM      2  C   UNL     1       1.037  11.114  21.351  0.00  0.00    +0.000 C 
ATOM      3  C   UNL     1       0.256   9.831  21.229  0.00  0.00    +0.000 C 
ATOM      4  C   UNL     1       0.779   8.566  21.870  0.00  0.00    +0.000 C 
ATOM      5  C   UNL     1      -0.434   9.242  22.440  0.00  0.00    +0.000 C 
ATOM      6  C   UNL     1      -0.417   9.793  19.886  0.00  0.00    +0.000 C 
ATOM      7  C   UNL     1      -0.483  11.272  19.467  0.00  0.00    +0.000 C 
ENDROOT
BRANCH   7   8
ATOM      8  C   UNL     1      -1.830  11.910  19.937  0.00  0.00    +0.000 A 
ATOM      9  N   UNL     1      -1.859  12.545  21.072  0.00  0.00    +0.000 NA
ATOM     10  C   UNL     1      -3.047  13.147  21.490  0.00  0.00    +0.000 A 
ATOM     11  C   UNL     1      -3.013  13.912  22.662  0.00  0.00    +0.000 A 
ATOM     12  C   UNL     1      -4.147  14.595  23.104  0.00  0.00    +0.000 A 
ATOM     13  C   UNL     1      -5.332  14.496  22.381  0.00  0.00    +0.000 A 
ATOM     14  C   UNL     1      -5.375  13.718  21.224  0.00  0.00    +0.000 A 
ATOM     15  F   UNL     1      -6.537  13.656  20.559  0.00  0.00    +0.000 F 
ATOM     16  C   UNL     1      -4.235  13.049  20.773  0.00  0.00    +0.000 A 
ATOM     17  C   UNL     1      -4.219  12.256  19.528  0.00  0.00    +0.000 A 
ATOM     18  O   UNL     1      -5.253  12.101  18.887  0.00  0.00    +0.000 OA
ATOM     19  N   UNL     1      -2.973  11.732  19.160  0.00  0.00    +0.000 N 
BRANCH  19  20
ATOM     20  C   UNL     1      -2.900  11.051  17.919  0.00  0.00    +0.000 A 
ATOM     21  C   UNL     1      -3.284   9.708  17.852  0.00  0.00    +0.000 A 
ATOM     22  C   UNL     1      -3.372   9.074  16.615  0.00  0.00    +0.000 A 
ATOM     23  C   UNL     1      -3.066   9.776  15.448  0.00  0.00    +0.000 A 
ATOM     24  C   UNL     1      -2.643  11.104  15.518  0.00  0.00    +0.000 A 
ATOM     25  C   UNL     1      -2.549  11.744  16.754  0.00  0.00    +0.000 A 
ENDBRANCH  19  20
ENDBRANCH   7   8
BRANCH   1  32
ATOM     26  C   UNL     1       1.491  14.194  20.287  0.00  0.00    +0.000 A 
ATOM     27  C   UNL     1       2.269  15.163  19.658  0.00  0.00    +0.000 A 
ATOM     28  N   UNL     1       2.402  16.460  20.162  0.00  0.00    +0.000 N 
ATOM     29  N   UNL     1       2.878  14.955  18.485  0.00  0.00    +0.000 NA
ATOM     30  C   UNL     1       2.680  13.755  17.936  0.00  0.00    +0.000 A 
ATOM     31  N   UNL     1       1.937  12.765  18.450  0.00  0.00    +0.000 NA
ATOM     32  C   UNL     1       1.350  12.958  19.653  0.00  0.00    +0.000 A 
ATOM     33  H   UNL     1       2.616  16.513  21.153  0.00  0.00    +0.000 HD
ATOM     34  H   UNL     1       3.065  16.972  19.588  0.00  0.00    +0.000 HD
BRANCH  26  36
ATOM     35  N   UNL     1       0.467  14.789  22.584  0.00  0.00    +0.000 NA
ATOM     36  C   UNL     1       0.893  14.518  21.538  0.00  0.00    +0.000 C 
ENDBRANCH  26  36
ENDBRANCH   1  32
TORSDOF 4
ENDMDL
MODEL 9
REMARK VINA RESULT:      -7.4      3.052      5.832
REMARK  Name = 
REMARK  4 active torsions:
REMARK  status: ('A' for Active; 'I' for Inactive)
REMARK    1  A    between atoms: C_2  and  C_3
REMARK    2  A    between atoms: C_9  and  N_10
REMARK    3  A    between atoms: C_16  and  C_17
REMARK    4  A    between atoms: N_28  and  C_29
REMARK                            x       y       z     vdW  Elec       q    Type
REMARK                         _______ _______ _______ _____ _____    ______ ____
ROOT
ATOM      1  N   UNL     1      -1.151  10.581  19.154  0.00  0.00    +0.000 N 
ATOM      2  C   UNL     1      -2.139  10.070  18.211  0.00  0.00    +0.000 C 
ATOM      3  C   UNL     1      -2.339  11.195  17.227  0.00  0.00    +0.000 C 
ATOM      4  C   UNL     1      -2.770  10.890  15.811  0.00  0.00    +0.000 C 
ATOM      5  C   UNL     1      -3.731  11.554  16.755  0.00  0.00    +0.000 C 
ATOM      6  C   UNL     1      -1.336  12.278  17.512  0.00  0.00    +0.000 C 
ATOM      7  C   UNL     1      -0.939  12.035  18.978  0.00  0.00    +0.000 C 
ENDROOT
BRANCH   7   8
ATOM      8  C   UNL     1      -1.855  12.864  19.933  0.00  0.00    +0.000 A 
ATOM      9  N   UNL     1      -3.065  12.443  20.162  0.00  0.00    +0.000 NA
ATOM     10  C   UNL     1      -3.886  13.156  21.037  0.00  0.00    +0.000 A 
ATOM     11  C   UNL     1      -5.140  12.617  21.342  0.00  0.00    +0.000 A 
ATOM     12  C   UNL     1      -5.985  13.242  22.260  0.00  0.00    +0.000 A 
ATOM     13  C   UNL     1      -5.583  14.430  22.863  0.00  0.00    +0.000 A 
ATOM     14  C   UNL     1      -4.342  14.982  22.546  0.00  0.00    +0.000 A 
ATOM     15  F   UNL     1      -3.996  16.125  23.155  0.00  0.00    +0.000 F 
ATOM     16  C   UNL     1      -3.490  14.346  21.641  0.00  0.00    +0.000 A 
ATOM     17  C   UNL     1      -2.148  14.865  21.314  0.00  0.00    +0.000 A 
ATOM     18  O   UNL     1      -1.772  15.934  21.783  0.00  0.00    +0.000 OA
ATOM     19  N   UNL     1      -1.375  14.058  20.467  0.00  0.00    +0.000 N 
BRANCH  19  20
ATOM     20  C   UNL     1      -0.045  14.476  20.213  0.00  0.00    +0.000 A 
ATOM     21  C   UNL     1       0.990  13.993  21.022  0.00  0.00    +0.000 A 
ATOM     22  C   UNL     1       2.315  14.265  20.686  0.00  0.00    +0.000 A 
ATOM     23  C   UNL     1       2.605  15.026  19.552  0.00  0.00    +0.000 A 
ATOM     24  C   UNL     1       1.571  15.542  18.769  0.00  0.00    +0.000 A 
ATOM     25  C   UNL     1       0.242  15.277  19.102  0.00  0.00    +0.000 A 
ENDBRANCH  19  20
ENDBRANCH   7   8
BRANCH   1  32
ATOM     26  C   UNL     1       0.750   9.122  19.707  0.00  0.00    +0.000 A 
ATOM     27  C   UNL     1       1.426   8.471  20.737  0.00  0.00    +0.000 A 
ATOM     28  N   UNL     1       2.540   7.659  20.506  0.00  0.00    +0.000 N 
ATOM     29  N   UNL     1       1.013   8.505  22.009  0.00  0.00    +0.000 NA
ATOM     30  C   UNL     1      -0.108   9.192  22.235  0.00  0.00    +0.000 A 
ATOM     31  N   UNL     1      -0.839   9.835  21.314  0.00  0.00    +0.000 NA
ATOM     32  C   UNL     1      -0.405   9.835  20.033  0.00  0.00    +0.000 A 
ATOM     33  H   UNL     1       3.248   8.068  19.906  0.00  0.00    +0.000 HD
ATOM     34  H   UNL     1       2.912   7.346  21.398  0.00  0.00    +0.000 HD
BRANCH  26  36
ATOM     35  N   UNL     1       1.774   8.945  17.340  0.00  0.00    +0.000 NA
ATOM     36  C   UNL     1       1.280   9.028  18.388  0.00  0.00    +0.000 C 
ENDBRANCH  26  36
ENDBRANCH   1  32
TORSDOF 4
ENDMDL
