MODEL 1
REMARK VINA RESULT:      -8.0      0.000      0.000
REMARK  Name = 
REMARK  1 active torsions:
REMARK  status: ('A' for Active; 'I' for Inactive)
REMARK    1  A    between atoms: O_1  and  C_2
REMARK                            x       y       z     vdW  Elec       q    Type
REMARK                         _______ _______ _______ _____ _____    ______ ____
ROOT
ATOM      1  C   UNL     1       5.750   4.186  14.932  0.00  0.00    +0.000 A 
ATOM      2  C   UNL     1       5.806   5.565  14.796  0.00  0.00    +0.000 A 
ATOM      3  C   UNL     1       5.124   6.369  15.707  0.00  0.00    +0.000 A 
ATOM      4  C   UNL     1       4.389   5.796  16.757  0.00  0.00    +0.000 A 
ATOM      5  C   UNL     1       4.258   4.389  16.841  0.00  0.00    +0.000 A 
ATOM      6  C   UNL     1       4.980   3.596  15.927  0.00  0.00    +0.000 A 
ATOM      7  C   UNL     1       3.450   3.745  17.990  0.00  0.00    +0.000 C 
ATOM      8  C   UNL     1       2.655   2.504  17.499  0.00  0.00    +0.000 C 
ATOM      9  C   UNL     1       1.670   1.946  18.529  0.00  0.00    +0.000 C 
ATOM     10  C   UNL     1       0.725   3.018  19.053  0.00  0.00    +0.000 C 
ATOM     11  C   UNL     1       1.494   4.207  19.619  0.00  0.00    +0.000 C 
ATOM     12  C   UNL     1       2.443   4.781  18.558  0.00  0.00    +0.000 C 
ATOM     13  C   UNL     1       3.243   5.997  19.046  0.00  0.00    +0.000 C 
ATOM     14  C   UNL     1       3.790   6.719  17.797  0.00  0.00    +0.000 C 
ATOM     15  N   UNL     1       4.272   5.667  20.057  0.00  0.00    +0.000 NA
ATOM     16  C   UNL     1       5.190   4.600  19.645  0.00  0.00    +0.000 C 
ATOM     17  C   UNL     1       4.459   3.366  19.105  0.00  0.00    +0.000 C 
ATOM     18  H   UNL     1       3.809   5.376  20.918  0.00  0.00    +0.000 HD
ENDROOT
BRANCH   1  19
ATOM     19  O   UNL     1       6.469   3.365  14.114  0.00  0.00    +0.000 OA
ATOM     20  H   UNL     1       7.055   3.916  13.570  0.00  0.00    +0.000 HD
ENDBRANCH   1  19
TORSDOF 1
ENDMDL
MODEL 2
REMARK VINA RESULT:      -7.4      2.550      4.690
REMARK  Name = 
REMARK  1 active torsions:
REMARK  status: ('A' for Active; 'I' for Inactive)
REMARK    1  A    between atoms: O_1  and  C_2
REMARK                            x       y       z     vdW  Elec       q    Type
REMARK                         _______ _______ _______ _____ _____    ______ ____
ROOT
ATOM      1  C   UNL     1       2.768   2.709  18.313  0.00  0.00    +0.000 A 
ATOM      2  C   UNL     1       1.692   3.575  18.190  0.00  0.00    +0.000 A 
ATOM      3  C   UNL     1       1.923   4.910  17.866  0.00  0.00    +0.000 A 
ATOM      4  C   UNL     1       3.230   5.380  17.659  0.00  0.00    +0.000 A 
ATOM      5  C   UNL     1       4.332   4.518  17.874  0.00  0.00    +0.000 A 
ATOM      6  C   UNL     1       4.074   3.165  18.173  0.00  0.00    +0.000 A 
ATOM      7  C   UNL     1       5.776   5.023  17.653  0.00  0.00    +0.000 C 
ATOM      8  C   UNL     1       6.751   4.435  18.709  0.00  0.00    +0.000 C 
ATOM      9  C   UNL     1       8.150   5.056  18.682  0.00  0.00    +0.000 C 
ATOM     10  C   UNL     1       8.102   6.574  18.780  0.00  0.00    +0.000 C 
ATOM     11  C   UNL     1       7.215   7.173  17.693  0.00  0.00    +0.000 C 
ATOM     12  C   UNL     1       5.804   6.571  17.765  0.00  0.00    +0.000 C 
ATOM     13  C   UNL     1       4.843   7.138  16.711  0.00  0.00    +0.000 C 
ATOM     14  C   UNL     1       3.409   6.801  17.169  0.00  0.00    +0.000 C 
ATOM     15  N   UNL     1       5.156   6.712  15.328  0.00  0.00    +0.000 NA
ATOM     16  C   UNL     1       5.274   5.260  15.165  0.00  0.00    +0.000 C 
ATOM     17  C   UNL     1       6.189   4.618  16.214  0.00  0.00    +0.000 C 
ATOM     18  H   UNL     1       6.037   7.139  15.042  0.00  0.00    +0.000 HD
ENDROOT
BRANCH   1  19
ATOM     19  O   UNL     1       2.583   1.378  18.548  0.00  0.00    +0.000 OA
ATOM     20  H   UNL     1       1.852   1.070  17.987  0.00  0.00    +0.000 HD
ENDBRANCH   1  19
TORSDOF 1
ENDMDL
MODEL 3
REMARK VINA RESULT:      -7.3      2.381      3.000
REMARK  Name = 
REMARK  1 active torsions:
REMARK  status: ('A' for Active; 'I' for Inactive)
REMARK    1  A    between atoms: O_1  and  C_2
REMARK                            x       y       z     vdW  Elec       q    Type
REMARK                         _______ _______ _______ _____ _____    ______ ____
ROOT
ATOM      1  C   UNL     1       7.626   5.708  19.289  0.00  0.00    +0.000 A 
ATOM      2  C   UNL     1       7.741   6.677  18.304  0.00  0.00    +0.000 A 
ATOM      3  C   UNL     1       6.639   6.972  17.504  0.00  0.00    +0.000 A 
ATOM      4  C   UNL     1       5.419   6.301  17.692  0.00  0.00    +0.000 A 
ATOM      5  C   UNL     1       5.330   5.249  18.634  0.00  0.00    +0.000 A 
ATOM      6  C   UNL     1       6.448   4.989  19.452  0.00  0.00    +0.000 A 
ATOM      7  C   UNL     1       3.995   4.501  18.848  0.00  0.00    +0.000 C 
ATOM      8  C   UNL     1       4.227   2.985  19.098  0.00  0.00    +0.000 C 
ATOM      9  C   UNL     1       2.945   2.150  19.106  0.00  0.00    +0.000 C 
ATOM     10  C   UNL     1       2.115   2.367  17.848  0.00  0.00    +0.000 C 
ATOM     11  C   UNL     1       1.805   3.846  17.637  0.00  0.00    +0.000 C 
ATOM     12  C   UNL     1       3.105   4.661  17.586  0.00  0.00    +0.000 C 
ATOM     13  C   UNL     1       2.877   6.162  17.357  0.00  0.00    +0.000 C 
ATOM     14  C   UNL     1       4.220   6.764  16.892  0.00  0.00    +0.000 C 
ATOM     15  N   UNL     1       2.267   6.856  18.513  0.00  0.00    +0.000 NA
ATOM     16  C   UNL     1       2.981   6.648  19.777  0.00  0.00    +0.000 C 
ATOM     17  C   UNL     1       3.281   5.170  20.052  0.00  0.00    +0.000 C 
ATOM     18  H   UNL     1       1.309   6.526  18.629  0.00  0.00    +0.000 HD
ENDROOT
BRANCH   1  19
ATOM     19  O   UNL     1       8.654   5.446  20.148  0.00  0.00    +0.000 OA
ATOM     20  H   UNL     1       8.295   4.968  20.914  0.00  0.00    +0.000 HD
ENDBRANCH   1  19
TORSDOF 1
ENDMDL
MODEL 4
REMARK VINA RESULT:      -7.2      2.677      3.734
REMARK  Name = 
REMARK  1 active torsions:
REMARK  status: ('A' for Active; 'I' for Inactive)
REMARK    1  A    between atoms: O_1  and  C_2
REMARK                            x       y       z     vdW  Elec       q    Type
REMARK                         _______ _______ _______ _____ _____    ______ ____
ROOT
ATOM      1  C   UNL     1       2.703   7.933  17.677  0.00  0.00    +0.000 A 
ATOM      2  C   UNL     1       4.031   8.033  17.289  0.00  0.00    +0.000 A 
ATOM      3  C   UNL     1       4.886   6.954  17.499  0.00  0.00    +0.000 A 
ATOM      4  C   UNL     1       4.415   5.772  18.093  0.00  0.00    +0.000 A 
ATOM      5  C   UNL     1       3.085   5.705  18.572  0.00  0.00    +0.000 A 
ATOM      6  C   UNL     1       2.230   6.796  18.322  0.00  0.00    +0.000 A 
ATOM      7  C   UNL     1       2.554   4.411  19.230  0.00  0.00    +0.000 C 
ATOM      8  C   UNL     1       1.607   4.727  20.420  0.00  0.00    +0.000 C 
ATOM      9  C   UNL     1       1.215   3.502  21.248  0.00  0.00    +0.000 C 
ATOM     10  C   UNL     1       2.432   2.721  21.723  0.00  0.00    +0.000 C 
ATOM     11  C   UNL     1       3.330   2.328  20.554  0.00  0.00    +0.000 C 
ATOM     12  C   UNL     1       3.749   3.575  19.762  0.00  0.00    +0.000 C 
ATOM     13  C   UNL     1       4.672   3.263  18.575  0.00  0.00    +0.000 C 
ATOM     14  C   UNL     1       5.352   4.585  18.163  0.00  0.00    +0.000 C 
ATOM     15  N   UNL     1       3.996   2.555  17.464  0.00  0.00    +0.000 NA
ATOM     16  C   UNL     1       2.779   3.220  16.987  0.00  0.00    +0.000 C 
ATOM     17  C   UNL     1       1.826   3.600  18.127  0.00  0.00    +0.000 C 
ATOM     18  H   UNL     1       3.747   1.616  17.773  0.00  0.00    +0.000 HD
ENDROOT
BRANCH   1  19
ATOM     19  O   UNL     1       1.812   8.933  17.417  0.00  0.00    +0.000 OA
ATOM     20  H   UNL     1       0.972   8.713  17.853  0.00  0.00    +0.000 HD
ENDBRANCH   1  19
TORSDOF 1
ENDMDL
MODEL 5
REMARK VINA RESULT:      -7.0      2.504      4.754
REMARK  Name = 
REMARK  1 active torsions:
REMARK  status: ('A' for Active; 'I' for Inactive)
REMARK    1  A    between atoms: O_1  and  C_2
REMARK                            x       y       z     vdW  Elec       q    Type
REMARK                         _______ _______ _______ _____ _____    ______ ____
ROOT
ATOM      1  C   UNL     1       2.605   8.324  18.141  0.00  0.00    +0.000 A 
ATOM      2  C   UNL     1       1.794   7.585  18.989  0.00  0.00    +0.000 A 
ATOM      3  C   UNL     1       2.056   6.229  19.174  0.00  0.00    +0.000 A 
ATOM      4  C   UNL     1       3.131   5.612  18.514  0.00  0.00    +0.000 A 
ATOM      5  C   UNL     1       3.900   6.345  17.579  0.00  0.00    +0.000 A 
ATOM      6  C   UNL     1       3.636   7.721  17.431  0.00  0.00    +0.000 A 
ATOM      7  C   UNL     1       5.084   5.677  16.843  0.00  0.00    +0.000 C 
ATOM      8  C   UNL     1       5.184   6.162  15.371  0.00  0.00    +0.000 C 
ATOM      9  C   UNL     1       6.196   5.387  14.526  0.00  0.00    +0.000 C 
ATOM     10  C   UNL     1       5.956   3.885  14.582  0.00  0.00    +0.000 C 
ATOM     11  C   UNL     1       5.942   3.379  16.021  0.00  0.00    +0.000 C 
ATOM     12  C   UNL     1       4.889   4.137  16.842  0.00  0.00    +0.000 C 
ATOM     13  C   UNL     1       4.800   3.672  18.302  0.00  0.00    +0.000 C 
ATOM     14  C   UNL     1       3.453   4.175  18.864  0.00  0.00    +0.000 C 
ATOM     15  N   UNL     1       5.977   4.045  19.119  0.00  0.00    +0.000 NA
ATOM     16  C   UNL     1       6.306   5.473  19.071  0.00  0.00    +0.000 C 
ATOM     17  C   UNL     1       6.370   6.018  17.640  0.00  0.00    +0.000 C 
ATOM     18  H   UNL     1       6.787   3.519  18.793  0.00  0.00    +0.000 HD
ENDROOT
BRANCH   1  19
ATOM     19  O   UNL     1       2.435   9.670  17.995  0.00  0.00    +0.000 OA
ATOM     20  H   UNL     1       1.661   9.819  17.427  0.00  0.00    +0.000 HD
ENDBRANCH   1  19
TORSDOF 1
ENDMDL
MODEL 6
REMARK VINA RESULT:      -6.9      1.769      3.278
REMARK  Name = 
REMARK  1 active torsions:
REMARK  status: ('A' for Active; 'I' for Inactive)
REMARK    1  A    between atoms: O_1  and  C_2
REMARK                            x       y       z     vdW  Elec       q    Type
REMARK                         _______ _______ _______ _____ _____    ______ ____
ROOT
ATOM      1  C   UNL     1       6.010   5.433  15.758  0.00  0.00    +0.000 A 
ATOM      2  C   UNL     1       6.795   4.523  16.451  0.00  0.00    +0.000 A 
ATOM      3  C   UNL     1       6.383   4.084  17.708  0.00  0.00    +0.000 A 
ATOM      4  C   UNL     1       5.184   4.549  18.271  0.00  0.00    +0.000 A 
ATOM      5  C   UNL     1       4.431   5.545  17.605  0.00  0.00    +0.000 A 
ATOM      6  C   UNL     1       4.851   5.953  16.322  0.00  0.00    +0.000 A 
ATOM      7  C   UNL     1       3.111   6.068  18.215  0.00  0.00    +0.000 C 
ATOM      8  C   UNL     1       2.939   7.593  17.974  0.00  0.00    +0.000 C 
ATOM      9  C   UNL     1       1.765   8.216  18.731  0.00  0.00    +0.000 C 
ATOM     10  C   UNL     1       1.820   7.910  20.221  0.00  0.00    +0.000 C 
ATOM     11  C   UNL     1       1.901   6.408  20.476  0.00  0.00    +0.000 C 
ATOM     12  C   UNL     1       3.111   5.809  19.745  0.00  0.00    +0.000 C 
ATOM     13  C   UNL     1       3.273   4.299  19.968  0.00  0.00    +0.000 C 
ATOM     14  C   UNL     1       4.718   3.928  19.570  0.00  0.00    +0.000 C 
ATOM     15  N   UNL     1       2.232   3.483  19.303  0.00  0.00    +0.000 NA
ATOM     16  C   UNL     1       2.081   3.761  17.872  0.00  0.00    +0.000 C 
ATOM     17  C   UNL     1       1.956   5.260  17.570  0.00  0.00    +0.000 C 
ATOM     18  H   UNL     1       1.336   3.655  19.760  0.00  0.00    +0.000 HD
ENDROOT
BRANCH   1  19
ATOM     19  O   UNL     1       6.332   5.826  14.493  0.00  0.00    +0.000 OA
ATOM     20  H   UNL     1       6.968   5.188  14.129  0.00  0.00    +0.000 HD
ENDBRANCH   1  19
TORSDOF 1
ENDMDL
MODEL 7
REMARK VINA RESULT:      -6.9      2.632      5.144
REMARK  Name = 
REMARK  1 active torsions:
REMARK  status: ('A' for Active; 'I' for Inactive)
REMARK    1  A    between atoms: O_1  and  C_2
REMARK                            x       y       z     vdW  Elec       q    Type
REMARK                         _______ _______ _______ _____ _____    ______ ____
ROOT
ATOM      1  C   UNL     1       1.785   6.847  20.505  0.00  0.00    +0.000 A 
ATOM      2  C   UNL     1       0.943   5.767  20.727  0.00  0.00    +0.000 A 
ATOM      3  C   UNL     1       1.190   4.563  20.070  0.00  0.00    +0.000 A 
ATOM      4  C   UNL     1       2.280   4.436  19.194  0.00  0.00    +0.000 A 
ATOM      5  C   UNL     1       3.082   5.564  18.898  0.00  0.00    +0.000 A 
ATOM      6  C   UNL     1       2.833   6.763  19.596  0.00  0.00    +0.000 A 
ATOM      7  C   UNL     1       4.282   5.439  17.933  0.00  0.00    +0.000 C 
ATOM      8  C   UNL     1       4.431   6.704  17.044  0.00  0.00    +0.000 C 
ATOM      9  C   UNL     1       5.463   6.563  15.923  0.00  0.00    +0.000 C 
ATOM     10  C   UNL     1       5.210   5.330  15.067  0.00  0.00    +0.000 C 
ATOM     11  C   UNL     1       5.148   4.066  15.918  0.00  0.00    +0.000 C 
ATOM     12  C   UNL     1       4.076   4.209  17.008  0.00  0.00    +0.000 C 
ATOM     13  C   UNL     1       3.940   2.967  17.899  0.00  0.00    +0.000 C 
ATOM     14  C   UNL     1       2.581   3.067  18.623  0.00  0.00    +0.000 C 
ATOM     15  N   UNL     1       5.094   2.750  18.801  0.00  0.00    +0.000 NA
ATOM     16  C   UNL     1       5.435   3.916  19.622  0.00  0.00    +0.000 C 
ATOM     17  C   UNL     1       5.546   5.206  18.801  0.00  0.00    +0.000 C 
ATOM     18  H   UNL     1       5.910   2.503  18.241  0.00  0.00    +0.000 HD
ENDROOT
BRANCH   1  19
ATOM     19  O   UNL     1       1.630   8.017  21.189  0.00  0.00    +0.000 OA
ATOM     20  H   UNL     1       2.015   7.905  22.073  0.00  0.00    +0.000 HD
ENDBRANCH   1  19
TORSDOF 1
ENDMDL
MODEL 8
REMARK VINA RESULT:      -6.7      2.966      4.434
REMARK  Name = 
REMARK  1 active torsions:
REMARK  status: ('A' for Active; 'I' for Inactive)
REMARK    1  A    between atoms: O_1  and  C_2
REMARK                            x       y       z     vdW  Elec       q    Type
REMARK                         _______ _______ _______ _____ _____    ______ ____
ROOT
ATOM      1  C   UNL     1       1.850   8.223  19.267  0.00  0.00    +0.000 A 
ATOM      2  C   UNL     1       2.699   8.563  18.224  0.00  0.00    +0.000 A 
ATOM      3  C   UNL     1       3.450   7.568  17.602  0.00  0.00    +0.000 A 
ATOM      4  C   UNL     1       3.350   6.231  18.018  0.00  0.00    +0.000 A 
ATOM      5  C   UNL     1       2.554   5.899  19.141  0.00  0.00    +0.000 A 
ATOM      6  C   UNL     1       1.781   6.916  19.735  0.00  0.00    +0.000 A 
ATOM      7  C   UNL     1       2.438   4.432  19.612  0.00  0.00    +0.000 C 
ATOM      8  C   UNL     1       2.391   4.334  21.161  0.00  0.00    +0.000 C 
ATOM      9  C   UNL     1       2.491   2.906  21.701  0.00  0.00    +0.000 C 
ATOM     10  C   UNL     1       3.707   2.173  21.152  0.00  0.00    +0.000 C 
ATOM     11  C   UNL     1       3.720   2.184  19.627  0.00  0.00    +0.000 C 
ATOM     12  C   UNL     1       3.665   3.627  19.105  0.00  0.00    +0.000 C 
ATOM     13  C   UNL     1       3.693   3.725  17.573  0.00  0.00    +0.000 C 
ATOM     14  C   UNL     1       4.078   5.176  17.213  0.00  0.00    +0.000 C 
ATOM     15  N   UNL     1       2.454   3.245  16.923  0.00  0.00    +0.000 NA
ATOM     16  C   UNL     1       1.231   3.868  17.438  0.00  0.00    +0.000 C 
ATOM     17  C   UNL     1       1.154   3.844  18.969  0.00  0.00    +0.000 C 
ATOM     18  H   UNL     1       2.380   2.236  17.055  0.00  0.00    +0.000 HD
ENDROOT
BRANCH   1  19
ATOM     19  O   UNL     1       1.037   9.151  19.849  0.00  0.00    +0.000 OA
ATOM     20  H   UNL     1       1.579   9.707  20.432  0.00  0.00    +0.000 HD
ENDBRANCH   1  19
TORSDOF 1
ENDMDL
MODEL 9
REMARK VINA RESULT:      -6.6      2.221      3.181
REMARK  Name = 
REMARK  1 active torsions:
REMARK  status: ('A' for Active; 'I' for Inactive)
REMARK    1  A    between atoms: O_1  and  C_2
REMARK                            x       y       z     vdW  Elec       q    Type
REMARK                         _______ _______ _______ _____ _____    ______ ____
ROOT
ATOM      1  C   UNL     1       6.815   5.097  18.568  0.00  0.00    +0.000 A 
ATOM      2  C   UNL     1       6.852   4.676  17.247  0.00  0.00    +0.000 A 
ATOM      3  C   UNL     1       5.700   4.152  16.665  0.00  0.00    +0.000 A 
ATOM      4  C   UNL     1       4.508   4.052  17.401  0.00  0.00    +0.000 A 
ATOM      5  C   UNL     1       4.496   4.396  18.775  0.00  0.00    +0.000 A 
ATOM      6  C   UNL     1       5.664   4.951  19.334  0.00  0.00    +0.000 A 
ATOM      7  C   UNL     1       3.193   4.288  19.597  0.00  0.00    +0.000 C 
ATOM      8  C   UNL     1       3.472   3.790  21.042  0.00  0.00    +0.000 C 
ATOM      9  C   UNL     1       2.212   3.457  21.843  0.00  0.00    +0.000 C 
ATOM     10  C   UNL     1       1.307   2.481  21.104  0.00  0.00    +0.000 C 
ATOM     11  C   UNL     1       0.952   2.999  19.713  0.00  0.00    +0.000 C 
ATOM     12  C   UNL     1       2.229   3.284  18.909  0.00  0.00    +0.000 C 
ATOM     13  C   UNL     1       1.955   3.793  17.487  0.00  0.00    +0.000 C 
ATOM     14  C   UNL     1       3.255   3.611  16.676  0.00  0.00    +0.000 C 
ATOM     15  N   UNL     1       1.396   5.163  17.441  0.00  0.00    +0.000 NA
ATOM     16  C   UNL     1       2.186   6.153  18.180  0.00  0.00    +0.000 C 
ATOM     17  C   UNL     1       2.534   5.692  19.600  0.00  0.00    +0.000 C 
ATOM     18  H   UNL     1       0.454   5.149  17.831  0.00  0.00    +0.000 HD
ENDROOT
BRANCH   1  19
ATOM     19  O   UNL     1       7.895   5.691  19.152  0.00  0.00    +0.000 OA
ATOM     20  H   UNL     1       7.647   5.954  20.053  0.00  0.00    +0.000 HD
ENDBRANCH   1  19
TORSDOF 1
ENDMDL
