MODEL 1
REMARK VINA RESULT:      -8.2      0.000      0.000
REMARK  Name = 
REMARK  4 active torsions:
REMARK  status: ('A' for Active; 'I' for Inactive)
REMARK    1  A    between atoms: C_2  and  C_3
REMARK    2  A    between atoms: N_15  and  N_16
REMARK    3  A    between atoms: C_17  and  C_18
REMARK    4  A    between atoms: C_23  and  O_24
REMARK                            x       y       z     vdW  Elec       q    Type
REMARK                         _______ _______ _______ _____ _____    ______ ____
ROOT
ATOM      1  O   UNL     1       7.813   6.934  16.535  0.00  0.00    +0.000 OA
ATOM      2  C   UNL     1       7.645   7.106  17.737  0.00  0.00    +0.000 C 
ATOM      3  N   UNL     1       7.978   8.229  18.478  0.00  0.00    +0.000 N 
ATOM      4  H   UNL     1       7.797   8.261  19.476  0.00  0.00    +0.000 HD
ENDROOT
BRANCH   2   5
ATOM      5  C   UNL     1       7.178   6.009  18.616  0.00  0.00    +0.000 C 
ATOM      6  C   UNL     1       5.913   5.559  18.663  0.00  0.00    +0.000 C 
ATOM      7  N   UNL     1       5.544   4.376  19.301  0.00  0.00    +0.000 N 
ATOM      8  C   UNL     1       4.506   3.604  18.735  0.00  0.00    +0.000 A 
ATOM      9  C   UNL     1       4.275   2.293  19.158  0.00  0.00    +0.000 A 
ATOM     10  C   UNL     1       3.249   1.543  18.579  0.00  0.00    +0.000 A 
ATOM     11  C   UNL     1       2.433   2.107  17.595  0.00  0.00    +0.000 A 
ATOM     12  C   UNL     1       2.615   3.436  17.210  0.00  0.00    +0.000 A 
ATOM     13  C   UNL     1       3.637   4.182  17.791  0.00  0.00    +0.000 A 
ATOM     14  N   UNL     1       3.793   5.537  17.459  0.00  0.00    +0.000 N 
ATOM     15  C   UNL     1       4.814   6.318  17.948  0.00  0.00    +0.000 C 
ATOM     16  O   UNL     1       4.795   7.542  17.850  0.00  0.00    +0.000 OA
ATOM     17  H   UNL     1       6.306   3.826  19.680  0.00  0.00    +0.000 HD
ATOM     18  H   UNL     1       3.098   6.015  16.905  0.00  0.00    +0.000 HD
ENDBRANCH   2   5
BRANCH   3  19
ATOM     19  N   UNL     1       8.565   9.304  17.880  0.00  0.00    +0.000 NA
ATOM     20  C   UNL     1       9.132  10.149  18.684  0.00  0.00    +0.000 C 
BRANCH  20  21
ATOM     21  C   UNL     1       9.815  11.359  18.184  0.00  0.00    +0.000 A 
ATOM     22  C   UNL     1      11.206  11.473  18.297  0.00  0.00    +0.000 A 
ATOM     23  C   UNL     1      11.851  12.627  17.850  0.00  0.00    +0.000 A 
ATOM     24  C   UNL     1      11.112  13.667  17.288  0.00  0.00    +0.000 A 
ATOM     25  C   UNL     1       9.725  13.555  17.162  0.00  0.00    +0.000 A 
ATOM     26  C   UNL     1       9.079  12.400  17.609  0.00  0.00    +0.000 A 
BRANCH  26  27
ATOM     27  O   UNL     1       7.720  12.297  17.488  0.00  0.00    +0.000 OA
ATOM     28  H   UNL     1       7.361  13.165  17.236  0.00  0.00    +0.000 HD
ENDBRANCH  26  27
ENDBRANCH  20  21
ENDBRANCH   3  19
TORSDOF 4
ENDMDL
MODEL 2
REMARK VINA RESULT:      -8.2      1.577      2.348
REMARK  Name = 
REMARK  4 active torsions:
REMARK  status: ('A' for Active; 'I' for Inactive)
REMARK    1  A    between atoms: C_2  and  C_3
REMARK    2  A    between atoms: N_15  and  N_16
REMARK    3  A    between atoms: C_17  and  C_18
REMARK    4  A    between atoms: C_23  and  O_24
REMARK                            x       y       z     vdW  Elec       q    Type
REMARK                         _______ _______ _______ _____ _____    ______ ____
ROOT
ATOM      1  O   UNL     1       7.839   6.568  18.853  0.00  0.00    +0.000 OA
ATOM      2  C   UNL     1       7.323   7.233  17.961  0.00  0.00    +0.000 C 
ATOM      3  N   UNL     1       7.731   8.473  17.497  0.00  0.00    +0.000 N 
ATOM      4  H   UNL     1       7.223   8.938  16.752  0.00  0.00    +0.000 HD
ENDROOT
BRANCH   2   5
ATOM      5  C   UNL     1       6.038   6.830  17.344  0.00  0.00    +0.000 C 
ATOM      6  C   UNL     1       5.512   5.598  17.420  0.00  0.00    +0.000 C 
ATOM      7  N   UNL     1       4.199   5.301  17.054  0.00  0.00    +0.000 N 
ATOM      8  C   UNL     1       3.502   4.320  17.793  0.00  0.00    +0.000 A 
ATOM      9  C   UNL     1       2.120   4.171  17.662  0.00  0.00    +0.000 A 
ATOM     10  C   UNL     1       1.448   3.200  18.409  0.00  0.00    +0.000 A 
ATOM     11  C   UNL     1       2.156   2.358  19.269  0.00  0.00    +0.000 A 
ATOM     12  C   UNL     1       3.545   2.456  19.361  0.00  0.00    +0.000 A 
ATOM     13  C   UNL     1       4.213   3.423  18.613  0.00  0.00    +0.000 A 
ATOM     14  N   UNL     1       5.615   3.493  18.648  0.00  0.00    +0.000 N 
ATOM     15  C   UNL     1       6.336   4.458  17.984  0.00  0.00    +0.000 C 
ATOM     16  O   UNL     1       7.549   4.360  17.822  0.00  0.00    +0.000 OA
ATOM     17  H   UNL     1       3.630   6.093  16.783  0.00  0.00    +0.000 HD
ATOM     18  H   UNL     1       6.155   2.774  19.105  0.00  0.00    +0.000 HD
ENDBRANCH   2   5
BRANCH   3  19
ATOM     19  N   UNL     1       8.815   9.094  18.042  0.00  0.00    +0.000 NA
ATOM     20  C   UNL     1       8.773  10.390  18.043  0.00  0.00    +0.000 C 
BRANCH  20  21
ATOM     21  C   UNL     1       9.869  11.204  18.606  0.00  0.00    +0.000 A 
ATOM     22  C   UNL     1      10.676  11.972  17.758  0.00  0.00    +0.000 A 
ATOM     23  C   UNL     1      11.729  12.721  18.285  0.00  0.00    +0.000 A 
ATOM     24  C   UNL     1      11.978  12.707  19.657  0.00  0.00    +0.000 A 
ATOM     25  C   UNL     1      11.170  11.951  20.510  0.00  0.00    +0.000 A 
ATOM     26  C   UNL     1      10.116  11.202  19.983  0.00  0.00    +0.000 A 
BRANCH  26  27
ATOM     27  O   UNL     1       9.329  10.460  20.821  0.00  0.00    +0.000 OA
ATOM     28  H   UNL     1       8.984  11.039  21.523  0.00  0.00    +0.000 HD
ENDBRANCH  26  27
ENDBRANCH  20  21
ENDBRANCH   3  19
TORSDOF 4
ENDMDL
MODEL 3
REMARK VINA RESULT:      -8.1      5.586      7.635
REMARK  Name = 
REMARK  4 active torsions:
REMARK  status: ('A' for Active; 'I' for Inactive)
REMARK    1  A    between atoms: C_2  and  C_3
REMARK    2  A    between atoms: N_15  and  N_16
REMARK    3  A    between atoms: C_17  and  C_18
REMARK    4  A    between atoms: C_23  and  O_24
REMARK                            x       y       z     vdW  Elec       q    Type
REMARK                         _______ _______ _______ _____ _____    ______ ____
ROOT
ATOM      1  O   UNL     1       1.873   4.292  17.308  0.00  0.00    +0.000 OA
ATOM      2  C   UNL     1       2.794   4.829  17.913  0.00  0.00    +0.000 C 
ATOM      3  N   UNL     1       4.127   4.879  17.538  0.00  0.00    +0.000 N 
ATOM      4  H   UNL     1       4.811   5.349  18.122  0.00  0.00    +0.000 HD
ENDROOT
BRANCH   2   5
ATOM      5  C   UNL     1       2.603   5.388  19.271  0.00  0.00    +0.000 C 
ATOM      6  C   UNL     1       2.436   6.693  19.539  0.00  0.00    +0.000 C 
ATOM      7  N   UNL     1       2.011   7.173  20.777  0.00  0.00    +0.000 N 
ATOM      8  C   UNL     1       1.176   8.312  20.805  0.00  0.00    +0.000 A 
ATOM      9  C   UNL     1       0.499   8.676  21.971  0.00  0.00    +0.000 A 
ATOM     10  C   UNL     1      -0.330   9.801  21.976  0.00  0.00    +0.000 A 
ATOM     11  C   UNL     1      -0.465  10.580  20.825  0.00  0.00    +0.000 A 
ATOM     12  C   UNL     1       0.254  10.261  19.672  0.00  0.00    +0.000 A 
ATOM     13  C   UNL     1       1.082   9.140  19.672  0.00  0.00    +0.000 A 
ATOM     14  N   UNL     1       1.859   8.842  18.541  0.00  0.00    +0.000 N 
ATOM     15  C   UNL     1       2.652   7.722  18.448  0.00  0.00    +0.000 C 
ATOM     16  O   UNL     1       3.503   7.605  17.571  0.00  0.00    +0.000 OA
ATOM     17  H   UNL     1       1.767   6.466  21.460  0.00  0.00    +0.000 HD
ATOM     18  H   UNL     1       1.926   9.496  17.776  0.00  0.00    +0.000 HD
ENDBRANCH   2   5
BRANCH   3  19
ATOM     19  N   UNL     1       4.544   4.286  16.384  0.00  0.00    +0.000 NA
ATOM     20  C   UNL     1       5.232   5.042  15.585  0.00  0.00    +0.000 C 
BRANCH  20  21
ATOM     21  C   UNL     1       5.759   4.539  14.300  0.00  0.00    +0.000 A 
ATOM     22  C   UNL     1       4.960   3.727  13.486  0.00  0.00    +0.000 A 
ATOM     23  C   UNL     1       5.466   3.231  12.284  0.00  0.00    +0.000 A 
ATOM     24  C   UNL     1       6.766   3.544  11.891  0.00  0.00    +0.000 A 
ATOM     25  C   UNL     1       7.564   4.363  12.693  0.00  0.00    +0.000 A 
ATOM     26  C   UNL     1       7.059   4.861  13.895  0.00  0.00    +0.000 A 
BRANCH  26  27
ATOM     27  O   UNL     1       7.846   5.659  14.680  0.00  0.00    +0.000 OA
ATOM     28  H   UNL     1       8.709   5.227  14.801  0.00  0.00    +0.000 HD
ENDBRANCH  26  27
ENDBRANCH  20  21
ENDBRANCH   3  19
TORSDOF 4
ENDMDL
MODEL 4
REMARK VINA RESULT:      -7.9      1.996      2.864
REMARK  Name = 
REMARK  4 active torsions:
REMARK  status: ('A' for Active; 'I' for Inactive)
REMARK    1  A    between atoms: C_2  and  C_3
REMARK    2  A    between atoms: N_15  and  N_16
REMARK    3  A    between atoms: C_17  and  C_18
REMARK    4  A    between atoms: C_23  and  O_24
REMARK                            x       y       z     vdW  Elec       q    Type
REMARK                         _______ _______ _______ _____ _____    ______ ____
ROOT
ATOM      1  O   UNL     1       7.682   5.657  15.439  0.00  0.00    +0.000 OA
ATOM      2  C   UNL     1       6.630   5.972  15.985  0.00  0.00    +0.000 C 
ATOM      3  N   UNL     1       6.412   7.056  16.820  0.00  0.00    +0.000 N 
ATOM      4  H   UNL     1       5.496   7.220  17.224  0.00  0.00    +0.000 HD
ENDROOT
BRANCH   2   5
ATOM      5  C   UNL     1       5.440   5.093  15.932  0.00  0.00    +0.000 C 
ATOM      6  C   UNL     1       4.931   4.438  16.988  0.00  0.00    +0.000 C 
ATOM      7  N   UNL     1       3.680   3.822  16.979  0.00  0.00    +0.000 N 
ATOM      8  C   UNL     1       2.916   3.837  18.166  0.00  0.00    +0.000 A 
ATOM      9  C   UNL     1       1.564   3.489  18.152  0.00  0.00    +0.000 A 
ATOM     10  C   UNL     1       0.822   3.518  19.336  0.00  0.00    +0.000 A 
ATOM     11  C   UNL     1       1.434   3.870  20.541  0.00  0.00    +0.000 A 
ATOM     12  C   UNL     1       2.799   4.160  20.577  0.00  0.00    +0.000 A 
ATOM     13  C   UNL     1       3.536   4.127  19.396  0.00  0.00    +0.000 A 
ATOM     14  N   UNL     1       4.921   4.355  19.426  0.00  0.00    +0.000 N 
ATOM     15  C   UNL     1       5.701   4.396  18.293  0.00  0.00    +0.000 C 
ATOM     16  O   UNL     1       6.926   4.348  18.351  0.00  0.00    +0.000 OA
ATOM     17  H   UNL     1       3.135   3.953  16.136  0.00  0.00    +0.000 HD
ATOM     18  H   UNL     1       5.414   4.415  20.304  0.00  0.00    +0.000 HD
ENDBRANCH   2   5
BRANCH   3  19
ATOM     19  N   UNL     1       7.428   7.913  17.123  0.00  0.00    +0.000 NA
ATOM     20  C   UNL     1       7.063   9.083  17.548  0.00  0.00    +0.000 C 
BRANCH  20  21
ATOM     21  C   UNL     1       8.049  10.116  17.922  0.00  0.00    +0.000 A 
ATOM     22  C   UNL     1       7.972  11.394  17.355  0.00  0.00    +0.000 A 
ATOM     23  C   UNL     1       8.919  12.364  17.688  0.00  0.00    +0.000 A 
ATOM     24  C   UNL     1       9.941  12.063  18.588  0.00  0.00    +0.000 A 
ATOM     25  C   UNL     1      10.016  10.794  19.166  0.00  0.00    +0.000 A 
ATOM     26  C   UNL     1       9.070   9.823  18.833  0.00  0.00    +0.000 A 
BRANCH  26  27
ATOM     27  O   UNL     1       9.150   8.579  19.399  0.00  0.00    +0.000 OA
ATOM     28  H   UNL     1       9.974   8.153  19.104  0.00  0.00    +0.000 HD
ENDBRANCH  26  27
ENDBRANCH  20  21
ENDBRANCH   3  19
TORSDOF 4
ENDMDL
MODEL 5
REMARK VINA RESULT:      -7.8      2.387     10.077
REMARK  Name = 
REMARK  4 active torsions:
REMARK  status: ('A' for Active; 'I' for Inactive)
REMARK    1  A    between atoms: C_2  and  C_3
REMARK    2  A    between atoms: N_15  and  N_16
REMARK    3  A    between atoms: C_17  and  C_18
REMARK    4  A    between atoms: C_23  and  O_24
REMARK                            x       y       z     vdW  Elec       q    Type
REMARK                         _______ _______ _______ _____ _____    ______ ____
ROOT
ATOM      1  O   UNL     1       9.208  10.621  19.921  0.00  0.00    +0.000 OA
ATOM      2  C   UNL     1       9.381  10.614  18.707  0.00  0.00    +0.000 C 
ATOM      3  N   UNL     1       8.772   9.785  17.779  0.00  0.00    +0.000 N 
ATOM      4  H   UNL     1       8.996   9.863  16.792  0.00  0.00    +0.000 HD
ENDROOT
BRANCH   2   5
ATOM      5  C   UNL     1      10.436  11.437  18.074  0.00  0.00    +0.000 C 
ATOM      6  C   UNL     1      10.247  12.675  17.589  0.00  0.00    +0.000 C 
ATOM      7  N   UNL     1      11.291  13.525  17.228  0.00  0.00    +0.000 N 
ATOM      8  C   UNL     1      11.138  14.910  17.457  0.00  0.00    +0.000 A 
ATOM      9  C   UNL     1      12.232  15.775  17.377  0.00  0.00    +0.000 A 
ATOM     10  C   UNL     1      12.061  17.141  17.615  0.00  0.00    +0.000 A 
ATOM     11  C   UNL     1      10.795  17.652  17.907  0.00  0.00    +0.000 A 
ATOM     12  C   UNL     1       9.685  16.807  17.929  0.00  0.00    +0.000 A 
ATOM     13  C   UNL     1       9.857  15.446  17.688  0.00  0.00    +0.000 A 
ATOM     14  N   UNL     1       8.742  14.593  17.644  0.00  0.00    +0.000 N 
ATOM     15  C   UNL     1       8.843  13.232  17.471  0.00  0.00    +0.000 C 
ATOM     16  O   UNL     1       7.866  12.544  17.189  0.00  0.00    +0.000 OA
ATOM     17  H   UNL     1      12.223  13.177  17.416  0.00  0.00    +0.000 HD
ATOM     18  H   UNL     1       7.806  14.969  17.656  0.00  0.00    +0.000 HD
ENDBRANCH   2   5
BRANCH   3  19
ATOM     19  N   UNL     1       7.871   8.843  18.177  0.00  0.00    +0.000 NA
ATOM     20  C   UNL     1       7.693   7.858  17.352  0.00  0.00    +0.000 C 
BRANCH  20  21
ATOM     21  C   UNL     1       6.754   6.756  17.647  0.00  0.00    +0.000 A 
ATOM     22  C   UNL     1       5.599   6.595  16.873  0.00  0.00    +0.000 A 
ATOM     23  C   UNL     1       4.699   5.571  17.166  0.00  0.00    +0.000 A 
ATOM     24  C   UNL     1       4.948   4.705  18.230  0.00  0.00    +0.000 A 
ATOM     25  C   UNL     1       6.105   4.853  19.000  0.00  0.00    +0.000 A 
ATOM     26  C   UNL     1       7.007   5.878  18.706  0.00  0.00    +0.000 A 
BRANCH  26  27
ATOM     27  O   UNL     1       8.136   6.022  19.465  0.00  0.00    +0.000 OA
ATOM     28  H   UNL     1       8.200   6.946  19.760  0.00  0.00    +0.000 HD
ENDBRANCH  26  27
ENDBRANCH  20  21
ENDBRANCH   3  19
TORSDOF 4
ENDMDL
MODEL 6
REMARK VINA RESULT:      -7.8      1.788      2.490
REMARK  Name = 
REMARK  4 active torsions:
REMARK  status: ('A' for Active; 'I' for Inactive)
REMARK    1  A    between atoms: C_2  and  C_3
REMARK    2  A    between atoms: N_15  and  N_16
REMARK    3  A    between atoms: C_17  and  C_18
REMARK    4  A    between atoms: C_23  and  O_24
REMARK                            x       y       z     vdW  Elec       q    Type
REMARK                         _______ _______ _______ _____ _____    ______ ____
ROOT
ATOM      1  O   UNL     1       7.704   5.945  15.692  0.00  0.00    +0.000 OA
ATOM      2  C   UNL     1       6.673   6.338  16.226  0.00  0.00    +0.000 C 
ATOM      3  N   UNL     1       6.533   7.416  17.085  0.00  0.00    +0.000 N 
ATOM      4  H   UNL     1       5.626   7.649  17.477  0.00  0.00    +0.000 HD
ENDROOT
BRANCH   2   5
ATOM      5  C   UNL     1       5.413   5.567  16.129  0.00  0.00    +0.000 C 
ATOM      6  C   UNL     1       4.914   4.798  17.111  0.00  0.00    +0.000 C 
ATOM      7  N   UNL     1       3.618   4.284  17.099  0.00  0.00    +0.000 N 
ATOM      8  C   UNL     1       2.928   4.175  18.326  0.00  0.00    +0.000 A 
ATOM      9  C   UNL     1       1.553   3.933  18.357  0.00  0.00    +0.000 A 
ATOM     10  C   UNL     1       0.888   3.837  19.582  0.00  0.00    +0.000 A 
ATOM     11  C   UNL     1       1.597   3.955  20.779  0.00  0.00    +0.000 A 
ATOM     12  C   UNL     1       2.980   4.135  20.761  0.00  0.00    +0.000 A 
ATOM     13  C   UNL     1       3.642   4.227  19.538  0.00  0.00    +0.000 A 
ATOM     14  N   UNL     1       5.040   4.346  19.504  0.00  0.00    +0.000 N 
ATOM     15  C   UNL     1       5.753   4.501  18.338  0.00  0.00    +0.000 C 
ATOM     16  O   UNL     1       6.971   4.354  18.301  0.00  0.00    +0.000 OA
ATOM     17  H   UNL     1       3.036   4.582  16.325  0.00  0.00    +0.000 HD
ATOM     18  H   UNL     1       5.587   4.235  20.344  0.00  0.00    +0.000 HD
ENDBRANCH   2   5
BRANCH   3  19
ATOM     19  N   UNL     1       7.612   8.173  17.429  0.00  0.00    +0.000 NA
ATOM     20  C   UNL     1       7.348   9.391  17.787  0.00  0.00    +0.000 C 
BRANCH  20  21
ATOM     21  C   UNL     1       8.412  10.330  18.194  0.00  0.00    +0.000 A 
ATOM     22  C   UNL     1       9.404   9.918  19.092  0.00  0.00    +0.000 A 
ATOM     23  C   UNL     1      10.395  10.812  19.498  0.00  0.00    +0.000 A 
ATOM     24  C   UNL     1      10.401  12.118  19.008  0.00  0.00    +0.000 A 
ATOM     25  C   UNL     1       9.421  12.533  18.103  0.00  0.00    +0.000 A 
ATOM     26  C   UNL     1       8.429  11.638  17.696  0.00  0.00    +0.000 A 
BRANCH  26  27
ATOM     27  O   UNL     1       7.469  12.050  16.813  0.00  0.00    +0.000 OA
ATOM     28  H   UNL     1       6.892  12.696  17.256  0.00  0.00    +0.000 HD
ENDBRANCH  26  27
ENDBRANCH  20  21
ENDBRANCH   3  19
TORSDOF 4
ENDMDL
MODEL 7
REMARK VINA RESULT:      -7.8      1.365      2.084
REMARK  Name = 
REMARK  4 active torsions:
REMARK  status: ('A' for Active; 'I' for Inactive)
REMARK    1  A    between atoms: C_2  and  C_3
REMARK    2  A    between atoms: N_15  and  N_16
REMARK    3  A    between atoms: C_17  and  C_18
REMARK    4  A    between atoms: C_23  and  O_24
REMARK                            x       y       z     vdW  Elec       q    Type
REMARK                         _______ _______ _______ _____ _____    ______ ____
ROOT
ATOM      1  O   UNL     1       7.898   6.647  18.764  0.00  0.00    +0.000 OA
ATOM      2  C   UNL     1       7.342   7.283  17.875  0.00  0.00    +0.000 C 
ATOM      3  N   UNL     1       7.634   8.572  17.459  0.00  0.00    +0.000 N 
ATOM      4  H   UNL     1       7.101   9.006  16.712  0.00  0.00    +0.000 HD
ENDROOT
BRANCH   2   5
ATOM      5  C   UNL     1       6.123   6.771  17.208  0.00  0.00    +0.000 C 
ATOM      6  C   UNL     1       5.637   5.528  17.361  0.00  0.00    +0.000 C 
ATOM      7  N   UNL     1       4.368   5.143  16.931  0.00  0.00    +0.000 N 
ATOM      8  C   UNL     1       3.653   4.204  17.706  0.00  0.00    +0.000 A 
ATOM      9  C   UNL     1       2.291   3.984  17.490  0.00  0.00    +0.000 A 
ATOM     10  C   UNL     1       1.600   3.057  18.274  0.00  0.00    +0.000 A 
ATOM     11  C   UNL     1       2.271   2.328  19.258  0.00  0.00    +0.000 A 
ATOM     12  C   UNL     1       3.644   2.494  19.441  0.00  0.00    +0.000 A 
ATOM     13  C   UNL     1       4.331   3.417  18.655  0.00  0.00    +0.000 A 
ATOM     14  N   UNL     1       5.723   3.551  18.785  0.00  0.00    +0.000 N 
ATOM     15  C   UNL     1       6.457   4.481  18.087  0.00  0.00    +0.000 C 
ATOM     16  O   UNL     1       7.682   4.421  18.023  0.00  0.00    +0.000 OA
ATOM     17  H   UNL     1       3.793   5.883  16.547  0.00  0.00    +0.000 HD
ATOM     18  H   UNL     1       6.253   2.899  19.345  0.00  0.00    +0.000 HD
ENDBRANCH   2   5
BRANCH   3  19
ATOM     19  N   UNL     1       8.632   9.283  18.055  0.00  0.00    +0.000 NA
ATOM     20  C   UNL     1       8.532  10.572  17.960  0.00  0.00    +0.000 C 
BRANCH  20  21
ATOM     21  C   UNL     1       9.533  11.477  18.560  0.00  0.00    +0.000 A 
ATOM     22  C   UNL     1      10.360  11.018  19.593  0.00  0.00    +0.000 A 
ATOM     23  C   UNL     1      11.288  11.879  20.179  0.00  0.00    +0.000 A 
ATOM     24  C   UNL     1      11.395  13.197  19.737  0.00  0.00    +0.000 A 
ATOM     25  C   UNL     1      10.581  13.658  18.699  0.00  0.00    +0.000 A 
ATOM     26  C   UNL     1       9.652  12.797  18.111  0.00  0.00    +0.000 A 
BRANCH  26  27
ATOM     27  O   UNL     1       8.854  13.253  17.099  0.00  0.00    +0.000 OA
ATOM     28  H   UNL     1       9.418  13.549  16.363  0.00  0.00    +0.000 HD
ENDBRANCH  26  27
ENDBRANCH  20  21
ENDBRANCH   3  19
TORSDOF 4
ENDMDL
MODEL 8
REMARK VINA RESULT:      -7.6      1.166      1.325
REMARK  Name = 
REMARK  4 active torsions:
REMARK  status: ('A' for Active; 'I' for Inactive)
REMARK    1  A    between atoms: C_2  and  C_3
REMARK    2  A    between atoms: N_15  and  N_16
REMARK    3  A    between atoms: C_17  and  C_18
REMARK    4  A    between atoms: C_23  and  O_24
REMARK                            x       y       z     vdW  Elec       q    Type
REMARK                         _______ _______ _______ _____ _____    ______ ____
ROOT
ATOM      1  O   UNL     1       7.945   6.942  16.856  0.00  0.00    +0.000 OA
ATOM      2  C   UNL     1       7.776   7.015  18.068  0.00  0.00    +0.000 C 
ATOM      3  N   UNL     1       8.149   8.055  18.905  0.00  0.00    +0.000 N 
ATOM      4  H   UNL     1       7.963   8.008  19.901  0.00  0.00    +0.000 HD
ENDROOT
BRANCH   2   5
ATOM      5  C   UNL     1       7.259   5.866  18.846  0.00  0.00    +0.000 C 
ATOM      6  C   UNL     1       5.982   5.450  18.830  0.00  0.00    +0.000 C 
ATOM      7  N   UNL     1       5.567   4.231  19.363  0.00  0.00    +0.000 N 
ATOM      8  C   UNL     1       4.522   3.536  18.715  0.00  0.00    +0.000 A 
ATOM      9  C   UNL     1       4.246   2.203  19.026  0.00  0.00    +0.000 A 
ATOM     10  C   UNL     1       3.214   1.530  18.367  0.00  0.00    +0.000 A 
ATOM     11  C   UNL     1       2.437   2.194  17.415  0.00  0.00    +0.000 A 
ATOM     12  C   UNL     1       2.664   3.543  17.141  0.00  0.00    +0.000 A 
ATOM     13  C   UNL     1       3.692   4.212  17.802  0.00  0.00    +0.000 A 
ATOM     14  N   UNL     1       3.891   5.584  17.582  0.00  0.00    +0.000 N 
ATOM     15  C   UNL     1       4.921   6.294  18.154  0.00  0.00    +0.000 C 
ATOM     16  O   UNL     1       4.937   7.522  18.153  0.00  0.00    +0.000 OA
ATOM     17  H   UNL     1       6.305   3.632  19.713  0.00  0.00    +0.000 HD
ATOM     18  H   UNL     1       3.223   6.123  17.053  0.00  0.00    +0.000 HD
ENDBRANCH   2   5
BRANCH   3  19
ATOM     19  N   UNL     1       8.783   9.153  18.405  0.00  0.00    +0.000 NA
ATOM     20  C   UNL     1       9.303   9.947  19.288  0.00  0.00    +0.000 C 
BRANCH  20  21
ATOM     21  C   UNL     1      10.028  11.174  18.900  0.00  0.00    +0.000 A 
ATOM     22  C   UNL     1      10.237  11.465  17.547  0.00  0.00    +0.000 A 
ATOM     23  C   UNL     1      10.945  12.610  17.179  0.00  0.00    +0.000 A 
ATOM     24  C   UNL     1      11.444  13.467  18.159  0.00  0.00    +0.000 A 
ATOM     25  C   UNL     1      11.229  13.189  19.511  0.00  0.00    +0.000 A 
ATOM     26  C   UNL     1      10.521  12.043  19.880  0.00  0.00    +0.000 A 
BRANCH  26  27
ATOM     27  O   UNL     1      10.317  11.773  21.205  0.00  0.00    +0.000 OA
ATOM     28  H   UNL     1      10.971  11.113  21.494  0.00  0.00    +0.000 HD
ENDBRANCH  26  27
ENDBRANCH  20  21
ENDBRANCH   3  19
TORSDOF 4
ENDMDL
MODEL 9
REMARK VINA RESULT:      -7.5      2.286      9.936
REMARK  Name = 
REMARK  4 active torsions:
REMARK  status: ('A' for Active; 'I' for Inactive)
REMARK    1  A    between atoms: C_2  and  C_3
REMARK    2  A    between atoms: N_15  and  N_16
REMARK    3  A    between atoms: C_17  and  C_18
REMARK    4  A    between atoms: C_23  and  O_24
REMARK                            x       y       z     vdW  Elec       q    Type
REMARK                         _______ _______ _______ _____ _____    ______ ____
ROOT
ATOM      1  O   UNL     1       9.073  10.342  19.809  0.00  0.00    +0.000 OA
ATOM      2  C   UNL     1       9.196  10.424  18.592  0.00  0.00    +0.000 C 
ATOM      3  N   UNL     1       8.520   9.691  17.630  0.00  0.00    +0.000 N 
ATOM      4  H   UNL     1       8.706   9.838  16.643  0.00  0.00    +0.000 HD
ENDROOT
BRANCH   2   5
ATOM      5  C   UNL     1      10.254  11.259  17.978  0.00  0.00    +0.000 C 
ATOM      6  C   UNL     1      10.071  12.514  17.537  0.00  0.00    +0.000 C 
ATOM      7  N   UNL     1      11.120  13.367  17.196  0.00  0.00    +0.000 N 
ATOM      8  C   UNL     1      10.981  14.745  17.472  0.00  0.00    +0.000 A 
ATOM      9  C   UNL     1      12.082  15.602  17.413  0.00  0.00    +0.000 A 
ATOM     10  C   UNL     1      11.925  16.961  17.697  0.00  0.00    +0.000 A 
ATOM     11  C   UNL     1      10.664  17.473  18.016  0.00  0.00    +0.000 A 
ATOM     12  C   UNL     1       9.548  16.637  18.017  0.00  0.00    +0.000 A 
ATOM     13  C   UNL     1       9.707  15.283  17.730  0.00  0.00    +0.000 A 
ATOM     14  N   UNL     1       8.584  14.442  17.667  0.00  0.00    +0.000 N 
ATOM     15  C   UNL     1       8.671  13.087  17.447  0.00  0.00    +0.000 C 
ATOM     16  O   UNL     1       7.687  12.416  17.150  0.00  0.00    +0.000 OA
ATOM     17  H   UNL     1      12.051  13.005  17.365  0.00  0.00    +0.000 HD
ATOM     18  H   UNL     1       7.651  14.825  17.698  0.00  0.00    +0.000 HD
ENDBRANCH   2   5
BRANCH   3  19
ATOM     19  N   UNL     1       7.603   8.750  17.993  0.00  0.00    +0.000 NA
ATOM     20  C   UNL     1       7.624   7.654  17.300  0.00  0.00    +0.000 C 
BRANCH  20  21
ATOM     21  C   UNL     1       6.696   6.540  17.579  0.00  0.00    +0.000 A 
ATOM     22  C   UNL     1       6.838   5.788  18.752  0.00  0.00    +0.000 A 
ATOM     23  C   UNL     1       5.979   4.718  19.004  0.00  0.00    +0.000 A 
ATOM     24  C   UNL     1       4.976   4.397  18.090  0.00  0.00    +0.000 A 
ATOM     25  C   UNL     1       4.821   5.150  16.924  0.00  0.00    +0.000 A 
ATOM     26  C   UNL     1       5.681   6.221  16.671  0.00  0.00    +0.000 A 
BRANCH  26  27
ATOM     27  O   UNL     1       5.528   6.953  15.525  0.00  0.00    +0.000 OA
ATOM     28  H   UNL     1       4.733   6.644  15.059  0.00  0.00    +0.000 HD
ENDBRANCH  26  27
ENDBRANCH  20  21
ENDBRANCH   3  19
TORSDOF 4
ENDMDL
