MODEL 1
REMARK VINA RESULT:      -8.7      0.000      0.000
REMARK  Name = 
REMARK  10 active torsions:
REMARK  status: ('A' for Active; 'I' for Inactive)
REMARK    1  A    between atoms: C_1  and  C_2
REMARK    2  A    between atoms: C_6  and  N_7
REMARK    3  A    between atoms: C_8  and  C_10
REMARK    4  A    between atoms: C_10  and  C_11
REMARK    5  A    between atoms: C_13  and  C_14
REMARK    6  A    between atoms: N_16  and  C_17
REMARK    7  A    between atoms: C_17  and  C_18
REMARK    8  A    between atoms: N_20  and  C_21
REMARK    9  A    between atoms: C_21  and  C_22
REMARK   10  A    between atoms: C_33  and  C_34
REMARK                            x       y       z     vdW  Elec       q    Type
REMARK                         _______ _______ _______ _____ _____    ______ ____
ROOT
ATOM      1  C   UNL     1       3.225   6.556  17.701  0.00  0.00    +0.000 A 
ATOM      2  C   UNL     1       4.573   6.574  17.439  0.00  0.00    +0.000 A 
ATOM      3  N   UNL     1       5.012   5.274  17.442  0.00  0.00    +0.000 N 
ATOM      4  C   UNL     1       3.957   4.413  17.673  0.00  0.00    +0.000 A 
ATOM      5  C   UNL     1       3.912   3.016  17.798  0.00  0.00    +0.000 A 
ATOM      6  C   UNL     1       2.672   2.415  18.035  0.00  0.00    +0.000 A 
ATOM      7  C   UNL     1       1.511   3.176  18.122  0.00  0.00    +0.000 A 
ATOM      8  C   UNL     1       1.563   4.568  18.003  0.00  0.00    +0.000 A 
ATOM      9  C   UNL     1       2.806   5.202  17.798  0.00  0.00    +0.000 A 
ENDROOT
BRANCH   1  11
ATOM     10  C   UNL     1       1.863   8.143  18.999  0.00  0.00    +0.000 C 
ATOM     11  C   UNL     1       2.448   7.735  17.853  0.00  0.00    +0.000 C 
BRANCH  10  13
ATOM     12  N   UNL     1      -0.036   9.529  19.691  0.00  0.00    +0.000 N 
ATOM     13  C   UNL     1       1.149   9.462  18.967  0.00  0.00    +0.000 C 
ATOM     14  O   UNL     1       1.650  10.382  18.324  0.00  0.00    +0.000 OA
ATOM     15  H   UNL     1      -0.316   8.711  20.214  0.00  0.00    +0.000 HD
BRANCH  12  21
ATOM     16  C   UNL     1      -4.094  12.078  18.122  0.00  0.00    +0.000 C 
ATOM     17  C   UNL     1      -2.893  11.889  19.013  0.00  0.00    +0.000 A 
ATOM     18  C   UNL     1      -2.634  12.876  19.972  0.00  0.00    +0.000 A 
ATOM     19  C   UNL     1      -1.550  12.756  20.823  0.00  0.00    +0.000 A 
ATOM     20  C   UNL     1      -0.710  11.652  20.726  0.00  0.00    +0.000 A 
ATOM     21  C   UNL     1      -0.924  10.641  19.779  0.00  0.00    +0.000 A 
ATOM     22  C   UNL     1      -2.037  10.757  18.901  0.00  0.00    +0.000 A 
ATOM     23  C   UNL     1      -2.375   9.736  17.836  0.00  0.00    +0.000 C 
ENDBRANCH  12  21
ENDBRANCH  10  13
BRANCH  10  24
ATOM     24  C   UNL     1       1.914   7.394  20.198  0.00  0.00    +0.000 C 
ATOM     25  N   UNL     1       1.883   6.711  21.139  0.00  0.00    +0.000 NA
ENDBRANCH  10  24
ENDBRANCH   1  11
BRANCH   3  26
ATOM     26  C   UNL     1       6.401   4.890  17.241  0.00  0.00    +0.000 C 
BRANCH  26  27
ATOM     27  C   UNL     1       6.920   5.038  15.822  0.00  0.00    +0.000 C 
ATOM     28  O   UNL     1       7.714   5.940  15.549  0.00  0.00    +0.000 OA
ATOM     29  N   UNL     1       6.503   4.138  14.870  0.00  0.00    +0.000 N 
ATOM     30  H   UNL     1       5.726   3.514  15.061  0.00  0.00    +0.000 HD
BRANCH  29  31
ATOM     31  C   UNL     1       6.958   4.263  13.500  0.00  0.00    +0.000 C 
BRANCH  31  32
ATOM     32  C   UNL     1       6.055   3.532  12.578  0.00  0.00    +0.000 A 
ATOM     33  C   UNL     1       4.754   3.717  12.167  0.00  0.00    +0.000 A 
ATOM     34  C   UNL     1       4.461   2.677  11.253  0.00  0.00    +0.000 A 
ATOM     35  C   UNL     1       5.589   1.893  11.200  0.00  0.00    +0.000 A 
ATOM     36  O   UNL     1       6.562   2.405  11.996  0.00  0.00    +0.000 OA
ENDBRANCH  31  32
ENDBRANCH  29  31
ENDBRANCH  26  27
ENDBRANCH   3  26
TORSDOF 8
ENDMDL
MODEL 2
REMARK VINA RESULT:      -8.4      1.505      1.807
REMARK  Name = 
REMARK  10 active torsions:
REMARK  status: ('A' for Active; 'I' for Inactive)
REMARK    1  A    between atoms: C_1  and  C_2
REMARK    2  A    between atoms: C_6  and  N_7
REMARK    3  A    between atoms: C_8  and  C_10
REMARK    4  A    between atoms: C_10  and  C_11
REMARK    5  A    between atoms: C_13  and  C_14
REMARK    6  A    between atoms: N_16  and  C_17
REMARK    7  A    between atoms: C_17  and  C_18
REMARK    8  A    between atoms: N_20  and  C_21
REMARK    9  A    between atoms: C_21  and  C_22
REMARK   10  A    between atoms: C_33  and  C_34
REMARK                            x       y       z     vdW  Elec       q    Type
REMARK                         _______ _______ _______ _____ _____    ______ ____
ROOT
ATOM      1  C   UNL     1       3.084   5.731  19.480  0.00  0.00    +0.000 A 
ATOM      2  C   UNL     1       4.434   5.875  19.271  0.00  0.00    +0.000 A 
ATOM      3  N   UNL     1       4.889   4.715  18.698  0.00  0.00    +0.000 N 
ATOM      4  C   UNL     1       3.843   3.834  18.505  0.00  0.00    +0.000 A 
ATOM      5  C   UNL     1       3.816   2.528  17.990  0.00  0.00    +0.000 A 
ATOM      6  C   UNL     1       2.582   1.875  17.917  0.00  0.00    +0.000 A 
ATOM      7  C   UNL     1       1.410   2.507  18.321  0.00  0.00    +0.000 A 
ATOM      8  C   UNL     1       1.445   3.805  18.838  0.00  0.00    +0.000 A 
ATOM      9  C   UNL     1       2.682   4.473  18.955  0.00  0.00    +0.000 A 
ENDROOT
BRANCH   1  11
ATOM     10  C   UNL     1       1.902   7.887  19.599  0.00  0.00    +0.000 C 
ATOM     11  C   UNL     1       2.290   6.711  20.134  0.00  0.00    +0.000 C 
BRANCH  10  13
ATOM     12  N   UNL     1       0.577   9.935  19.842  0.00  0.00    +0.000 N 
ATOM     13  C   UNL     1       0.999   8.749  20.431  0.00  0.00    +0.000 C 
ATOM     14  O   UNL     1       0.688   8.355  21.554  0.00  0.00    +0.000 OA
ATOM     15  H   UNL     1       0.871  10.120  18.893  0.00  0.00    +0.000 HD
BRANCH  12  21
ATOM     16  C   UNL     1      -3.575  12.795  19.904  0.00  0.00    +0.000 C 
ATOM     17  C   UNL     1      -2.250  12.346  20.465  0.00  0.00    +0.000 A 
ATOM     18  C   UNL     1      -1.790  12.974  21.629  0.00  0.00    +0.000 A 
ATOM     19  C   UNL     1      -0.584  12.601  22.194  0.00  0.00    +0.000 A 
ATOM     20  C   UNL     1       0.180  11.599  21.604  0.00  0.00    +0.000 A 
ATOM     21  C   UNL     1      -0.234  10.945  20.435  0.00  0.00    +0.000 A 
ATOM     22  C   UNL     1      -1.475  11.322  19.849  0.00  0.00    +0.000 A 
ATOM     23  C   UNL     1      -2.031  10.696  18.589  0.00  0.00    +0.000 C 
ENDBRANCH  12  21
ENDBRANCH  10  13
BRANCH  10  24
ATOM     24  C   UNL     1       2.298   8.314  18.309  0.00  0.00    +0.000 C 
ATOM     25  N   UNL     1       2.695   8.583  17.250  0.00  0.00    +0.000 NA
ENDBRANCH  10  24
ENDBRANCH   1  11
BRANCH   3  26
ATOM     26  C   UNL     1       6.285   4.473  18.364  0.00  0.00    +0.000 C 
BRANCH  26  27
ATOM     27  C   UNL     1       6.757   5.078  17.055  0.00  0.00    +0.000 C 
ATOM     28  O   UNL     1       7.263   6.202  17.045  0.00  0.00    +0.000 OA
ATOM     29  N   UNL     1       6.626   4.341  15.902  0.00  0.00    +0.000 N 
ATOM     30  H   UNL     1       6.057   3.501  15.893  0.00  0.00    +0.000 HD
BRANCH  29  31
ATOM     31  C   UNL     1       7.043   4.896  14.630  0.00  0.00    +0.000 C 
BRANCH  31  32
ATOM     32  C   UNL     1       6.421   4.158  13.505  0.00  0.00    +0.000 A 
ATOM     33  C   UNL     1       6.911   3.562  12.363  0.00  0.00    +0.000 A 
ATOM     34  C   UNL     1       5.802   3.001  11.687  0.00  0.00    +0.000 A 
ATOM     35  C   UNL     1       4.697   3.331  12.433  0.00  0.00    +0.000 A 
ATOM     36  O   UNL     1       5.061   4.029  13.539  0.00  0.00    +0.000 OA
ENDBRANCH  31  32
ENDBRANCH  29  31
ENDBRANCH  26  27
ENDBRANCH   3  26
TORSDOF 8
ENDMDL
MODEL 3
REMARK VINA RESULT:      -8.4      0.393      1.450
REMARK  Name = 
REMARK  10 active torsions:
REMARK  status: ('A' for Active; 'I' for Inactive)
REMARK    1  A    between atoms: C_1  and  C_2
REMARK    2  A    between atoms: C_6  and  N_7
REMARK    3  A    between atoms: C_8  and  C_10
REMARK    4  A    between atoms: C_10  and  C_11
REMARK    5  A    between atoms: C_13  and  C_14
REMARK    6  A    between atoms: N_16  and  C_17
REMARK    7  A    between atoms: C_17  and  C_18
REMARK    8  A    between atoms: N_20  and  C_21
REMARK    9  A    between atoms: C_21  and  C_22
REMARK   10  A    between atoms: C_33  and  C_34
REMARK                            x       y       z     vdW  Elec       q    Type
REMARK                         _______ _______ _______ _____ _____    ______ ____
ROOT
ATOM      1  C   UNL     1       3.211   6.633  17.707  0.00  0.00    +0.000 A 
ATOM      2  C   UNL     1       4.564   6.642  17.470  0.00  0.00    +0.000 A 
ATOM      3  N   UNL     1       4.987   5.337  17.437  0.00  0.00    +0.000 N 
ATOM      4  C   UNL     1       3.917   4.483  17.620  0.00  0.00    +0.000 A 
ATOM      5  C   UNL     1       3.853   3.083  17.696  0.00  0.00    +0.000 A 
ATOM      6  C   UNL     1       2.601   2.490  17.890  0.00  0.00    +0.000 A 
ATOM      7  C   UNL     1       1.448   3.264  17.983  0.00  0.00    +0.000 A 
ATOM      8  C   UNL     1       1.519   4.657  17.912  0.00  0.00    +0.000 A 
ATOM      9  C   UNL     1       2.774   5.282  17.751  0.00  0.00    +0.000 A 
ENDROOT
BRANCH   1  11
ATOM     10  C   UNL     1       1.831   8.184  19.029  0.00  0.00    +0.000 C 
ATOM     11  C   UNL     1       2.446   7.816  17.886  0.00  0.00    +0.000 C 
BRANCH  10  13
ATOM     12  N   UNL     1      -0.124   9.540  19.617  0.00  0.00    +0.000 N 
ATOM     13  C   UNL     1       1.136   9.514  19.031  0.00  0.00    +0.000 C 
ATOM     14  O   UNL     1       1.717  10.477  18.535  0.00  0.00    +0.000 OA
ATOM     15  H   UNL     1      -0.470   8.686  20.030  0.00  0.00    +0.000 HD
BRANCH  12  21
ATOM     16  C   UNL     1      -1.897  13.602  22.023  0.00  0.00    +0.000 C 
ATOM     17  C   UNL     1      -1.879  12.629  20.872  0.00  0.00    +0.000 A 
ATOM     18  C   UNL     1      -2.797  12.832  19.833  0.00  0.00    +0.000 A 
ATOM     19  C   UNL     1      -2.825  11.977  18.748  0.00  0.00    +0.000 A 
ATOM     20  C   UNL     1      -1.940  10.906  18.684  0.00  0.00    +0.000 A 
ATOM     21  C   UNL     1      -1.007  10.656  19.700  0.00  0.00    +0.000 A 
ATOM     22  C   UNL     1      -0.971  11.533  20.820  0.00  0.00    +0.000 A 
ATOM     23  C   UNL     1      -0.015  11.371  21.981  0.00  0.00    +0.000 C 
ENDBRANCH  12  21
ENDBRANCH  10  13
BRANCH  10  24
ATOM     24  C   UNL     1       1.833   7.383  20.196  0.00  0.00    +0.000 C 
ATOM     25  N   UNL     1       1.872   6.812  21.208  0.00  0.00    +0.000 NA
ENDBRANCH  10  24
ENDBRANCH   1  11
BRANCH   3  26
ATOM     26  C   UNL     1       6.375   4.942  17.248  0.00  0.00    +0.000 C 
BRANCH  26  27
ATOM     27  C   UNL     1       6.912   5.101  15.837  0.00  0.00    +0.000 C 
ATOM     28  O   UNL     1       7.705   6.009  15.580  0.00  0.00    +0.000 OA
ATOM     29  N   UNL     1       6.512   4.205  14.874  0.00  0.00    +0.000 N 
ATOM     30  H   UNL     1       5.735   3.577  15.051  0.00  0.00    +0.000 HD
BRANCH  29  31
ATOM     31  C   UNL     1       6.985   4.341  13.511  0.00  0.00    +0.000 C 
BRANCH  31  32
ATOM     32  C   UNL     1       6.131   3.566  12.579  0.00  0.00    +0.000 A 
ATOM     33  C   UNL     1       4.811   3.653  12.193  0.00  0.00    +0.000 A 
ATOM     34  C   UNL     1       4.592   2.621  11.251  0.00  0.00    +0.000 A 
ATOM     35  C   UNL     1       5.780   1.936  11.156  0.00  0.00    +0.000 A 
ATOM     36  O   UNL     1       6.720   2.503  11.954  0.00  0.00    +0.000 OA
ENDBRANCH  31  32
ENDBRANCH  29  31
ENDBRANCH  26  27
ENDBRANCH   3  26
TORSDOF 8
ENDMDL
MODEL 4
REMARK VINA RESULT:      -8.4      1.671      2.236
REMARK  Name = 
REMARK  10 active torsions:
REMARK  status: ('A' for Active; 'I' for Inactive)
REMARK    1  A    between atoms: C_1  and  C_2
REMARK    2  A    between atoms: C_6  and  N_7
REMARK    3  A    between atoms: C_8  and  C_10
REMARK    4  A    between atoms: C_10  and  C_11
REMARK    5  A    between atoms: C_13  and  C_14
REMARK    6  A    between atoms: N_16  and  C_17
REMARK    7  A    between atoms: C_17  and  C_18
REMARK    8  A    between atoms: N_20  and  C_21
REMARK    9  A    between atoms: C_21  and  C_22
REMARK   10  A    between atoms: C_33  and  C_34
REMARK                            x       y       z     vdW  Elec       q    Type
REMARK                         _______ _______ _______ _____ _____    ______ ____
ROOT
ATOM      1  C   UNL     1       3.194   6.637  17.935  0.00  0.00    +0.000 A 
ATOM      2  C   UNL     1       4.563   6.672  18.044  0.00  0.00    +0.000 A 
ATOM      3  N   UNL     1       4.999   5.377  18.174  0.00  0.00    +0.000 N 
ATOM      4  C   UNL     1       3.930   4.504  18.118  0.00  0.00    +0.000 A 
ATOM      5  C   UNL     1       3.870   3.106  18.235  0.00  0.00    +0.000 A 
ATOM      6  C   UNL     1       2.618   2.490  18.134  0.00  0.00    +0.000 A 
ATOM      7  C   UNL     1       1.467   3.238  17.902  0.00  0.00    +0.000 A 
ATOM      8  C   UNL     1       1.534   4.629  17.792  0.00  0.00    +0.000 A 
ATOM      9  C   UNL     1       2.780   5.278  17.924  0.00  0.00    +0.000 A 
ENDROOT
BRANCH   1  11
ATOM     10  C   UNL     1       1.721   8.358  18.900  0.00  0.00    +0.000 C 
ATOM     11  C   UNL     1       2.391   7.807  17.866  0.00  0.00    +0.000 C 
BRANCH  10  13
ATOM     12  N   UNL     1       1.179  10.652  19.568  0.00  0.00    +0.000 N 
ATOM     13  C   UNL     1       0.992   9.641  18.633  0.00  0.00    +0.000 C 
ATOM     14  O   UNL     1       0.299   9.719  17.621  0.00  0.00    +0.000 OA
ATOM     15  H   UNL     1       1.813  10.474  20.335  0.00  0.00    +0.000 HD
BRANCH  12  21
ATOM     16  C   UNL     1       1.276  15.602  18.611  0.00  0.00    +0.000 C 
ATOM     17  C   UNL     1       0.610  14.349  19.119  0.00  0.00    +0.000 A 
ATOM     18  C   UNL     1      -0.686  14.466  19.639  0.00  0.00    +0.000 A 
ATOM     19  C   UNL     1      -1.351  13.352  20.115  0.00  0.00    +0.000 A 
ATOM     20  C   UNL     1      -0.733  12.106  20.080  0.00  0.00    +0.000 A 
ATOM     21  C   UNL     1       0.563  11.938  19.574  0.00  0.00    +0.000 A 
ATOM     22  C   UNL     1       1.254  13.080  19.082  0.00  0.00    +0.000 A 
ATOM     23  C   UNL     1       2.656  13.031  18.514  0.00  0.00    +0.000 C 
ENDBRANCH  12  21
ENDBRANCH  10  13
BRANCH  10  24
ATOM     24  C   UNL     1       1.698   7.785  20.194  0.00  0.00    +0.000 C 
ATOM     25  N   UNL     1       1.724   7.226  21.213  0.00  0.00    +0.000 NA
ENDBRANCH  10  24
ENDBRANCH   1  11
BRANCH   3  26
ATOM     26  C   UNL     1       6.396   5.009  18.355  0.00  0.00    +0.000 C 
BRANCH  26  27
ATOM     27  C   UNL     1       7.184   4.790  17.077  0.00  0.00    +0.000 C 
ATOM     28  O   UNL     1       8.241   4.157  17.108  0.00  0.00    +0.000 OA
ATOM     29  N   UNL     1       6.682   5.290  15.898  0.00  0.00    +0.000 N 
ATOM     30  H   UNL     1       5.912   5.950  15.909  0.00  0.00    +0.000 HD
BRANCH  29  31
ATOM     31  C   UNL     1       7.420   5.120  14.662  0.00  0.00    +0.000 C 
BRANCH  31  32
ATOM     32  C   UNL     1       6.620   4.357  13.674  0.00  0.00    +0.000 A 
ATOM     33  C   UNL     1       6.892   3.811  12.439  0.00  0.00    +0.000 A 
ATOM     34  C   UNL     1       5.702   3.186  11.997  0.00  0.00    +0.000 A 
ATOM     35  C   UNL     1       4.763   3.430  12.969  0.00  0.00    +0.000 A 
ATOM     36  O   UNL     1       5.309   4.136  13.992  0.00  0.00    +0.000 OA
ENDBRANCH  31  32
ENDBRANCH  29  31
ENDBRANCH  26  27
ENDBRANCH   3  26
TORSDOF 8
ENDMDL
MODEL 5
REMARK VINA RESULT:      -8.3      1.334      1.816
REMARK  Name = 
REMARK  10 active torsions:
REMARK  status: ('A' for Active; 'I' for Inactive)
REMARK    1  A    between atoms: C_1  and  C_2
REMARK    2  A    between atoms: C_6  and  N_7
REMARK    3  A    between atoms: C_8  and  C_10
REMARK    4  A    between atoms: C_10  and  C_11
REMARK    5  A    between atoms: C_13  and  C_14
REMARK    6  A    between atoms: N_16  and  C_17
REMARK    7  A    between atoms: C_17  and  C_18
REMARK    8  A    between atoms: N_20  and  C_21
REMARK    9  A    between atoms: C_21  and  C_22
REMARK   10  A    between atoms: C_33  and  C_34
REMARK                            x       y       z     vdW  Elec       q    Type
REMARK                         _______ _______ _______ _____ _____    ______ ____
ROOT
ATOM      1  C   UNL     1       3.404   6.293  18.043  0.00  0.00    +0.000 A 
ATOM      2  C   UNL     1       4.746   6.355  17.754  0.00  0.00    +0.000 A 
ATOM      3  N   UNL     1       5.169   5.079  17.482  0.00  0.00    +0.000 N 
ATOM      4  C   UNL     1       4.109   4.196  17.562  0.00  0.00    +0.000 A 
ATOM      5  C   UNL     1       4.051   2.802  17.403  0.00  0.00    +0.000 A 
ATOM      6  C   UNL     1       2.810   2.174  17.546  0.00  0.00    +0.000 A 
ATOM      7  C   UNL     1       1.660   2.910  17.818  0.00  0.00    +0.000 A 
ATOM      8  C   UNL     1       1.726   4.296  17.981  0.00  0.00    +0.000 A 
ATOM      9  C   UNL     1       2.972   4.950  17.875  0.00  0.00    +0.000 A 
ENDROOT
BRANCH   1  11
ATOM     10  C   UNL     1       1.987   7.539  19.625  0.00  0.00    +0.000 C 
ATOM     11  C   UNL     1       2.646   7.422  18.452  0.00  0.00    +0.000 C 
BRANCH  10  13
ATOM     12  N   UNL     1       0.768   9.494  18.792  0.00  0.00    +0.000 N 
ATOM     13  C   UNL     1       1.308   8.848  19.897  0.00  0.00    +0.000 C 
ATOM     14  O   UNL     1       1.263   9.252  21.057  0.00  0.00    +0.000 OA
ATOM     15  H   UNL     1       0.834   9.031  17.896  0.00  0.00    +0.000 HD
BRANCH  12  21
ATOM     16  C   UNL     1       0.926  14.526  18.498  0.00  0.00    +0.000 C 
ATOM     17  C   UNL     1       0.195  13.215  18.639  0.00  0.00    +0.000 A 
ATOM     18  C   UNL     1      -1.198  13.258  18.773  0.00  0.00    +0.000 A 
ATOM     19  C   UNL     1      -1.924  12.088  18.901  0.00  0.00    +0.000 A 
ATOM     20  C   UNL     1      -1.270  10.861  18.898  0.00  0.00    +0.000 A 
ATOM     21  C   UNL     1       0.123  10.765  18.773  0.00  0.00    +0.000 A 
ATOM     22  C   UNL     1       0.877  11.965  18.640  0.00  0.00    +0.000 A 
ATOM     23  C   UNL     1       2.383  11.997  18.500  0.00  0.00    +0.000 C 
ENDBRANCH  12  21
ENDBRANCH  10  13
BRANCH  10  24
ATOM     24  C   UNL     1       1.932   6.498  20.582  0.00  0.00    +0.000 C 
ATOM     25  N   UNL     1       1.895   5.574  21.287  0.00  0.00    +0.000 NA
ENDBRANCH  10  24
ENDBRANCH   1  11
BRANCH   3  26
ATOM     26  C   UNL     1       6.548   4.734  17.169  0.00  0.00    +0.000 C 
BRANCH  26  27
ATOM     27  C   UNL     1       6.970   4.973  15.731  0.00  0.00    +0.000 C 
ATOM     28  O   UNL     1       7.708   5.922  15.458  0.00  0.00    +0.000 OA
ATOM     29  N   UNL     1       6.531   4.103  14.761  0.00  0.00    +0.000 N 
ATOM     30  H   UNL     1       5.794   3.438  14.966  0.00  0.00    +0.000 HD
BRANCH  29  31
ATOM     31  C   UNL     1       6.895   4.315  13.374  0.00  0.00    +0.000 C 
BRANCH  31  32
ATOM     32  C   UNL     1       6.019   3.525  12.476  0.00  0.00    +0.000 A 
ATOM     33  C   UNL     1       4.727   3.677  12.022  0.00  0.00    +0.000 A 
ATOM     34  C   UNL     1       4.463   2.582  11.166  0.00  0.00    +0.000 A 
ATOM     35  C   UNL     1       5.595   1.803  11.187  0.00  0.00    +0.000 A 
ATOM     36  O   UNL     1       6.546   2.368  11.975  0.00  0.00    +0.000 OA
ENDBRANCH  31  32
ENDBRANCH  29  31
ENDBRANCH  26  27
ENDBRANCH   3  26
TORSDOF 8
ENDMDL
MODEL 6
REMARK VINA RESULT:      -8.3      1.550      1.915
REMARK  Name = 
REMARK  10 active torsions:
REMARK  status: ('A' for Active; 'I' for Inactive)
REMARK    1  A    between atoms: C_1  and  C_2
REMARK    2  A    between atoms: C_6  and  N_7
REMARK    3  A    between atoms: C_8  and  C_10
REMARK    4  A    between atoms: C_10  and  C_11
REMARK    5  A    between atoms: C_13  and  C_14
REMARK    6  A    between atoms: N_16  and  C_17
REMARK    7  A    between atoms: C_17  and  C_18
REMARK    8  A    between atoms: N_20  and  C_21
REMARK    9  A    between atoms: C_21  and  C_22
REMARK   10  A    between atoms: C_33  and  C_34
REMARK                            x       y       z     vdW  Elec       q    Type
REMARK                         _______ _______ _______ _____ _____    ______ ____
ROOT
ATOM      1  C   UNL     1       2.998   6.946  17.795  0.00  0.00    +0.000 A 
ATOM      2  C   UNL     1       4.364   7.022  17.673  0.00  0.00    +0.000 A 
ATOM      3  N   UNL     1       4.858   5.745  17.766  0.00  0.00    +0.000 N 
ATOM      4  C   UNL     1       3.824   4.842  17.916  0.00  0.00    +0.000 A 
ATOM      5  C   UNL     1       3.829   3.448  18.084  0.00  0.00    +0.000 A 
ATOM      6  C   UNL     1       2.599   2.795  18.212  0.00  0.00    +0.000 A 
ATOM      7  C   UNL     1       1.402   3.502  18.153  0.00  0.00    +0.000 A 
ATOM      8  C   UNL     1       1.404   4.890  17.992  0.00  0.00    +0.000 A 
ATOM      9  C   UNL     1       2.632   5.577  17.895  0.00  0.00    +0.000 A 
ENDROOT
BRANCH   1  11
ATOM     10  C   UNL     1       1.566   8.597  18.930  0.00  0.00    +0.000 C 
ATOM     11  C   UNL     1       2.157   8.091  17.827  0.00  0.00    +0.000 C 
BRANCH  10  13
ATOM     12  N   UNL     1       1.093  10.896  19.633  0.00  0.00    +0.000 N 
ATOM     13  C   UNL     1       0.777   9.861  18.760  0.00  0.00    +0.000 C 
ATOM     14  O   UNL     1      -0.073   9.905  17.873  0.00  0.00    +0.000 OA
ATOM     15  H   UNL     1       1.846  10.746  20.290  0.00  0.00    +0.000 HD
BRANCH  12  21
ATOM     16  C   UNL     1      -1.936  14.184  21.966  0.00  0.00    +0.000 C 
ATOM     17  C   UNL     1      -1.020  13.771  20.842  0.00  0.00    +0.000 A 
ATOM     18  C   UNL     1      -0.794  14.696  19.814  0.00  0.00    +0.000 A 
ATOM     19  C   UNL     1       0.041  14.377  18.759  0.00  0.00    +0.000 A 
ATOM     20  C   UNL     1       0.659  13.132  18.714  0.00  0.00    +0.000 A 
ATOM     21  C   UNL     1       0.460  12.171  19.714  0.00  0.00    +0.000 A 
ATOM     22  C   UNL     1      -0.397  12.492  20.804  0.00  0.00    +0.000 A 
ATOM     23  C   UNL     1      -0.695  11.542  21.944  0.00  0.00    +0.000 C 
ENDBRANCH  12  21
ENDBRANCH  10  13
BRANCH  10  24
ATOM     24  C   UNL     1       1.676   7.995  20.206  0.00  0.00    +0.000 C 
ATOM     25  N   UNL     1       1.693   7.428  21.221  0.00  0.00    +0.000 NA
ENDBRANCH  10  24
ENDBRANCH   1  11
BRANCH   3  26
ATOM     26  C   UNL     1       6.276   5.422  17.723  0.00  0.00    +0.000 C 
BRANCH  26  27
ATOM     27  C   UNL     1       6.930   5.541  16.358  0.00  0.00    +0.000 C 
ATOM     28  O   UNL     1       7.708   6.469  16.128  0.00  0.00    +0.000 OA
ATOM     29  N   UNL     1       6.653   4.586  15.408  0.00  0.00    +0.000 N 
ATOM     30  H   UNL     1       5.889   3.934  15.546  0.00  0.00    +0.000 HD
BRANCH  29  31
ATOM     31  C   UNL     1       7.240   4.681  14.087  0.00  0.00    +0.000 C 
BRANCH  31  32
ATOM     32  C   UNL     1       6.440   3.916  13.100  0.00  0.00    +0.000 A 
ATOM     33  C   UNL     1       6.757   3.104  12.033  0.00  0.00    +0.000 A 
ATOM     34  C   UNL     1       5.534   2.651  11.486  0.00  0.00    +0.000 A 
ATOM     35  C   UNL     1       4.543   3.253  12.224  0.00  0.00    +0.000 A 
ATOM     36  O   UNL     1       5.082   4.020  13.207  0.00  0.00    +0.000 OA
ENDBRANCH  31  32
ENDBRANCH  29  31
ENDBRANCH  26  27
ENDBRANCH   3  26
TORSDOF 8
ENDMDL
MODEL 7
REMARK VINA RESULT:      -8.2      2.276      2.803
REMARK  Name = 
REMARK  10 active torsions:
REMARK  status: ('A' for Active; 'I' for Inactive)
REMARK    1  A    between atoms: C_1  and  C_2
REMARK    2  A    between atoms: C_6  and  N_7
REMARK    3  A    between atoms: C_8  and  C_10
REMARK    4  A    between atoms: C_10  and  C_11
REMARK    5  A    between atoms: C_13  and  C_14
REMARK    6  A    between atoms: N_16  and  C_17
REMARK    7  A    between atoms: C_17  and  C_18
REMARK    8  A    between atoms: N_20  and  C_21
REMARK    9  A    between atoms: C_21  and  C_22
REMARK   10  A    between atoms: C_33  and  C_34
REMARK                            x       y       z     vdW  Elec       q    Type
REMARK                         _______ _______ _______ _____ _____    ______ ____
ROOT
ATOM      1  C   UNL     1       2.647   6.041  19.675  0.00  0.00    +0.000 A 
ATOM      2  C   UNL     1       4.006   6.035  19.473  0.00  0.00    +0.000 A 
ATOM      3  N   UNL     1       4.395   4.728  19.325  0.00  0.00    +0.000 N 
ATOM      4  C   UNL     1       3.299   3.890  19.399  0.00  0.00    +0.000 A 
ATOM      5  C   UNL     1       3.197   2.491  19.339  0.00  0.00    +0.000 A 
ATOM      6  C   UNL     1       1.926   1.919  19.445  0.00  0.00    +0.000 A 
ATOM      7  C   UNL     1       0.790   2.712  19.584  0.00  0.00    +0.000 A 
ATOM      8  C   UNL     1       0.900   4.104  19.648  0.00  0.00    +0.000 A 
ATOM      9  C   UNL     1       2.174   4.705  19.579  0.00  0.00    +0.000 A 
ENDROOT
BRANCH   1  11
ATOM     10  C   UNL     1       1.778   8.274  19.113  0.00  0.00    +0.000 C 
ATOM     11  C   UNL     1       1.909   7.223  19.949  0.00  0.00    +0.000 C 
BRANCH  10  13
ATOM     12  N   UNL     1       1.028   9.789  20.887  0.00  0.00    +0.000 N 
ATOM     13  C   UNL     1       0.888   9.395  19.562  0.00  0.00    +0.000 C 
ATOM     14  O   UNL     1       0.115   9.891  18.744  0.00  0.00    +0.000 OA
ATOM     15  H   UNL     1       1.734   9.327  21.444  0.00  0.00    +0.000 HD
BRANCH  12  21
ATOM     16  C   UNL     1      -0.037  14.616  21.885  0.00  0.00    +0.000 C 
ATOM     17  C   UNL     1      -0.245  13.133  22.066  0.00  0.00    +0.000 A 
ATOM     18  C   UNL     1      -1.231  12.720  22.970  0.00  0.00    +0.000 A 
ATOM     19  C   UNL     1      -1.472  11.373  23.174  0.00  0.00    +0.000 A 
ATOM     20  C   UNL     1      -0.731  10.422  22.481  0.00  0.00    +0.000 A 
ATOM     21  C   UNL     1       0.271  10.785  21.570  0.00  0.00    +0.000 A 
ATOM     22  C   UNL     1       0.524  12.169  21.354  0.00  0.00    +0.000 A 
ATOM     23  C   UNL     1       1.578  12.689  20.401  0.00  0.00    +0.000 C 
ENDBRANCH  12  21
ENDBRANCH  10  13
BRANCH  10  24
ATOM     24  C   UNL     1       2.425   8.342  17.856  0.00  0.00    +0.000 C 
ATOM     25  N   UNL     1       3.036   8.339  16.867  0.00  0.00    +0.000 NA
ENDBRANCH  10  24
ENDBRANCH   1  11
BRANCH   3  26
ATOM     26  C   UNL     1       5.777   4.313  19.132  0.00  0.00    +0.000 C 
BRANCH  26  27
ATOM     27  C   UNL     1       6.545   5.076  18.069  0.00  0.00    +0.000 C 
ATOM     28  O   UNL     1       7.261   6.026  18.391  0.00  0.00    +0.000 OA
ATOM     29  N   UNL     1       6.437   4.672  16.759  0.00  0.00    +0.000 N 
ATOM     30  H   UNL     1       5.719   4.010  16.486  0.00  0.00    +0.000 HD
BRANCH  29  31
ATOM     31  C   UNL     1       7.136   5.392  15.714  0.00  0.00    +0.000 C 
BRANCH  31  32
ATOM     32  C   UNL     1       6.887   4.771  14.391  0.00  0.00    +0.000 A 
ATOM     33  C   UNL     1       6.061   3.761  13.948  0.00  0.00    +0.000 A 
ATOM     34  C   UNL     1       6.273   3.641  12.554  0.00  0.00    +0.000 A 
ATOM     35  C   UNL     1       7.251   4.554  12.240  0.00  0.00    +0.000 A 
ATOM     36  O   UNL     1       7.628   5.246  13.346  0.00  0.00    +0.000 OA
ENDBRANCH  31  32
ENDBRANCH  29  31
ENDBRANCH  26  27
ENDBRANCH   3  26
TORSDOF 8
ENDMDL
MODEL 8
REMARK VINA RESULT:      -8.2      2.204      2.565
REMARK  Name = 
REMARK  10 active torsions:
REMARK  status: ('A' for Active; 'I' for Inactive)
REMARK    1  A    between atoms: C_1  and  C_2
REMARK    2  A    between atoms: C_6  and  N_7
REMARK    3  A    between atoms: C_8  and  C_10
REMARK    4  A    between atoms: C_10  and  C_11
REMARK    5  A    between atoms: C_13  and  C_14
REMARK    6  A    between atoms: N_16  and  C_17
REMARK    7  A    between atoms: C_17  and  C_18
REMARK    8  A    between atoms: N_20  and  C_21
REMARK    9  A    between atoms: C_21  and  C_22
REMARK   10  A    between atoms: C_33  and  C_34
REMARK                            x       y       z     vdW  Elec       q    Type
REMARK                         _______ _______ _______ _____ _____    ______ ____
ROOT
ATOM      1  C   UNL     1       2.843   5.775  19.637  0.00  0.00    +0.000 A 
ATOM      2  C   UNL     1       4.133   5.879  19.177  0.00  0.00    +0.000 A 
ATOM      3  N   UNL     1       4.442   4.702  18.543  0.00  0.00    +0.000 N 
ATOM      4  C   UNL     1       3.355   3.849  18.561  0.00  0.00    +0.000 A 
ATOM      5  C   UNL     1       3.197   2.541  18.078  0.00  0.00    +0.000 A 
ATOM      6  C   UNL     1       1.955   1.922  18.246  0.00  0.00    +0.000 A 
ATOM      7  C   UNL     1       0.897   2.591  18.855  0.00  0.00    +0.000 A 
ATOM      8  C   UNL     1       1.062   3.892  19.339  0.00  0.00    +0.000 A 
ATOM      9  C   UNL     1       2.316   4.525  19.213  0.00  0.00    +0.000 A 
ENDROOT
BRANCH   1  11
ATOM     10  C   UNL     1       1.792   7.978  19.955  0.00  0.00    +0.000 C 
ATOM     11  C   UNL     1       2.213   6.782  20.416  0.00  0.00    +0.000 C 
BRANCH  10  13
ATOM     12  N   UNL     1       0.828  10.166  20.493  0.00  0.00    +0.000 N 
ATOM     13  C   UNL     1       1.079   8.870  20.927  0.00  0.00    +0.000 C 
ATOM     14  O   UNL     1       0.759   8.405  22.020  0.00  0.00    +0.000 OA
ATOM     15  H   UNL     1       1.104  10.410  19.552  0.00  0.00    +0.000 HD
BRANCH  12  21
ATOM     16  C   UNL     1       0.435  15.031  21.762  0.00  0.00    +0.000 C 
ATOM     17  C   UNL     1       0.029  13.582  21.866  0.00  0.00    +0.000 A 
ATOM     18  C   UNL     1      -0.999  13.257  22.760  0.00  0.00    +0.000 A 
ATOM     19  C   UNL     1      -1.419  11.947  22.895  0.00  0.00    +0.000 A 
ATOM     20  C   UNL     1      -0.818  10.943  22.142  0.00  0.00    +0.000 A 
ATOM     21  C   UNL     1       0.218  11.217  21.238  0.00  0.00    +0.000 A 
ATOM     22  C   UNL     1       0.655  12.563  21.093  0.00  0.00    +0.000 A 
ATOM     23  C   UNL     1       1.764  12.988  20.155  0.00  0.00    +0.000 C 
ENDBRANCH  12  21
ENDBRANCH  10  13
BRANCH  10  24
ATOM     24  C   UNL     1       1.984   8.398  18.617  0.00  0.00    +0.000 C 
ATOM     25  N   UNL     1       2.115   8.843  17.551  0.00  0.00    +0.000 NA
ENDBRANCH  10  24
ENDBRANCH   1  11
BRANCH   3  26
ATOM     26  C   UNL     1       5.743   4.417  17.956  0.00  0.00    +0.000 C 
BRANCH  26  27
ATOM     27  C   UNL     1       5.982   5.011  16.580  0.00  0.00    +0.000 C 
ATOM     28  O   UNL     1       5.378   6.030  16.237  0.00  0.00    +0.000 OA
ATOM     29  N   UNL     1       6.891   4.402  15.748  0.00  0.00    +0.000 N 
ATOM     30  H   UNL     1       7.247   3.479  15.967  0.00  0.00    +0.000 HD
BRANCH  29  31
ATOM     31  C   UNL     1       7.126   4.927  14.417  0.00  0.00    +0.000 C 
BRANCH  31  32
ATOM     32  C   UNL     1       6.384   4.139  13.403  0.00  0.00    +0.000 A 
ATOM     33  C   UNL     1       5.064   3.774  13.252  0.00  0.00    +0.000 A 
ATOM     34  C   UNL     1       4.982   3.024  12.056  0.00  0.00    +0.000 A 
ATOM     35  C   UNL     1       6.266   2.936  11.575  0.00  0.00    +0.000 A 
ATOM     36  O   UNL     1       7.124   3.611  12.383  0.00  0.00    +0.000 OA
ENDBRANCH  31  32
ENDBRANCH  29  31
ENDBRANCH  26  27
ENDBRANCH   3  26
TORSDOF 8
ENDMDL
MODEL 9
REMARK VINA RESULT:      -8.1      3.393     10.812
REMARK  Name = 
REMARK  10 active torsions:
REMARK  status: ('A' for Active; 'I' for Inactive)
REMARK    1  A    between atoms: C_1  and  C_2
REMARK    2  A    between atoms: C_6  and  N_7
REMARK    3  A    between atoms: C_8  and  C_10
REMARK    4  A    between atoms: C_10  and  C_11
REMARK    5  A    between atoms: C_13  and  C_14
REMARK    6  A    between atoms: N_16  and  C_17
REMARK    7  A    between atoms: C_17  and  C_18
REMARK    8  A    between atoms: N_20  and  C_21
REMARK    9  A    between atoms: C_21  and  C_22
REMARK   10  A    between atoms: C_33  and  C_34
REMARK                            x       y       z     vdW  Elec       q    Type
REMARK                         _______ _______ _______ _____ _____    ______ ____
ROOT
ATOM      1  C   UNL     1       0.386  10.566  19.270  0.00  0.00    +0.000 A 
ATOM      2  C   UNL     1      -0.898  10.754  19.722  0.00  0.00    +0.000 A 
ATOM      3  N   UNL     1      -1.125  12.107  19.769  0.00  0.00    +0.000 N 
ATOM      4  C   UNL     1      -0.013  12.794  19.323  0.00  0.00    +0.000 A 
ATOM      5  C   UNL     1       0.245  14.171  19.219  0.00  0.00    +0.000 A 
ATOM      6  C   UNL     1       1.488  14.573  18.721  0.00  0.00    +0.000 A 
ATOM      7  C   UNL     1       2.436  13.637  18.319  0.00  0.00    +0.000 A 
ATOM      8  C   UNL     1       2.176  12.268  18.430  0.00  0.00    +0.000 A 
ATOM      9  C   UNL     1       0.943  11.836  18.961  0.00  0.00    +0.000 A 
ENDROOT
BRANCH   1  11
ATOM     10  C   UNL     1       1.427   8.544  20.212  0.00  0.00    +0.000 C 
ATOM     11  C   UNL     1       0.994   9.286  19.172  0.00  0.00    +0.000 C 
BRANCH  10  13
ATOM     12  N   UNL     1       2.326   6.961  18.572  0.00  0.00    +0.000 N 
ATOM     13  C   UNL     1       1.971   7.182  19.898  0.00  0.00    +0.000 C 
ATOM     14  O   UNL     1       2.076   6.369  20.814  0.00  0.00    +0.000 OA
ATOM     15  H   UNL     1       2.231   7.730  17.924  0.00  0.00    +0.000 HD
BRANCH  12  21
ATOM     16  C   UNL     1       5.900   4.320  16.188  0.00  0.00    +0.000 C 
ATOM     17  C   UNL     1       4.547   4.459  16.839  0.00  0.00    +0.000 A 
ATOM     18  C   UNL     1       3.722   3.328  16.874  0.00  0.00    +0.000 A 
ATOM     19  C   UNL     1       2.472   3.392  17.462  0.00  0.00    +0.000 A 
ATOM     20  C   UNL     1       2.029   4.585  18.022  0.00  0.00    +0.000 A 
ATOM     21  C   UNL     1       2.814   5.746  18.007  0.00  0.00    +0.000 A 
ATOM     22  C   UNL     1       4.102   5.688  17.404  0.00  0.00    +0.000 A 
ATOM     23  C   UNL     1       5.043   6.870  17.322  0.00  0.00    +0.000 C 
ENDBRANCH  12  21
ENDBRANCH  10  13
BRANCH  10  24
ATOM     24  C   UNL     1       1.371   8.993  21.553  0.00  0.00    +0.000 C 
ATOM     25  N   UNL     1       1.256   9.438  22.621  0.00  0.00    +0.000 NA
ENDBRANCH  10  24
ENDBRANCH   1  11
BRANCH   3  26
ATOM     26  C   UNL     1      -2.367  12.702  20.239  0.00  0.00    +0.000 C 
BRANCH  26  27
ATOM     27  C   UNL     1      -3.604  12.352  19.432  0.00  0.00    +0.000 C 
ATOM     28  O   UNL     1      -3.488  11.772  18.351  0.00  0.00    +0.000 OA
ATOM     29  N   UNL     1      -4.838  12.676  19.943  0.00  0.00    +0.000 N 
ATOM     30  H   UNL     1      -4.915  13.301  20.738  0.00  0.00    +0.000 HD
BRANCH  29  31
ATOM     31  C   UNL     1      -6.040  12.380  19.189  0.00  0.00    +0.000 C 
BRANCH  31  32
ATOM     32  C   UNL     1      -6.680  11.139  19.687  0.00  0.00    +0.000 A 
ATOM     33  C   UNL     1      -7.510  10.849  20.748  0.00  0.00    +0.000 A 
ATOM     34  C   UNL     1      -7.792   9.464  20.680  0.00  0.00    +0.000 A 
ATOM     35  C   UNL     1      -7.077   8.984  19.609  0.00  0.00    +0.000 A 
ATOM     36  O   UNL     1      -6.402   9.992  18.998  0.00  0.00    +0.000 OA
ENDBRANCH  31  32
ENDBRANCH  29  31
ENDBRANCH  26  27
ENDBRANCH   3  26
TORSDOF 8
ENDMDL
