MODEL 1
REMARK VINA RESULT:      -7.3      0.000      0.000
REMARK  Name = 
REMARK  15 active torsions:
REMARK  status: ('A' for Active; 'I' for Inactive)
REMARK    1  A    between atoms: C_1  and  C_2
REMARK    2  A    between atoms: C_2  and  C_3
REMARK    3  A    between atoms: C_3  and  C_4
REMARK    4  A    between atoms: C_4  and  C_5
REMARK    5  A    between atoms: C_5  and  C_6
REMARK    6  A    between atoms: C_6  and  C_7
REMARK    7  A    between atoms: C_7  and  C_8
REMARK    8  A    between atoms: C_8  and  C_9
REMARK    9  A    between atoms: C_9  and  C_10
REMARK   10  A    between atoms: C_10  and  S_11
REMARK   11  A    between atoms: S_11  and  C_14
REMARK   12  A    between atoms: C_19  and  O_20
REMARK   13  A    between atoms: O_20  and  C_21
REMARK   14  A    between atoms: C_24  and  O_25
REMARK   15  A    between atoms: O_25  and  C_26
REMARK                            x       y       z     vdW  Elec       q    Type
REMARK                         _______ _______ _______ _____ _____    ______ ____
ROOT
ATOM      1  C   UNL     1       5.134   5.389  17.500  0.00  0.00    +0.000 C 
ATOM      2  C   UNL     1       4.951   4.071  17.534  0.00  0.00    +0.000 C 
ATOM      3  C   UNL     1       3.625   3.565  17.895  0.00  0.00    +0.000 C 
ATOM      4  O   UNL     1       3.222   2.577  17.295  0.00  0.00    +0.000 OA
ATOM      5  C   UNL     1       2.831   4.340  18.883  0.00  0.00    +0.000 A 
ATOM      6  C   UNL     1       1.875   3.764  19.741  0.00  0.00    +0.000 A 
ATOM      7  C   UNL     1       1.156   4.613  20.586  0.00  0.00    +0.000 A 
ATOM      8  C   UNL     1       1.380   5.982  20.604  0.00  0.00    +0.000 A 
ATOM      9  C   UNL     1       2.329   6.585  19.770  0.00  0.00    +0.000 A 
ATOM     10  C   UNL     1       3.057   5.759  18.893  0.00  0.00    +0.000 A 
ATOM     11  C   UNL     1       4.019   6.271  17.876  0.00  0.00    +0.000 C 
ATOM     12  O   UNL     1       3.844   7.313  17.260  0.00  0.00    +0.000 OA
ENDROOT
BRANCH   1  13
ATOM     13  S   UNL     1       6.565   6.019  16.770  0.00  0.00    +0.000 S 
ATOM     14  O   UNL     1       7.673   5.130  17.084  0.00  0.00    +0.000 OA
ATOM     15  O   UNL     1       6.687   7.431  17.074  0.00  0.00    +0.000 OA
BRANCH  13  16
ATOM     16  C   UNL     1       6.231   5.835  15.015  0.00  0.00    +0.000 C 
BRANCH  16  17
ATOM     17  C   UNL     1       6.882   4.568  14.475  0.00  0.00    +0.000 C 
BRANCH  17  18
ATOM     18  C   UNL     1       7.627   4.807  13.162  0.00  0.00    +0.000 C 
BRANCH  18  19
ATOM     19  C   UNL     1       6.885   4.129  12.009  0.00  0.00    +0.000 C 
BRANCH  19  20
ATOM     20  C   UNL     1       5.707   3.296  12.505  0.00  0.00    +0.000 C 
BRANCH  20  21
ATOM     21  C   UNL     1       5.167   2.409  11.384  0.00  0.00    +0.000 C 
BRANCH  21  22
ATOM     22  C   UNL     1       3.735   2.791  11.021  0.00  0.00    +0.000 C 
BRANCH  22  23
ATOM     23  C   UNL     1       3.677   4.197  10.428  0.00  0.00    +0.000 C 
BRANCH  23  25
ATOM     24  C   UNL     1       1.851   5.191   9.014  0.00  0.00    +0.000 C 
ATOM     25  C   UNL     1       2.994   4.192   9.063  0.00  0.00    +0.000 C 
ENDBRANCH  23  25
ENDBRANCH  22  23
ENDBRANCH  21  22
ENDBRANCH  20  21
ENDBRANCH  19  20
ENDBRANCH  18  19
ENDBRANCH  17  18
ENDBRANCH  16  17
ENDBRANCH  13  16
ENDBRANCH   1  13
BRANCH   6  26
ATOM     26  O   UNL     1       1.467   2.483  19.960  0.00  0.00    +0.000 OA
ATOM     27  C   UNL     1       0.638   1.757  19.079  0.00  0.00    +0.000 C 
ENDBRANCH   6  26
BRANCH   9  28
ATOM     28  O   UNL     1       2.342   7.921  20.025  0.00  0.00    +0.000 OA
ATOM     29  C   UNL     1       1.522   8.860  19.360  0.00  0.00    +0.000 C 
ENDBRANCH   9  28
TORSDOF 12
ENDMDL
MODEL 2
REMARK VINA RESULT:      -7.3      1.039      1.197
REMARK  Name = 
REMARK  15 active torsions:
REMARK  status: ('A' for Active; 'I' for Inactive)
REMARK    1  A    between atoms: C_1  and  C_2
REMARK    2  A    between atoms: C_2  and  C_3
REMARK    3  A    between atoms: C_3  and  C_4
REMARK    4  A    between atoms: C_4  and  C_5
REMARK    5  A    between atoms: C_5  and  C_6
REMARK    6  A    between atoms: C_6  and  C_7
REMARK    7  A    between atoms: C_7  and  C_8
REMARK    8  A    between atoms: C_8  and  C_9
REMARK    9  A    between atoms: C_9  and  C_10
REMARK   10  A    between atoms: C_10  and  S_11
REMARK   11  A    between atoms: S_11  and  C_14
REMARK   12  A    between atoms: C_19  and  O_20
REMARK   13  A    between atoms: O_20  and  C_21
REMARK   14  A    between atoms: C_24  and  O_25
REMARK   15  A    between atoms: O_25  and  C_26
REMARK                            x       y       z     vdW  Elec       q    Type
REMARK                         _______ _______ _______ _____ _____    ______ ____
ROOT
ATOM      1  C   UNL     1       4.789   5.838  17.555  0.00  0.00    +0.000 C 
ATOM      2  C   UNL     1       4.690   4.515  17.666  0.00  0.00    +0.000 C 
ATOM      3  C   UNL     1       3.420   3.953  18.132  0.00  0.00    +0.000 C 
ATOM      4  O   UNL     1       3.045   2.913  17.608  0.00  0.00    +0.000 OA
ATOM      5  C   UNL     1       2.638   4.733  19.126  0.00  0.00    +0.000 A 
ATOM      6  C   UNL     1       1.770   4.150  20.068  0.00  0.00    +0.000 A 
ATOM      7  C   UNL     1       1.050   5.000  20.911  0.00  0.00    +0.000 A 
ATOM      8  C   UNL     1       1.190   6.379  20.846  0.00  0.00    +0.000 A 
ATOM      9  C   UNL     1       2.052   6.990  19.927  0.00  0.00    +0.000 A 
ATOM     10  C   UNL     1       2.777   6.161  19.050  0.00  0.00    +0.000 A 
ATOM     11  C   UNL     1       3.646   6.673  17.952  0.00  0.00    +0.000 C 
ATOM     12  O   UNL     1       3.372   7.668  17.296  0.00  0.00    +0.000 OA
ENDROOT
BRANCH   1  13
ATOM     13  S   UNL     1       6.135   6.510  16.709  0.00  0.00    +0.000 S 
ATOM     14  O   UNL     1       6.835   7.419  17.605  0.00  0.00    +0.000 OA
ATOM     15  O   UNL     1       5.705   6.992  15.412  0.00  0.00    +0.000 OA
BRANCH  13  16
ATOM     16  C   UNL     1       7.205   5.088  16.470  0.00  0.00    +0.000 C 
BRANCH  16  17
ATOM     17  C   UNL     1       7.161   4.621  15.021  0.00  0.00    +0.000 C 
BRANCH  17  18
ATOM     18  C   UNL     1       5.967   3.709  14.736  0.00  0.00    +0.000 C 
BRANCH  18  19
ATOM     19  C   UNL     1       5.422   3.983  13.335  0.00  0.00    +0.000 C 
BRANCH  19  20
ATOM     20  C   UNL     1       6.221   3.249  12.262  0.00  0.00    +0.000 C 
BRANCH  20  21
ATOM     21  C   UNL     1       5.287   2.469  11.338  0.00  0.00    +0.000 C 
BRANCH  21  22
ATOM     22  C   UNL     1       3.932   3.159  11.211  0.00  0.00    +0.000 C 
BRANCH  22  23
ATOM     23  C   UNL     1       3.775   3.810   9.839  0.00  0.00    +0.000 C 
BRANCH  23  25
ATOM     24  C   UNL     1       2.148   5.292   8.624  0.00  0.00    +0.000 C 
ATOM     25  C   UNL     1       2.307   4.074   9.518  0.00  0.00    +0.000 C 
ENDBRANCH  23  25
ENDBRANCH  22  23
ENDBRANCH  21  22
ENDBRANCH  20  21
ENDBRANCH  19  20
ENDBRANCH  18  19
ENDBRANCH  17  18
ENDBRANCH  16  17
ENDBRANCH  13  16
ENDBRANCH   1  13
BRANCH   6  26
ATOM     26  O   UNL     1       1.455   2.861  20.376  0.00  0.00    +0.000 OA
ATOM     27  C   UNL     1       1.789   2.237  21.597  0.00  0.00    +0.000 C 
ENDBRANCH   6  26
BRANCH   9  28
ATOM     28  O   UNL     1       1.997   8.336  20.113  0.00  0.00    +0.000 OA
ATOM     29  C   UNL     1       1.074   8.979  20.967  0.00  0.00    +0.000 C 
ENDBRANCH   9  28
TORSDOF 12
ENDMDL
MODEL 3
REMARK VINA RESULT:      -7.1      4.283      6.734
REMARK  Name = 
REMARK  15 active torsions:
REMARK  status: ('A' for Active; 'I' for Inactive)
REMARK    1  A    between atoms: C_1  and  C_2
REMARK    2  A    between atoms: C_2  and  C_3
REMARK    3  A    between atoms: C_3  and  C_4
REMARK    4  A    between atoms: C_4  and  C_5
REMARK    5  A    between atoms: C_5  and  C_6
REMARK    6  A    between atoms: C_6  and  C_7
REMARK    7  A    between atoms: C_7  and  C_8
REMARK    8  A    between atoms: C_8  and  C_9
REMARK    9  A    between atoms: C_9  and  C_10
REMARK   10  A    between atoms: C_10  and  S_11
REMARK   11  A    between atoms: S_11  and  C_14
REMARK   12  A    between atoms: C_19  and  O_20
REMARK   13  A    between atoms: O_20  and  C_21
REMARK   14  A    between atoms: C_24  and  O_25
REMARK   15  A    between atoms: O_25  and  C_26
REMARK                            x       y       z     vdW  Elec       q    Type
REMARK                         _______ _______ _______ _____ _____    ______ ____
ROOT
ATOM      1  C   UNL     1       5.697   5.410  18.175  0.00  0.00    +0.000 C 
ATOM      2  C   UNL     1       5.695   4.339  18.965  0.00  0.00    +0.000 C 
ATOM      3  C   UNL     1       4.414   3.880  19.507  0.00  0.00    +0.000 C 
ATOM      4  O   UNL     1       4.241   2.671  19.581  0.00  0.00    +0.000 OA
ATOM      5  C   UNL     1       3.389   4.906  19.828  0.00  0.00    +0.000 A 
ATOM      6  C   UNL     1       2.409   4.745  20.826  0.00  0.00    +0.000 A 
ATOM      7  C   UNL     1       1.468   5.764  20.992  0.00  0.00    +0.000 A 
ATOM      8  C   UNL     1       1.496   6.913  20.215  0.00  0.00    +0.000 A 
ATOM      9  C   UNL     1       2.461   7.108  19.221  0.00  0.00    +0.000 A 
ATOM     10  C   UNL     1       3.412   6.091  19.016  0.00  0.00    +0.000 A 
ATOM     11  C   UNL     1       4.430   6.113  17.926  0.00  0.00    +0.000 C 
ATOM     12  O   UNL     1       4.201   6.563  16.812  0.00  0.00    +0.000 OA
ENDROOT
BRANCH   1  13
ATOM     13  S   UNL     1       7.116   5.780  17.266  0.00  0.00    +0.000 S 
ATOM     14  O   UNL     1       6.726   6.547  16.092  0.00  0.00    +0.000 OA
ATOM     15  O   UNL     1       7.911   4.581  17.091  0.00  0.00    +0.000 OA
BRANCH  13  16
ATOM     16  C   UNL     1       8.002   6.905  18.351  0.00  0.00    +0.000 C 
BRANCH  16  17
ATOM     17  C   UNL     1       7.976   8.322  17.791  0.00  0.00    +0.000 C 
BRANCH  17  18
ATOM     18  C   UNL     1       8.794   9.299  18.635  0.00  0.00    +0.000 C 
BRANCH  18  19
ATOM     19  C   UNL     1       8.509  10.736  18.195  0.00  0.00    +0.000 C 
BRANCH  19  20
ATOM     20  C   UNL     1       9.795  11.526  17.971  0.00  0.00    +0.000 C 
BRANCH  20  21
ATOM     21  C   UNL     1       9.506  13.026  17.950  0.00  0.00    +0.000 C 
BRANCH  21  22
ATOM     22  C   UNL     1       8.898  13.490  19.270  0.00  0.00    +0.000 C 
BRANCH  22  23
ATOM     23  C   UNL     1       7.991  14.700  19.060  0.00  0.00    +0.000 C 
BRANCH  23  25
ATOM     24  C   UNL     1       5.788  14.663  17.849  0.00  0.00    +0.000 C 
ATOM     25  C   UNL     1       7.300  14.642  17.701  0.00  0.00    +0.000 C 
ENDBRANCH  23  25
ENDBRANCH  22  23
ENDBRANCH  21  22
ENDBRANCH  20  21
ENDBRANCH  19  20
ENDBRANCH  18  19
ENDBRANCH  17  18
ENDBRANCH  16  17
ENDBRANCH  13  16
ENDBRANCH   1  13
BRANCH   6  26
ATOM     26  O   UNL     1       2.155   3.764  21.737  0.00  0.00    +0.000 OA
ATOM     27  C   UNL     1       1.340   2.641  21.481  0.00  0.00    +0.000 C 
ENDBRANCH   6  26
BRANCH   9  28
ATOM     28  O   UNL     1       2.252   8.324  18.648  0.00  0.00    +0.000 OA
ATOM     29  C   UNL     1       1.241   9.224  19.051  0.00  0.00    +0.000 C 
ENDBRANCH   9  28
TORSDOF 12
ENDMDL
MODEL 4
REMARK VINA RESULT:      -7.1      4.659      6.915
REMARK  Name = 
REMARK  15 active torsions:
REMARK  status: ('A' for Active; 'I' for Inactive)
REMARK    1  A    between atoms: C_1  and  C_2
REMARK    2  A    between atoms: C_2  and  C_3
REMARK    3  A    between atoms: C_3  and  C_4
REMARK    4  A    between atoms: C_4  and  C_5
REMARK    5  A    between atoms: C_5  and  C_6
REMARK    6  A    between atoms: C_6  and  C_7
REMARK    7  A    between atoms: C_7  and  C_8
REMARK    8  A    between atoms: C_8  and  C_9
REMARK    9  A    between atoms: C_9  and  C_10
REMARK   10  A    between atoms: C_10  and  S_11
REMARK   11  A    between atoms: S_11  and  C_14
REMARK   12  A    between atoms: C_19  and  O_20
REMARK   13  A    between atoms: O_20  and  C_21
REMARK   14  A    between atoms: C_24  and  O_25
REMARK   15  A    between atoms: O_25  and  C_26
REMARK                            x       y       z     vdW  Elec       q    Type
REMARK                         _______ _______ _______ _____ _____    ______ ____
ROOT
ATOM      1  C   UNL     1       5.562   5.125  17.819  0.00  0.00    +0.000 C 
ATOM      2  C   UNL     1       5.416   3.840  18.137  0.00  0.00    +0.000 C 
ATOM      3  C   UNL     1       4.075   3.359  18.474  0.00  0.00    +0.000 C 
ATOM      4  O   UNL     1       3.769   2.241  18.081  0.00  0.00    +0.000 OA
ATOM      5  C   UNL     1       3.157   4.293  19.176  0.00  0.00    +0.000 A 
ATOM      6  C   UNL     1       2.132   3.875  20.045  0.00  0.00    +0.000 A 
ATOM      7  C   UNL     1       1.302   4.853  20.599  0.00  0.00    +0.000 A 
ATOM      8  C   UNL     1       1.482   6.201  20.323  0.00  0.00    +0.000 A 
ATOM      9  C   UNL     1       2.497   6.650  19.470  0.00  0.00    +0.000 A 
ATOM     10  C   UNL     1       3.338   5.687  18.881  0.00  0.00    +0.000 A 
ATOM     11  C   UNL     1       4.388   6.008  17.872  0.00  0.00    +0.000 C 
ATOM     12  O   UNL     1       4.248   6.873  17.019  0.00  0.00    +0.000 OA
ENDROOT
BRANCH   1  13
ATOM     13  S   UNL     1       7.044   5.650  17.107  0.00  0.00    +0.000 S 
ATOM     14  O   UNL     1       6.732   6.469  15.945  0.00  0.00    +0.000 OA
ATOM     15  O   UNL     1       7.939   4.521  16.954  0.00  0.00    +0.000 OA
BRANCH  13  16
ATOM     16  C   UNL     1       7.716   6.753  18.356  0.00  0.00    +0.000 C 
BRANCH  16  17
ATOM     17  C   UNL     1       7.970   8.136  17.769  0.00  0.00    +0.000 C 
BRANCH  17  18
ATOM     18  C   UNL     1       8.787   9.027  18.704  0.00  0.00    +0.000 C 
BRANCH  18  19
ATOM     19  C   UNL     1       8.733  10.478  18.224  0.00  0.00    +0.000 C 
BRANCH  19  20
ATOM     20  C   UNL     1      10.118  11.007  17.864  0.00  0.00    +0.000 C 
BRANCH  20  21
ATOM     21  C   UNL     1      10.471  12.218  18.727  0.00  0.00    +0.000 C 
BRANCH  21  22
ATOM     22  C   UNL     1       9.290  13.178  18.840  0.00  0.00    +0.000 C 
BRANCH  22  23
ATOM     23  C   UNL     1       9.534  14.444  18.022  0.00  0.00    +0.000 C 
BRANCH  23  25
ATOM     24  C   UNL     1      11.459  15.780  17.110  0.00  0.00    +0.000 C 
ATOM     25  C   UNL     1      10.882  14.389  17.308  0.00  0.00    +0.000 C 
ENDBRANCH  23  25
ENDBRANCH  22  23
ENDBRANCH  21  22
ENDBRANCH  20  21
ENDBRANCH  19  20
ENDBRANCH  18  19
ENDBRANCH  17  18
ENDBRANCH  16  17
ENDBRANCH  13  16
ENDBRANCH   1  13
BRANCH   6  26
ATOM     26  O   UNL     1       1.742   2.656  20.513  0.00  0.00    +0.000 OA
ATOM     27  C   UNL     1       1.506   2.373  21.875  0.00  0.00    +0.000 C 
ENDBRANCH   6  26
BRANCH   9  28
ATOM     28  O   UNL     1       2.442   8.008  19.410  0.00  0.00    +0.000 OA
ATOM     29  C   UNL     1       1.372   8.779  19.917  0.00  0.00    +0.000 C 
ENDBRANCH   9  28
TORSDOF 12
ENDMDL
MODEL 5
REMARK VINA RESULT:      -7.1      4.400      7.133
REMARK  Name = 
REMARK  15 active torsions:
REMARK  status: ('A' for Active; 'I' for Inactive)
REMARK    1  A    between atoms: C_1  and  C_2
REMARK    2  A    between atoms: C_2  and  C_3
REMARK    3  A    between atoms: C_3  and  C_4
REMARK    4  A    between atoms: C_4  and  C_5
REMARK    5  A    between atoms: C_5  and  C_6
REMARK    6  A    between atoms: C_6  and  C_7
REMARK    7  A    between atoms: C_7  and  C_8
REMARK    8  A    between atoms: C_8  and  C_9
REMARK    9  A    between atoms: C_9  and  C_10
REMARK   10  A    between atoms: C_10  and  S_11
REMARK   11  A    between atoms: S_11  and  C_14
REMARK   12  A    between atoms: C_19  and  O_20
REMARK   13  A    between atoms: O_20  and  C_21
REMARK   14  A    between atoms: C_24  and  O_25
REMARK   15  A    between atoms: O_25  and  C_26
REMARK                            x       y       z     vdW  Elec       q    Type
REMARK                         _______ _______ _______ _____ _____    ______ ____
ROOT
ATOM      1  C   UNL     1       5.566   5.118  17.886  0.00  0.00    +0.000 C 
ATOM      2  C   UNL     1       5.476   3.833  18.224  0.00  0.00    +0.000 C 
ATOM      3  C   UNL     1       4.165   3.310  18.614  0.00  0.00    +0.000 C 
ATOM      4  O   UNL     1       3.884   2.178  18.244  0.00  0.00    +0.000 OA
ATOM      5  C   UNL     1       3.240   4.222  19.336  0.00  0.00    +0.000 A 
ATOM      6  C   UNL     1       2.261   3.780  20.246  0.00  0.00    +0.000 A 
ATOM      7  C   UNL     1       1.417   4.736  20.817  0.00  0.00    +0.000 A 
ATOM      8  C   UNL     1       1.541   6.086  20.519  0.00  0.00    +0.000 A 
ATOM      9  C   UNL     1       2.509   6.558  19.625  0.00  0.00    +0.000 A 
ATOM     10  C   UNL     1       3.362   5.618  19.018  0.00  0.00    +0.000 A 
ATOM     11  C   UNL     1       4.365   5.961  17.970  0.00  0.00    +0.000 C 
ATOM     12  O   UNL     1       4.166   6.810  17.112  0.00  0.00    +0.000 OA
ENDROOT
BRANCH   1  13
ATOM     13  S   UNL     1       7.003   5.684  17.117  0.00  0.00    +0.000 S 
ATOM     14  O   UNL     1       6.625   6.442  15.934  0.00  0.00    +0.000 OA
ATOM     15  O   UNL     1       7.948   4.593  16.982  0.00  0.00    +0.000 OA
BRANCH  13  16
ATOM     16  C   UNL     1       7.653   6.863  18.305  0.00  0.00    +0.000 C 
BRANCH  16  17
ATOM     17  C   UNL     1       7.867   8.222  17.651  0.00  0.00    +0.000 C 
BRANCH  17  18
ATOM     18  C   UNL     1       8.613   9.199  18.559  0.00  0.00    +0.000 C 
BRANCH  18  19
ATOM     19  C   UNL     1       8.673  10.580  17.906  0.00  0.00    +0.000 C 
BRANCH  19  20
ATOM     20  C   UNL     1      10.024  11.254  18.129  0.00  0.00    +0.000 C 
BRANCH  20  21
ATOM     21  C   UNL     1      10.451  11.130  19.591  0.00  0.00    +0.000 C 
BRANCH  21  22
ATOM     22  C   UNL     1      10.727  12.500  20.203  0.00  0.00    +0.000 C 
BRANCH  22  23
ATOM     23  C   UNL     1       9.540  12.974  21.040  0.00  0.00    +0.000 C 
BRANCH  23  25
ATOM     24  C   UNL     1       7.967  14.917  21.303  0.00  0.00    +0.000 C 
ATOM     25  C   UNL     1       8.764  14.075  20.322  0.00  0.00    +0.000 C 
ENDBRANCH  23  25
ENDBRANCH  22  23
ENDBRANCH  21  22
ENDBRANCH  20  21
ENDBRANCH  19  20
ENDBRANCH  18  19
ENDBRANCH  17  18
ENDBRANCH  16  17
ENDBRANCH  13  16
ENDBRANCH   1  13
BRANCH   6  26
ATOM     26  O   UNL     1       1.929   2.555  20.741  0.00  0.00    +0.000 OA
ATOM     27  C   UNL     1       1.378   2.345  22.023  0.00  0.00    +0.000 C 
ENDBRANCH   6  26
BRANCH   9  28
ATOM     28  O   UNL     1       2.405   7.913  19.552  0.00  0.00    +0.000 OA
ATOM     29  C   UNL     1       1.419   8.668  20.225  0.00  0.00    +0.000 C 
ENDBRANCH   9  28
TORSDOF 12
ENDMDL
MODEL 6
REMARK VINA RESULT:      -7.0      4.697      6.952
REMARK  Name = 
REMARK  15 active torsions:
REMARK  status: ('A' for Active; 'I' for Inactive)
REMARK    1  A    between atoms: C_1  and  C_2
REMARK    2  A    between atoms: C_2  and  C_3
REMARK    3  A    between atoms: C_3  and  C_4
REMARK    4  A    between atoms: C_4  and  C_5
REMARK    5  A    between atoms: C_5  and  C_6
REMARK    6  A    between atoms: C_6  and  C_7
REMARK    7  A    between atoms: C_7  and  C_8
REMARK    8  A    between atoms: C_8  and  C_9
REMARK    9  A    between atoms: C_9  and  C_10
REMARK   10  A    between atoms: C_10  and  S_11
REMARK   11  A    between atoms: S_11  and  C_14
REMARK   12  A    between atoms: C_19  and  O_20
REMARK   13  A    between atoms: O_20  and  C_21
REMARK   14  A    between atoms: C_24  and  O_25
REMARK   15  A    between atoms: O_25  and  C_26
REMARK                            x       y       z     vdW  Elec       q    Type
REMARK                         _______ _______ _______ _____ _____    ______ ____
ROOT
ATOM      1  C   UNL     1       5.681   5.322  18.121  0.00  0.00    +0.000 C 
ATOM      2  C   UNL     1       5.646   4.225  18.874  0.00  0.00    +0.000 C 
ATOM      3  C   UNL     1       4.353   3.795  19.411  0.00  0.00    +0.000 C 
ATOM      4  O   UNL     1       4.136   2.591  19.446  0.00  0.00    +0.000 OA
ATOM      5  C   UNL     1       3.369   4.847  19.777  0.00  0.00    +0.000 A 
ATOM      6  C   UNL     1       2.392   4.687  20.778  0.00  0.00    +0.000 A 
ATOM      7  C   UNL     1       1.490   5.733  20.987  0.00  0.00    +0.000 A 
ATOM      8  C   UNL     1       1.554   6.907  20.250  0.00  0.00    +0.000 A 
ATOM      9  C   UNL     1       2.519   7.101  19.254  0.00  0.00    +0.000 A 
ATOM     10  C   UNL     1       3.430   6.057  19.006  0.00  0.00    +0.000 A 
ATOM     11  C   UNL     1       4.439   6.079  17.908  0.00  0.00    +0.000 C 
ATOM     12  O   UNL     1       4.218   6.575  16.812  0.00  0.00    +0.000 OA
ENDROOT
BRANCH   1  13
ATOM     13  S   UNL     1       7.106   5.671  17.212  0.00  0.00    +0.000 S 
ATOM     14  O   UNL     1       6.712   6.288  15.955  0.00  0.00    +0.000 OA
ATOM     15  O   UNL     1       7.966   4.505  17.185  0.00  0.00    +0.000 OA
BRANCH  13  16
ATOM     16  C   UNL     1       7.900   6.949  18.193  0.00  0.00    +0.000 C 
BRANCH  16  17
ATOM     17  C   UNL     1       8.221   8.164  17.332  0.00  0.00    +0.000 C 
BRANCH  17  18
ATOM     18  C   UNL     1       8.059   9.480  18.092  0.00  0.00    +0.000 C 
BRANCH  18  19
ATOM     19  C   UNL     1       9.288   9.735  18.965  0.00  0.00    +0.000 C 
BRANCH  19  20
ATOM     20  C   UNL     1       9.385  11.196  19.394  0.00  0.00    +0.000 C 
BRANCH  20  21
ATOM     21  C   UNL     1       9.519  12.106  18.173  0.00  0.00    +0.000 C 
BRANCH  21  22
ATOM     22  C   UNL     1      10.930  12.051  17.596  0.00  0.00    +0.000 C 
BRANCH  22  23
ATOM     23  C   UNL     1      11.725  13.298  17.975  0.00  0.00    +0.000 C 
BRANCH  23  25
ATOM     24  C   UNL     1      11.660  15.722  17.312  0.00  0.00    +0.000 C 
ATOM     25  C   UNL     1      11.780  14.291  16.817  0.00  0.00    +0.000 C 
ENDBRANCH  23  25
ENDBRANCH  22  23
ENDBRANCH  21  22
ENDBRANCH  20  21
ENDBRANCH  19  20
ENDBRANCH  18  19
ENDBRANCH  17  18
ENDBRANCH  16  17
ENDBRANCH  13  16
ENDBRANCH   1  13
BRANCH   6  26
ATOM     26  O   UNL     1       2.109   3.685  21.657  0.00  0.00    +0.000 OA
ATOM     27  C   UNL     1       1.379   2.525  21.322  0.00  0.00    +0.000 C 
ENDBRANCH   6  26
BRANCH   9  28
ATOM     28  O   UNL     1       2.351   8.343  18.725  0.00  0.00    +0.000 OA
ATOM     29  C   UNL     1       1.552   8.619  17.594  0.00  0.00    +0.000 C 
ENDBRANCH   9  28
TORSDOF 12
ENDMDL
MODEL 7
REMARK VINA RESULT:      -7.0      4.284      6.587
REMARK  Name = 
REMARK  15 active torsions:
REMARK  status: ('A' for Active; 'I' for Inactive)
REMARK    1  A    between atoms: C_1  and  C_2
REMARK    2  A    between atoms: C_2  and  C_3
REMARK    3  A    between atoms: C_3  and  C_4
REMARK    4  A    between atoms: C_4  and  C_5
REMARK    5  A    between atoms: C_5  and  C_6
REMARK    6  A    between atoms: C_6  and  C_7
REMARK    7  A    between atoms: C_7  and  C_8
REMARK    8  A    between atoms: C_8  and  C_9
REMARK    9  A    between atoms: C_9  and  C_10
REMARK   10  A    between atoms: C_10  and  S_11
REMARK   11  A    between atoms: S_11  and  C_14
REMARK   12  A    between atoms: C_19  and  O_20
REMARK   13  A    between atoms: O_20  and  C_21
REMARK   14  A    between atoms: C_24  and  O_25
REMARK   15  A    between atoms: O_25  and  C_26
REMARK                            x       y       z     vdW  Elec       q    Type
REMARK                         _______ _______ _______ _____ _____    ______ ____
ROOT
ATOM      1  C   UNL     1       4.814   4.937  17.024  0.00  0.00    +0.000 C 
ATOM      2  C   UNL     1       4.591   3.652  17.292  0.00  0.00    +0.000 C 
ATOM      3  C   UNL     1       3.320   3.286  17.921  0.00  0.00    +0.000 C 
ATOM      4  O   UNL     1       2.794   2.245  17.550  0.00  0.00    +0.000 OA
ATOM      5  C   UNL     1       2.718   4.246  18.881  0.00  0.00    +0.000 A 
ATOM      6  C   UNL     1       1.886   3.864  19.951  0.00  0.00    +0.000 A 
ATOM      7  C   UNL     1       1.340   4.871  20.750  0.00  0.00    +0.000 A 
ATOM      8  C   UNL     1       1.613   6.212  20.518  0.00  0.00    +0.000 A 
ATOM      9  C   UNL     1       2.442   6.625  19.469  0.00  0.00    +0.000 A 
ATOM     10  C   UNL     1       2.994   5.634  18.634  0.00  0.00    +0.000 A 
ATOM     11  C   UNL     1       3.804   5.930  17.418  0.00  0.00    +0.000 C 
ATOM     12  O   UNL     1       3.573   6.876  16.679  0.00  0.00    +0.000 OA
ENDROOT
BRANCH   1  13
ATOM     13  S   UNL     1       6.136   5.364  16.001  0.00  0.00    +0.000 S 
ATOM     14  O   UNL     1       5.740   6.503  15.187  0.00  0.00    +0.000 OA
ATOM     15  O   UNL     1       6.652   4.177  15.349  0.00  0.00    +0.000 OA
BRANCH  13  16
ATOM     16  C   UNL     1       7.365   5.960  17.167  0.00  0.00    +0.000 C 
BRANCH  16  17
ATOM     17  C   UNL     1       7.159   7.443  17.452  0.00  0.00    +0.000 C 
BRANCH  17  18
ATOM     18  C   UNL     1       8.274   8.034  18.315  0.00  0.00    +0.000 C 
BRANCH  18  19
ATOM     19  C   UNL     1       8.454   9.518  17.993  0.00  0.00    +0.000 C 
BRANCH  19  20
ATOM     20  C   UNL     1       9.158  10.261  19.124  0.00  0.00    +0.000 C 
BRANCH  20  21
ATOM     21  C   UNL     1      10.235  11.191  18.567  0.00  0.00    +0.000 C 
BRANCH  21  22
ATOM     22  C   UNL     1       9.615  12.378  17.835  0.00  0.00    +0.000 C 
BRANCH  22  23
ATOM     23  C   UNL     1      10.681  13.183  17.096  0.00  0.00    +0.000 C 
BRANCH  23  25
ATOM     24  C   UNL     1       9.578  15.175  18.160  0.00  0.00    +0.000 C 
ATOM     25  C   UNL     1      10.898  14.544  17.750  0.00  0.00    +0.000 C 
ENDBRANCH  23  25
ENDBRANCH  22  23
ENDBRANCH  21  22
ENDBRANCH  20  21
ENDBRANCH  19  20
ENDBRANCH  18  19
ENDBRANCH  17  18
ENDBRANCH  16  17
ENDBRANCH  13  16
ENDBRANCH   1  13
BRANCH   6  26
ATOM     26  O   UNL     1       1.472   2.656  20.427  0.00  0.00    +0.000 OA
ATOM     27  C   UNL     1       1.443   2.317  21.797  0.00  0.00    +0.000 C 
ENDBRANCH   6  26
BRANCH   9  28
ATOM     28  O   UNL     1       2.542   7.981  19.505  0.00  0.00    +0.000 OA
ATOM     29  C   UNL     1       1.817   8.850  18.659  0.00  0.00    +0.000 C 
ENDBRANCH   9  28
TORSDOF 12
ENDMDL
MODEL 8
REMARK VINA RESULT:      -6.9      0.974      1.301
REMARK  Name = 
REMARK  15 active torsions:
REMARK  status: ('A' for Active; 'I' for Inactive)
REMARK    1  A    between atoms: C_1  and  C_2
REMARK    2  A    between atoms: C_2  and  C_3
REMARK    3  A    between atoms: C_3  and  C_4
REMARK    4  A    between atoms: C_4  and  C_5
REMARK    5  A    between atoms: C_5  and  C_6
REMARK    6  A    between atoms: C_6  and  C_7
REMARK    7  A    between atoms: C_7  and  C_8
REMARK    8  A    between atoms: C_8  and  C_9
REMARK    9  A    between atoms: C_9  and  C_10
REMARK   10  A    between atoms: C_10  and  S_11
REMARK   11  A    between atoms: S_11  and  C_14
REMARK   12  A    between atoms: C_19  and  O_20
REMARK   13  A    between atoms: O_20  and  C_21
REMARK   14  A    between atoms: C_24  and  O_25
REMARK   15  A    between atoms: O_25  and  C_26
REMARK                            x       y       z     vdW  Elec       q    Type
REMARK                         _______ _______ _______ _____ _____    ______ ____
ROOT
ATOM      1  C   UNL     1       5.734   4.845  18.378  0.00  0.00    +0.000 C 
ATOM      2  C   UNL     1       5.472   3.540  18.390  0.00  0.00    +0.000 C 
ATOM      3  C   UNL     1       4.071   3.114  18.404  0.00  0.00    +0.000 C 
ATOM      4  O   UNL     1       3.781   2.128  17.740  0.00  0.00    +0.000 OA
ATOM      5  C   UNL     1       3.095   3.963  19.134  0.00  0.00    +0.000 A 
ATOM      6  C   UNL     1       1.917   3.466  19.725  0.00  0.00    +0.000 A 
ATOM      7  C   UNL     1       1.055   4.380  20.336  0.00  0.00    +0.000 A 
ATOM      8  C   UNL     1       1.346   5.736  20.383  0.00  0.00    +0.000 A 
ATOM      9  C   UNL     1       2.512   6.260  19.814  0.00  0.00    +0.000 A 
ATOM     10  C   UNL     1       3.392   5.368  19.173  0.00  0.00    +0.000 A 
ATOM     11  C   UNL     1       4.614   5.795  18.432  0.00  0.00    +0.000 C 
ATOM     12  O   UNL     1       4.664   6.822  17.770  0.00  0.00    +0.000 OA
ENDROOT
BRANCH   1  13
ATOM     13  S   UNL     1       7.339   5.376  18.034  0.00  0.00    +0.000 S 
ATOM     14  O   UNL     1       8.153   4.212  17.717  0.00  0.00    +0.000 OA
ATOM     15  O   UNL     1       7.785   6.286  19.070  0.00  0.00    +0.000 OA
BRANCH  13  16
ATOM     16  C   UNL     1       7.134   6.299  16.506  0.00  0.00    +0.000 C 
BRANCH  16  17
ATOM     17  C   UNL     1       7.027   5.352  15.317  0.00  0.00    +0.000 C 
BRANCH  17  18
ATOM     18  C   UNL     1       5.577   5.079  14.916  0.00  0.00    +0.000 C 
BRANCH  18  19
ATOM     19  C   UNL     1       5.503   3.824  14.046  0.00  0.00    +0.000 C 
BRANCH  19  20
ATOM     20  C   UNL     1       6.588   3.813  12.973  0.00  0.00    +0.000 C 
BRANCH  20  21
ATOM     21  C   UNL     1       5.974   3.589  11.592  0.00  0.00    +0.000 C 
BRANCH  21  22
ATOM     22  C   UNL     1       5.072   2.358  11.581  0.00  0.00    +0.000 C 
BRANCH  22  23
ATOM     23  C   UNL     1       3.758   2.648  10.860  0.00  0.00    +0.000 C 
BRANCH  23  25
ATOM     24  C   UNL     1       2.762   4.420   9.381  0.00  0.00    +0.000 C 
ATOM     25  C   UNL     1       3.570   4.146  10.638  0.00  0.00    +0.000 C 
ENDBRANCH  23  25
ENDBRANCH  22  23
ENDBRANCH  21  22
ENDBRANCH  20  21
ENDBRANCH  19  20
ENDBRANCH  18  19
ENDBRANCH  17  18
ENDBRANCH  16  17
ENDBRANCH  13  16
ENDBRANCH   1  13
BRANCH   6  26
ATOM     26  O   UNL     1       1.393   2.216  19.857  0.00  0.00    +0.000 OA
ATOM     27  C   UNL     1       0.654   1.560  18.849  0.00  0.00    +0.000 C 
ENDBRANCH   6  26
BRANCH   9  28
ATOM     28  O   UNL     1       2.535   7.602  20.035  0.00  0.00    +0.000 OA
ATOM     29  C   UNL     1       1.883   8.550  19.215  0.00  0.00    +0.000 C 
ENDBRANCH   9  28
TORSDOF 12
ENDMDL
MODEL 9
REMARK VINA RESULT:      -6.9      4.336      7.414
REMARK  Name = 
REMARK  15 active torsions:
REMARK  status: ('A' for Active; 'I' for Inactive)
REMARK    1  A    between atoms: C_1  and  C_2
REMARK    2  A    between atoms: C_2  and  C_3
REMARK    3  A    between atoms: C_3  and  C_4
REMARK    4  A    between atoms: C_4  and  C_5
REMARK    5  A    between atoms: C_5  and  C_6
REMARK    6  A    between atoms: C_6  and  C_7
REMARK    7  A    between atoms: C_7  and  C_8
REMARK    8  A    between atoms: C_8  and  C_9
REMARK    9  A    between atoms: C_9  and  C_10
REMARK   10  A    between atoms: C_10  and  S_11
REMARK   11  A    between atoms: S_11  and  C_14
REMARK   12  A    between atoms: C_19  and  O_20
REMARK   13  A    between atoms: O_20  and  C_21
REMARK   14  A    between atoms: C_24  and  O_25
REMARK   15  A    between atoms: O_25  and  C_26
REMARK                            x       y       z     vdW  Elec       q    Type
REMARK                         _______ _______ _______ _____ _____    ______ ____
ROOT
ATOM      1  C   UNL     1       5.689   4.787  18.091  0.00  0.00    +0.000 C 
ATOM      2  C   UNL     1       5.588   3.804  18.982  0.00  0.00    +0.000 C 
ATOM      3  C   UNL     1       4.276   3.538  19.575  0.00  0.00    +0.000 C 
ATOM      4  O   UNL     1       3.979   2.367  19.769  0.00  0.00    +0.000 OA
ATOM      5  C   UNL     1       3.370   4.693  19.802  0.00  0.00    +0.000 A 
ATOM      6  C   UNL     1       2.396   4.734  20.818  0.00  0.00    +0.000 A 
ATOM      7  C   UNL     1       1.570   5.858  20.890  0.00  0.00    +0.000 A 
ATOM      8  C   UNL     1       1.704   6.918  20.004  0.00  0.00    +0.000 A 
ATOM      9  C   UNL     1       2.667   6.912  18.989  0.00  0.00    +0.000 A 
ATOM     10  C   UNL     1       3.503   5.785  18.878  0.00  0.00    +0.000 A 
ATOM     11  C   UNL     1       4.498   5.593  17.783  0.00  0.00    +0.000 C 
ATOM     12  O   UNL     1       4.298   5.955  16.633  0.00  0.00    +0.000 OA
ENDROOT
BRANCH   1  13
ATOM     13  S   UNL     1       7.123   4.915  17.140  0.00  0.00    +0.000 S 
ATOM     14  O   UNL     1       6.868   4.318  15.838  0.00  0.00    +0.000 OA
ATOM     15  O   UNL     1       8.263   4.462  17.912  0.00  0.00    +0.000 OA
BRANCH  13  16
ATOM     16  C   UNL     1       7.272   6.686  16.880  0.00  0.00    +0.000 C 
BRANCH  16  17
ATOM     17  C   UNL     1       7.839   7.365  18.121  0.00  0.00    +0.000 C 
BRANCH  17  18
ATOM     18  C   UNL     1       8.109   8.853  17.902  0.00  0.00    +0.000 C 
BRANCH  18  19
ATOM     19  C   UNL     1       9.068   9.374  18.974  0.00  0.00    +0.000 C 
BRANCH  19  20
ATOM     20  C   UNL     1       9.410  10.845  18.761  0.00  0.00    +0.000 C 
BRANCH  20  21
ATOM     21  C   UNL     1       9.940  11.466  20.053  0.00  0.00    +0.000 C 
BRANCH  21  22
ATOM     22  C   UNL     1       8.801  11.811  21.007  0.00  0.00    +0.000 C 
BRANCH  22  23
ATOM     23  C   UNL     1       9.339  12.210  22.380  0.00  0.00    +0.000 C 
BRANCH  23  25
ATOM     24  C   UNL     1       8.386  13.039  24.553  0.00  0.00    +0.000 C 
ATOM     25  C   UNL     1       8.434  13.241  23.048  0.00  0.00    +0.000 C 
ENDBRANCH  23  25
ENDBRANCH  22  23
ENDBRANCH  21  22
ENDBRANCH  20  21
ENDBRANCH  19  20
ENDBRANCH  18  19
ENDBRANCH  17  18
ENDBRANCH  16  17
ENDBRANCH  13  16
ENDBRANCH   1  13
BRANCH   6  26
ATOM     26  O   UNL     1       2.057   3.878  21.823  0.00  0.00    +0.000 OA
ATOM     27  C   UNL     1       1.276   2.717  21.639  0.00  0.00    +0.000 C 
ENDBRANCH   6  26
BRANCH   9  28
ATOM     28  O   UNL     1       2.578   8.083  18.301  0.00  0.00    +0.000 OA
ATOM     29  C   UNL     1       1.549   9.032  18.489  0.00  0.00    +0.000 C 
ENDBRANCH   9  28
TORSDOF 12
ENDMDL
