MODEL 1
REMARK VINA RESULT:      -6.1      0.000      0.000
REMARK  Name = 
REMARK  8 active torsions:
REMARK  status: ('A' for Active; 'I' for Inactive)
REMARK    1  A    between atoms: C_1  and  C_2
REMARK    2  A    between atoms: C_7  and  S_8
REMARK    3  A    between atoms: S_8  and  C_11
REMARK    4  A    between atoms: C_11  and  C_12
REMARK    5  A    between atoms: C_12  and  O_13
REMARK    6  A    between atoms: O_13  and  C_14
REMARK    7  A    between atoms: C_14  and  C_15
REMARK    8  A    between atoms: C_14  and  C_16
REMARK                            x       y       z     vdW  Elec       q    Type
REMARK                         _______ _______ _______ _____ _____    ______ ____
ROOT
ATOM      1  S   UNL     1       4.344   3.807  18.276  0.00  0.00    +0.000 S 
ATOM      2  O   UNL     1       5.327   3.635  19.331  0.00  0.00    +0.000 OA
ATOM      3  O   UNL     1       3.411   2.736  17.984  0.00  0.00    +0.000 OA
ENDROOT
BRANCH   1  10
ATOM      4  C   UNL     1       2.406   4.352  20.834  0.00  0.00    +0.000 C 
ATOM      5  C   UNL     1       2.628   5.437  19.819  0.00  0.00    +0.000 A 
ATOM      6  C   UNL     1       2.016   6.685  20.054  0.00  0.00    +0.000 A 
ATOM      7  C   UNL     1       2.183   7.754  19.172  0.00  0.00    +0.000 A 
ATOM      8  C   UNL     1       2.964   7.599  18.034  0.00  0.00    +0.000 A 
ATOM      9  C   UNL     1       3.581   6.375  17.779  0.00  0.00    +0.000 A 
ATOM     10  C   UNL     1       3.417   5.292  18.662  0.00  0.00    +0.000 A 
ENDBRANCH   1  10
BRANCH   1  11
ATOM     11  C   UNL     1       5.221   4.201  16.783  0.00  0.00    +0.000 C 
BRANCH  11  12
ATOM     12  C   UNL     1       6.697   4.377  17.094  0.00  0.00    +0.000 C 
BRANCH  12  13
ATOM     13  O   UNL     1       7.072   5.730  16.827  0.00  0.00    +0.000 OA
BRANCH  13  14
ATOM     14  C   UNL     1       7.126   6.562  17.995  0.00  0.00    +0.000 C 
ATOM     15  C   UNL     1       7.963   5.931  19.105  0.00  0.00    +0.000 C 
ATOM     16  C   UNL     1       7.750   7.888  17.570  0.00  0.00    +0.000 C 
ENDBRANCH  13  14
ENDBRANCH  12  13
ENDBRANCH  11  12
ENDBRANCH   1  11
TORSDOF 5
ENDMDL
MODEL 2
REMARK VINA RESULT:      -6.0      2.844      4.389
REMARK  Name = 
REMARK  8 active torsions:
REMARK  status: ('A' for Active; 'I' for Inactive)
REMARK    1  A    between atoms: C_1  and  C_2
REMARK    2  A    between atoms: C_7  and  S_8
REMARK    3  A    between atoms: S_8  and  C_11
REMARK    4  A    between atoms: C_11  and  C_12
REMARK    5  A    between atoms: C_12  and  O_13
REMARK    6  A    between atoms: O_13  and  C_14
REMARK    7  A    between atoms: C_14  and  C_15
REMARK    8  A    between atoms: C_14  and  C_16
REMARK                            x       y       z     vdW  Elec       q    Type
REMARK                         _______ _______ _______ _____ _____    ______ ____
ROOT
ATOM      1  S   UNL     1       5.677   5.774  16.822  0.00  0.00    +0.000 S 
ATOM      2  O   UNL     1       5.343   6.666  15.725  0.00  0.00    +0.000 OA
ATOM      3  O   UNL     1       6.379   6.293  17.979  0.00  0.00    +0.000 OA
ENDROOT
BRANCH   1  10
ATOM      4  C   UNL     1       3.086   7.225  18.156  0.00  0.00    +0.000 C 
ATOM      5  C   UNL     1       3.067   5.744  17.903  0.00  0.00    +0.000 A 
ATOM      6  C   UNL     1       1.883   5.045  18.213  0.00  0.00    +0.000 A 
ATOM      7  C   UNL     1       1.772   3.671  17.994  0.00  0.00    +0.000 A 
ATOM      8  C   UNL     1       2.843   2.964  17.462  0.00  0.00    +0.000 A 
ATOM      9  C   UNL     1       4.025   3.632  17.146  0.00  0.00    +0.000 A 
ATOM     10  C   UNL     1       4.146   5.017  17.365  0.00  0.00    +0.000 A 
ENDBRANCH   1  10
BRANCH   1  11
ATOM     11  C   UNL     1       6.628   4.433  16.151  0.00  0.00    +0.000 C 
BRANCH  11  12
ATOM     12  C   UNL     1       6.841   4.655  14.664  0.00  0.00    +0.000 C 
BRANCH  12  13
ATOM     13  O   UNL     1       6.245   3.575  13.941  0.00  0.00    +0.000 OA
BRANCH  13  14
ATOM     14  C   UNL     1       6.089   3.829  12.537  0.00  0.00    +0.000 C 
ATOM     15  C   UNL     1       7.364   4.389  11.914  0.00  0.00    +0.000 C 
ATOM     16  C   UNL     1       5.735   2.497  11.880  0.00  0.00    +0.000 C 
ENDBRANCH  13  14
ENDBRANCH  12  13
ENDBRANCH  11  12
ENDBRANCH   1  11
TORSDOF 5
ENDMDL
MODEL 3
REMARK VINA RESULT:      -6.0      2.288      5.250
REMARK  Name = 
REMARK  8 active torsions:
REMARK  status: ('A' for Active; 'I' for Inactive)
REMARK    1  A    between atoms: C_1  and  C_2
REMARK    2  A    between atoms: C_7  and  S_8
REMARK    3  A    between atoms: S_8  and  C_11
REMARK    4  A    between atoms: C_11  and  C_12
REMARK    5  A    between atoms: C_12  and  O_13
REMARK    6  A    between atoms: O_13  and  C_14
REMARK    7  A    between atoms: C_14  and  C_15
REMARK    8  A    between atoms: C_14  and  C_16
REMARK                            x       y       z     vdW  Elec       q    Type
REMARK                         _______ _______ _______ _____ _____    ______ ____
ROOT
ATOM      1  S   UNL     1       4.206   4.349  17.821  0.00  0.00    +0.000 S 
ATOM      2  O   UNL     1       3.077   5.258  17.913  0.00  0.00    +0.000 OA
ATOM      3  O   UNL     1       4.323   3.464  16.679  0.00  0.00    +0.000 OA
ENDROOT
BRANCH   1  10
ATOM      4  C   UNL     1       5.198   6.701  15.801  0.00  0.00    +0.000 C 
ATOM      5  C   UNL     1       6.013   6.368  17.019  0.00  0.00    +0.000 A 
ATOM      6  C   UNL     1       7.165   7.141  17.263  0.00  0.00    +0.000 A 
ATOM      7  C   UNL     1       7.970   6.913  18.380  0.00  0.00    +0.000 A 
ATOM      8  C   UNL     1       7.642   5.904  19.277  0.00  0.00    +0.000 A 
ATOM      9  C   UNL     1       6.507   5.125  19.058  0.00  0.00    +0.000 A 
ATOM     10  C   UNL     1       5.690   5.348  17.934  0.00  0.00    +0.000 A 
ENDBRANCH   1  10
BRANCH   1  11
ATOM     11  C   UNL     1       4.219   3.359  19.295  0.00  0.00    +0.000 C 
BRANCH  11  12
ATOM     12  C   UNL     1       3.479   2.058  19.038  0.00  0.00    +0.000 C 
BRANCH  12  13
ATOM     13  O   UNL     1       2.153   2.164  19.562  0.00  0.00    +0.000 OA
BRANCH  13  14
ATOM     14  C   UNL     1       2.003   3.175  20.570  0.00  0.00    +0.000 C 
ATOM     15  C   UNL     1       0.850   4.125  20.258  0.00  0.00    +0.000 C 
ATOM     16  C   UNL     1       1.735   2.453  21.888  0.00  0.00    +0.000 C 
ENDBRANCH  13  14
ENDBRANCH  12  13
ENDBRANCH  11  12
ENDBRANCH   1  11
TORSDOF 5
ENDMDL
MODEL 4
REMARK VINA RESULT:      -5.9      2.039      4.460
REMARK  Name = 
REMARK  8 active torsions:
REMARK  status: ('A' for Active; 'I' for Inactive)
REMARK    1  A    between atoms: C_1  and  C_2
REMARK    2  A    between atoms: C_7  and  S_8
REMARK    3  A    between atoms: S_8  and  C_11
REMARK    4  A    between atoms: C_11  and  C_12
REMARK    5  A    between atoms: C_12  and  O_13
REMARK    6  A    between atoms: O_13  and  C_14
REMARK    7  A    between atoms: C_14  and  C_15
REMARK    8  A    between atoms: C_14  and  C_16
REMARK                            x       y       z     vdW  Elec       q    Type
REMARK                         _______ _______ _______ _____ _____    ______ ____
ROOT
ATOM      1  S   UNL     1       5.362   4.383  18.553  0.00  0.00    +0.000 S 
ATOM      2  O   UNL     1       5.534   3.977  17.169  0.00  0.00    +0.000 OA
ATOM      3  O   UNL     1       6.525   4.718  19.351  0.00  0.00    +0.000 OA
ENDROOT
BRANCH   1  10
ATOM      4  C   UNL     1       5.058   6.710  16.297  0.00  0.00    +0.000 C 
ATOM      5  C   UNL     1       4.164   6.718  17.505  0.00  0.00    +0.000 A 
ATOM      6  C   UNL     1       3.180   7.723  17.582  0.00  0.00    +0.000 A 
ATOM      7  C   UNL     1       2.296   7.794  18.659  0.00  0.00    +0.000 A 
ATOM      8  C   UNL     1       2.378   6.863  19.687  0.00  0.00    +0.000 A 
ATOM      9  C   UNL     1       3.343   5.858  19.635  0.00  0.00    +0.000 A 
ATOM     10  C   UNL     1       4.239   5.780  18.552  0.00  0.00    +0.000 A 
ENDBRANCH   1  10
BRANCH   1  11
ATOM     11  C   UNL     1       4.472   3.091  19.384  0.00  0.00    +0.000 C 
BRANCH  11  12
ATOM     12  C   UNL     1       3.514   2.427  18.410  0.00  0.00    +0.000 C 
BRANCH  12  13
ATOM     13  O   UNL     1       2.430   1.850  19.143  0.00  0.00    +0.000 OA
BRANCH  13  14
ATOM     14  C   UNL     1       1.194   2.569  19.019  0.00  0.00    +0.000 C 
ATOM     15  C   UNL     1       0.837   3.313  20.303  0.00  0.00    +0.000 C 
ATOM     16  C   UNL     1       1.371   3.565  17.877  0.00  0.00    +0.000 C 
ENDBRANCH  13  14
ENDBRANCH  12  13
ENDBRANCH  11  12
ENDBRANCH   1  11
TORSDOF 5
ENDMDL
MODEL 5
REMARK VINA RESULT:      -5.9      3.248      5.032
REMARK  Name = 
REMARK  8 active torsions:
REMARK  status: ('A' for Active; 'I' for Inactive)
REMARK    1  A    between atoms: C_1  and  C_2
REMARK    2  A    between atoms: C_7  and  S_8
REMARK    3  A    between atoms: S_8  and  C_11
REMARK    4  A    between atoms: C_11  and  C_12
REMARK    5  A    between atoms: C_12  and  O_13
REMARK    6  A    between atoms: O_13  and  C_14
REMARK    7  A    between atoms: C_14  and  C_15
REMARK    8  A    between atoms: C_14  and  C_16
REMARK                            x       y       z     vdW  Elec       q    Type
REMARK                         _______ _______ _______ _____ _____    ______ ____
ROOT
ATOM      1  S   UNL     1       6.537   4.878  15.912  0.00  0.00    +0.000 S 
ATOM      2  O   UNL     1       6.388   6.294  15.627  0.00  0.00    +0.000 OA
ATOM      3  O   UNL     1       7.823   4.365  16.341  0.00  0.00    +0.000 OA
ENDROOT
BRANCH   1  10
ATOM      4  C   UNL     1       6.617   5.483  19.110  0.00  0.00    +0.000 C 
ATOM      5  C   UNL     1       5.423   4.798  18.507  0.00  0.00    +0.000 A 
ATOM      6  C   UNL     1       4.348   4.490  19.364  0.00  0.00    +0.000 A 
ATOM      7  C   UNL     1       3.192   3.871  18.887  0.00  0.00    +0.000 A 
ATOM      8  C   UNL     1       3.087   3.542  17.541  0.00  0.00    +0.000 A 
ATOM      9  C   UNL     1       4.137   3.837  16.672  0.00  0.00    +0.000 A 
ATOM     10  C   UNL     1       5.306   4.460  17.146  0.00  0.00    +0.000 A 
ENDBRANCH   1  10
BRANCH   1  11
ATOM     11  C   UNL     1       6.039   3.984  14.461  0.00  0.00    +0.000 C 
BRANCH  11  12
ATOM     12  C   UNL     1       7.046   4.220  13.349  0.00  0.00    +0.000 C 
BRANCH  12  13
ATOM     13  O   UNL     1       6.411   3.994  12.088  0.00  0.00    +0.000 OA
BRANCH  13  14
ATOM     14  C   UNL     1       5.460   2.919  12.099  0.00  0.00    +0.000 C 
ATOM     15  C   UNL     1       4.170   3.293  11.373  0.00  0.00    +0.000 C 
ATOM     16  C   UNL     1       6.119   1.733  11.401  0.00  0.00    +0.000 C 
ENDBRANCH  13  14
ENDBRANCH  12  13
ENDBRANCH  11  12
ENDBRANCH   1  11
TORSDOF 5
ENDMDL
MODEL 6
REMARK VINA RESULT:      -5.9      2.100      3.405
REMARK  Name = 
REMARK  8 active torsions:
REMARK  status: ('A' for Active; 'I' for Inactive)
REMARK    1  A    between atoms: C_1  and  C_2
REMARK    2  A    between atoms: C_7  and  S_8
REMARK    3  A    between atoms: S_8  and  C_11
REMARK    4  A    between atoms: C_11  and  C_12
REMARK    5  A    between atoms: C_12  and  O_13
REMARK    6  A    between atoms: O_13  and  C_14
REMARK    7  A    between atoms: C_14  and  C_15
REMARK    8  A    between atoms: C_14  and  C_16
REMARK                            x       y       z     vdW  Elec       q    Type
REMARK                         _______ _______ _______ _____ _____    ______ ____
ROOT
ATOM      1  S   UNL     1       4.510   3.981  18.313  0.00  0.00    +0.000 S 
ATOM      2  O   UNL     1       5.720   3.916  19.114  0.00  0.00    +0.000 OA
ATOM      3  O   UNL     1       4.391   3.157  17.127  0.00  0.00    +0.000 OA
ENDROOT
BRANCH   1  10
ATOM      4  C   UNL     1       1.326   4.284  17.707  0.00  0.00    +0.000 C 
ATOM      5  C   UNL     1       1.788   3.755  19.036  0.00  0.00    +0.000 A 
ATOM      6  C   UNL     1       0.799   3.356  19.958  0.00  0.00    +0.000 A 
ATOM      7  C   UNL     1       1.139   2.837  21.208  0.00  0.00    +0.000 A 
ATOM      8  C   UNL     1       2.476   2.707  21.565  0.00  0.00    +0.000 A 
ATOM      9  C   UNL     1       3.472   3.094  20.670  0.00  0.00    +0.000 A 
ATOM     10  C   UNL     1       3.138   3.619  19.409  0.00  0.00    +0.000 A 
ENDBRANCH   1  10
BRANCH   1  11
ATOM     11  C   UNL     1       4.271   5.675  17.839  0.00  0.00    +0.000 C 
BRANCH  11  12
ATOM     12  C   UNL     1       5.451   6.139  17.003  0.00  0.00    +0.000 C 
BRANCH  12  13
ATOM     13  O   UNL     1       5.229   5.774  15.639  0.00  0.00    +0.000 OA
BRANCH  13  14
ATOM     14  C   UNL     1       6.375   5.197  14.996  0.00  0.00    +0.000 C 
ATOM     15  C   UNL     1       7.358   4.608  16.005  0.00  0.00    +0.000 C 
ATOM     16  C   UNL     1       5.861   4.095  14.074  0.00  0.00    +0.000 C 
ENDBRANCH  13  14
ENDBRANCH  12  13
ENDBRANCH  11  12
ENDBRANCH   1  11
TORSDOF 5
ENDMDL
MODEL 7
REMARK VINA RESULT:      -5.8      1.777      5.494
REMARK  Name = 
REMARK  8 active torsions:
REMARK  status: ('A' for Active; 'I' for Inactive)
REMARK    1  A    between atoms: C_1  and  C_2
REMARK    2  A    between atoms: C_7  and  S_8
REMARK    3  A    between atoms: S_8  and  C_11
REMARK    4  A    between atoms: C_11  and  C_12
REMARK    5  A    between atoms: C_12  and  O_13
REMARK    6  A    between atoms: O_13  and  C_14
REMARK    7  A    between atoms: C_14  and  C_15
REMARK    8  A    between atoms: C_14  and  C_16
REMARK                            x       y       z     vdW  Elec       q    Type
REMARK                         _______ _______ _______ _____ _____    ______ ____
ROOT
ATOM      1  S   UNL     1       5.461   4.651  19.077  0.00  0.00    +0.000 S 
ATOM      2  O   UNL     1       4.989   3.302  19.335  0.00  0.00    +0.000 OA
ATOM      3  O   UNL     1       6.565   5.184  19.850  0.00  0.00    +0.000 OA
ENDROOT
BRANCH   1  10
ATOM      4  C   UNL     1       7.345   6.837  17.570  0.00  0.00    +0.000 C 
ATOM      5  C   UNL     1       6.736   5.708  16.788  0.00  0.00    +0.000 A 
ATOM      6  C   UNL     1       7.059   5.615  15.419  0.00  0.00    +0.000 A 
ATOM      7  C   UNL     1       6.553   4.588  14.621  0.00  0.00    +0.000 A 
ATOM      8  C   UNL     1       5.711   3.631  15.173  0.00  0.00    +0.000 A 
ATOM      9  C   UNL     1       5.377   3.700  16.525  0.00  0.00    +0.000 A 
ATOM     10  C   UNL     1       5.881   4.733  17.336  0.00  0.00    +0.000 A 
ENDBRANCH   1  10
BRANCH   1  11
ATOM     11  C   UNL     1       4.076   5.747  19.257  0.00  0.00    +0.000 C 
BRANCH  11  12
ATOM     12  C   UNL     1       2.807   5.039  18.817  0.00  0.00    +0.000 C 
BRANCH  12  13
ATOM     13  O   UNL     1       1.969   4.832  19.956  0.00  0.00    +0.000 OA
BRANCH  13  14
ATOM     14  C   UNL     1       1.128   3.673  19.859  0.00  0.00    +0.000 C 
ATOM     15  C   UNL     1       1.481   2.812  18.648  0.00  0.00    +0.000 C 
ATOM     16  C   UNL     1       1.328   2.868  21.140  0.00  0.00    +0.000 C 
ENDBRANCH  13  14
ENDBRANCH  12  13
ENDBRANCH  11  12
ENDBRANCH   1  11
TORSDOF 5
ENDMDL
MODEL 8
REMARK VINA RESULT:      -5.7      2.068      4.636
REMARK  Name = 
REMARK  8 active torsions:
REMARK  status: ('A' for Active; 'I' for Inactive)
REMARK    1  A    between atoms: C_1  and  C_2
REMARK    2  A    between atoms: C_7  and  S_8
REMARK    3  A    between atoms: S_8  and  C_11
REMARK    4  A    between atoms: C_11  and  C_12
REMARK    5  A    between atoms: C_12  and  O_13
REMARK    6  A    between atoms: O_13  and  C_14
REMARK    7  A    between atoms: C_14  and  C_15
REMARK    8  A    between atoms: C_14  and  C_16
REMARK                            x       y       z     vdW  Elec       q    Type
REMARK                         _______ _______ _______ _____ _____    ______ ____
ROOT
ATOM      1  S   UNL     1       5.327   4.328  18.336  0.00  0.00    +0.000 S 
ATOM      2  O   UNL     1       5.208   3.782  16.996  0.00  0.00    +0.000 OA
ATOM      3  O   UNL     1       6.630   4.715  18.839  0.00  0.00    +0.000 OA
ENDROOT
BRANCH   1  10
ATOM      4  C   UNL     1       5.020   6.764  16.199  0.00  0.00    +0.000 C 
ATOM      5  C   UNL     1       4.151   6.730  17.424  0.00  0.00    +0.000 A 
ATOM      6  C   UNL     1       3.187   7.747  17.568  0.00  0.00    +0.000 A 
ATOM      7  C   UNL     1       2.326   7.782  18.665  0.00  0.00    +0.000 A 
ATOM      8  C   UNL     1       2.412   6.802  19.646  0.00  0.00    +0.000 A 
ATOM      9  C   UNL     1       3.357   5.785  19.527  0.00  0.00    +0.000 A 
ATOM     10  C   UNL     1       4.230   5.742  18.424  0.00  0.00    +0.000 A 
ENDBRANCH   1  10
BRANCH   1  11
ATOM     11  C   UNL     1       4.628   3.146  19.461  0.00  0.00    +0.000 C 
BRANCH  11  12
ATOM     12  C   UNL     1       3.757   2.167  18.692  0.00  0.00    +0.000 C 
BRANCH  12  13
ATOM     13  O   UNL     1       2.647   1.789  19.509  0.00  0.00    +0.000 OA
BRANCH  13  14
ATOM     14  C   UNL     1       1.686   2.836  19.708  0.00  0.00    +0.000 C 
ATOM     15  C   UNL     1       0.446   2.644  18.839  0.00  0.00    +0.000 C 
ATOM     16  C   UNL     1       1.292   2.805  21.183  0.00  0.00    +0.000 C 
ENDBRANCH  13  14
ENDBRANCH  12  13
ENDBRANCH  11  12
ENDBRANCH   1  11
TORSDOF 5
ENDMDL
MODEL 9
REMARK VINA RESULT:      -5.7      2.018      5.491
REMARK  Name = 
REMARK  8 active torsions:
REMARK  status: ('A' for Active; 'I' for Inactive)
REMARK    1  A    between atoms: C_1  and  C_2
REMARK    2  A    between atoms: C_7  and  S_8
REMARK    3  A    between atoms: S_8  and  C_11
REMARK    4  A    between atoms: C_11  and  C_12
REMARK    5  A    between atoms: C_12  and  O_13
REMARK    6  A    between atoms: O_13  and  C_14
REMARK    7  A    between atoms: C_14  and  C_15
REMARK    8  A    between atoms: C_14  and  C_16
REMARK                            x       y       z     vdW  Elec       q    Type
REMARK                         _______ _______ _______ _____ _____    ______ ____
ROOT
ATOM      1  S   UNL     1       4.738   4.566  18.215  0.00  0.00    +0.000 S 
ATOM      2  O   UNL     1       5.655   3.962  19.166  0.00  0.00    +0.000 OA
ATOM      3  O   UNL     1       4.105   5.831  18.534  0.00  0.00    +0.000 OA
ENDROOT
BRANCH   1  10
ATOM      4  C   UNL     1       7.393   6.352  17.616  0.00  0.00    +0.000 C 
ATOM      5  C   UNL     1       6.791   5.516  16.522  0.00  0.00    +0.000 A 
ATOM      6  C   UNL     1       7.448   5.503  15.275  0.00  0.00    +0.000 A 
ATOM      7  C   UNL     1       6.968   4.741  14.209  0.00  0.00    +0.000 A 
ATOM      8  C   UNL     1       5.818   3.977  14.365  0.00  0.00    +0.000 A 
ATOM      9  C   UNL     1       5.150   3.973  15.589  0.00  0.00    +0.000 A 
ATOM     10  C   UNL     1       5.627   4.739  16.668  0.00  0.00    +0.000 A 
ENDBRANCH   1  10
BRANCH   1  11
ATOM     11  C   UNL     1       3.463   3.379  17.871  0.00  0.00    +0.000 C 
BRANCH  11  12
ATOM     12  C   UNL     1       2.103   4.031  18.041  0.00  0.00    +0.000 C 
BRANCH  12  13
ATOM     13  O   UNL     1       1.419   3.408  19.131  0.00  0.00    +0.000 OA
BRANCH  13  14
ATOM     14  C   UNL     1       1.949   3.747  20.421  0.00  0.00    +0.000 C 
ATOM     15  C   UNL     1       1.606   5.180  20.820  0.00  0.00    +0.000 C 
ATOM     16  C   UNL     1       1.337   2.772  21.424  0.00  0.00    +0.000 C 
ENDBRANCH  13  14
ENDBRANCH  12  13
ENDBRANCH  11  12
ENDBRANCH   1  11
TORSDOF 5
ENDMDL
