MODEL 1
REMARK VINA RESULT:      -7.9      0.000      0.000
REMARK  Name = 
REMARK  5 active torsions:
REMARK  status: ('A' for Active; 'I' for Inactive)
REMARK    1  A    between atoms: C_1  and  C_2
REMARK    2  A    between atoms: N_4  and  C_5
REMARK    3  A    between atoms: C_5  and  C_6
REMARK    4  A    between atoms: N_8  and  C_9
REMARK    5  A    between atoms: C_9  and  C_10
REMARK                            x       y       z     vdW  Elec       q    Type
REMARK                         _______ _______ _______ _____ _____    ______ ____
ROOT
ATOM      1  C   UNL     1       3.048   8.227  17.714  0.00  0.00    +0.000 C 
ATOM      2  C   UNL     1       3.426   6.768  17.932  0.00  0.00    +0.000 C 
ATOM      3  C   UNL     1       4.370   6.279  16.827  0.00  0.00    +0.000 C 
ATOM      4  N   UNL     1       4.732   4.885  17.080  0.00  0.00    +0.000 N 
ATOM      5  C   UNL     1       3.706   4.075  17.558  0.00  0.00    +0.000 A 
ATOM      6  C   UNL     1       3.837   2.681  17.648  0.00  0.00    +0.000 A 
ATOM      7  C   UNL     1       2.764   1.877  18.049  0.00  0.00    +0.000 A 
ATOM      8  C   UNL     1       1.546   2.462  18.368  0.00  0.00    +0.000 A 
ATOM      9  F   UNL     1       0.517   1.686  18.731  0.00  0.00    +0.000 F 
ATOM     10  C   UNL     1       1.384   3.838  18.316  0.00  0.00    +0.000 A 
ATOM     11  C   UNL     1       2.460   4.636  17.930  0.00  0.00    +0.000 A 
ATOM     12  O   UNL     1       2.214   5.995  17.933  0.00  0.00    +0.000 OA
ENDROOT
BRANCH   4  13
ATOM     13  C   UNL     1       6.148   4.487  17.085  0.00  0.00    +0.000 C 
BRANCH  13  14
ATOM     14  C   UNL     1       6.912   4.919  15.827  0.00  0.00    +0.000 C 
ATOM     15  O   UNL     1       7.692   5.868  15.842  0.00  0.00    +0.000 OA
ATOM     16  N   UNL     1       6.631   4.202  14.688  0.00  0.00    +0.000 N 
ATOM     17  H   UNL     1       5.938   3.464  14.765  0.00  0.00    +0.000 HD
BRANCH  16  18
ATOM     18  C   UNL     1       7.199   4.520  13.393  0.00  0.00    +0.000 C 
BRANCH  18  19
ATOM     19  C   UNL     1       6.398   3.955  12.215  0.00  0.00    +0.000 C 
ATOM     20  C   UNL     1       4.902   3.804  12.433  0.00  0.00    +0.000 C 
ATOM     21  C   UNL     1       4.550   2.779  11.384  0.00  0.00    +0.000 C 
ATOM     22  C   UNL     1       5.755   1.861  11.418  0.00  0.00    +0.000 C 
ATOM     23  O   UNL     1       6.878   2.643  11.851  0.00  0.00    +0.000 OA
ENDBRANCH  18  19
ENDBRANCH  16  18
ENDBRANCH  13  14
ENDBRANCH   4  13
TORSDOF 4
ENDMDL
MODEL 2
REMARK VINA RESULT:      -7.8      4.367      6.780
REMARK  Name = 
REMARK  5 active torsions:
REMARK  status: ('A' for Active; 'I' for Inactive)
REMARK    1  A    between atoms: C_1  and  C_2
REMARK    2  A    between atoms: N_4  and  C_5
REMARK    3  A    between atoms: C_5  and  C_6
REMARK    4  A    between atoms: N_8  and  C_9
REMARK    5  A    between atoms: C_9  and  C_10
REMARK                            x       y       z     vdW  Elec       q    Type
REMARK                         _______ _______ _______ _____ _____    ______ ____
ROOT
ATOM      1  C   UNL     1       6.387   4.137  14.019  0.00  0.00    +0.000 C 
ATOM      2  C   UNL     1       6.010   4.728  15.371  0.00  0.00    +0.000 C 
ATOM      3  C   UNL     1       7.103   4.454  16.409  0.00  0.00    +0.000 C 
ATOM      4  N   UNL     1       6.722   5.056  17.687  0.00  0.00    +0.000 N 
ATOM      5  C   UNL     1       5.374   4.954  18.020  0.00  0.00    +0.000 A 
ATOM      6  C   UNL     1       4.893   5.291  19.294  0.00  0.00    +0.000 A 
ATOM      7  C   UNL     1       3.549   5.098  19.635  0.00  0.00    +0.000 A 
ATOM      8  C   UNL     1       2.670   4.570  18.700  0.00  0.00    +0.000 A 
ATOM      9  F   UNL     1       1.390   4.370  19.039  0.00  0.00    +0.000 F 
ATOM     10  C   UNL     1       3.100   4.249  17.423  0.00  0.00    +0.000 A 
ATOM     11  C   UNL     1       4.436   4.454  17.082  0.00  0.00    +0.000 A 
ATOM     12  O   UNL     1       4.768   4.131  15.782  0.00  0.00    +0.000 OA
ENDROOT
BRANCH   4  13
ATOM     13  C   UNL     1       7.666   5.935  18.392  0.00  0.00    +0.000 C 
BRANCH  13  14
ATOM     14  C   UNL     1       7.645   7.385  17.894  0.00  0.00    +0.000 C 
ATOM     15  O   UNL     1       6.989   7.718  16.910  0.00  0.00    +0.000 OA
ATOM     16  N   UNL     1       8.436   8.264  18.595  0.00  0.00    +0.000 N 
ATOM     17  H   UNL     1       8.977   7.886  19.367  0.00  0.00    +0.000 HD
BRANCH  16  18
ATOM     18  C   UNL     1       8.600   9.655  18.219  0.00  0.00    +0.000 C 
BRANCH  18  19
ATOM     19  C   UNL     1       9.715  10.373  18.988  0.00  0.00    +0.000 C 
ATOM     20  C   UNL     1       9.370  10.832  20.394  0.00  0.00    +0.000 C 
ATOM     21  C   UNL     1      10.405  11.905  20.619  0.00  0.00    +0.000 C 
ATOM     22  C   UNL     1      10.494  12.554  19.252  0.00  0.00    +0.000 C 
ATOM     23  O   UNL     1      10.144  11.555  18.281  0.00  0.00    +0.000 OA
ENDBRANCH  18  19
ENDBRANCH  16  18
ENDBRANCH  13  14
ENDBRANCH   4  13
TORSDOF 4
ENDMDL
MODEL 3
REMARK VINA RESULT:      -7.5      2.031      2.395
REMARK  Name = 
REMARK  5 active torsions:
REMARK  status: ('A' for Active; 'I' for Inactive)
REMARK    1  A    between atoms: C_1  and  C_2
REMARK    2  A    between atoms: N_4  and  C_5
REMARK    3  A    between atoms: C_5  and  C_6
REMARK    4  A    between atoms: N_8  and  C_9
REMARK    5  A    between atoms: C_9  and  C_10
REMARK                            x       y       z     vdW  Elec       q    Type
REMARK                         _______ _______ _______ _____ _____    ______ ____
ROOT
ATOM      1  C   UNL     1       2.433   8.448  17.901  0.00  0.00    +0.000 C 
ATOM      2  C   UNL     1       3.031   7.281  18.676  0.00  0.00    +0.000 C 
ATOM      3  C   UNL     1       4.056   6.527  17.820  0.00  0.00    +0.000 C 
ATOM      4  N   UNL     1       4.627   5.430  18.601  0.00  0.00    +0.000 N 
ATOM      5  C   UNL     1       3.733   4.746  19.418  0.00  0.00    +0.000 A 
ATOM      6  C   UNL     1       4.078   3.547  20.063  0.00  0.00    +0.000 A 
ATOM      7  C   UNL     1       3.137   2.830  20.809  0.00  0.00    +0.000 A 
ATOM      8  C   UNL     1       1.839   3.307  20.924  0.00  0.00    +0.000 A 
ATOM      9  F   UNL     1       0.937   2.605  21.623  0.00  0.00    +0.000 F 
ATOM     10  C   UNL     1       1.464   4.499  20.324  0.00  0.00    +0.000 A 
ATOM     11  C   UNL     1       2.409   5.219  19.592  0.00  0.00    +0.000 A 
ATOM     12  O   UNL     1       1.954   6.406  19.053  0.00  0.00    +0.000 OA
ENDROOT
BRANCH   4  13
ATOM     13  C   UNL     1       6.088   5.284  18.697  0.00  0.00    +0.000 C 
BRANCH  13  14
ATOM     14  C   UNL     1       6.709   4.538  17.509  0.00  0.00    +0.000 C 
ATOM     15  O   UNL     1       7.921   4.350  17.431  0.00  0.00    +0.000 OA
ATOM     16  N   UNL     1       5.827   4.139  16.534  0.00  0.00    +0.000 N 
ATOM     17  H   UNL     1       4.850   4.380  16.666  0.00  0.00    +0.000 HD
BRANCH  16  18
ATOM     18  C   UNL     1       6.246   3.493  15.305  0.00  0.00    +0.000 C 
BRANCH  18  19
ATOM     19  C   UNL     1       6.432   4.462  14.132  0.00  0.00    +0.000 C 
ATOM     20  C   UNL     1       6.599   3.830  12.761  0.00  0.00    +0.000 C 
ATOM     21  C   UNL     1       7.274   4.943  12.000  0.00  0.00    +0.000 C 
ATOM     22  C   UNL     1       8.196   5.533  13.049  0.00  0.00    +0.000 C 
ATOM     23  O   UNL     1       7.599   5.288  14.331  0.00  0.00    +0.000 OA
ENDBRANCH  18  19
ENDBRANCH  16  18
ENDBRANCH  13  14
ENDBRANCH   4  13
TORSDOF 4
ENDMDL
MODEL 4
REMARK VINA RESULT:      -7.5      1.437      1.577
REMARK  Name = 
REMARK  5 active torsions:
REMARK  status: ('A' for Active; 'I' for Inactive)
REMARK    1  A    between atoms: C_1  and  C_2
REMARK    2  A    between atoms: N_4  and  C_5
REMARK    3  A    between atoms: C_5  and  C_6
REMARK    4  A    between atoms: N_8  and  C_9
REMARK    5  A    between atoms: C_9  and  C_10
REMARK                            x       y       z     vdW  Elec       q    Type
REMARK                         _______ _______ _______ _____ _____    ______ ____
ROOT
ATOM      1  C   UNL     1       2.413   8.523  17.645  0.00  0.00    +0.000 C 
ATOM      2  C   UNL     1       3.174   7.338  18.226  0.00  0.00    +0.000 C 
ATOM      3  C   UNL     1       4.210   6.812  17.227  0.00  0.00    +0.000 C 
ATOM      4  N   UNL     1       4.938   5.694  17.827  0.00  0.00    +0.000 N 
ATOM      5  C   UNL     1       4.171   4.820  18.592  0.00  0.00    +0.000 A 
ATOM      6  C   UNL     1       4.675   3.594  19.054  0.00  0.00    +0.000 A 
ATOM      7  C   UNL     1       3.861   2.692  19.747  0.00  0.00    +0.000 A 
ATOM      8  C   UNL     1       2.532   3.009  19.990  0.00  0.00    +0.000 A 
ATOM      9  F   UNL     1       1.752   2.132  20.636  0.00  0.00    +0.000 F 
ATOM     10  C   UNL     1       2.002   4.220  19.572  0.00  0.00    +0.000 A 
ATOM     11  C   UNL     1       2.820   5.123  18.894  0.00  0.00    +0.000 A 
ATOM     12  O   UNL     1       2.216   6.312  18.540  0.00  0.00    +0.000 OA
ENDROOT
BRANCH   4  13
ATOM     13  C   UNL     1       6.409   5.694  17.827  0.00  0.00    +0.000 C 
BRANCH  13  14
ATOM     14  C   UNL     1       7.023   5.046  16.580  0.00  0.00    +0.000 C 
ATOM     15  O   UNL     1       7.926   4.217  16.665  0.00  0.00    +0.000 OA
ATOM     16  N   UNL     1       6.524   5.486  15.377  0.00  0.00    +0.000 N 
ATOM     17  H   UNL     1       5.810   6.207  15.408  0.00  0.00    +0.000 HD
BRANCH  16  18
ATOM     18  C   UNL     1       7.040   5.043  14.097  0.00  0.00    +0.000 C 
BRANCH  18  19
ATOM     19  C   UNL     1       6.302   3.829  13.523  0.00  0.00    +0.000 C 
ATOM     20  C   UNL     1       6.885   3.229  12.254  0.00  0.00    +0.000 C 
ATOM     21  C   UNL     1       5.694   2.487  11.701  0.00  0.00    +0.000 C 
ATOM     22  C   UNL     1       4.550   3.422  12.040  0.00  0.00    +0.000 C 
ATOM     23  O   UNL     1       4.933   4.162  13.209  0.00  0.00    +0.000 OA
ENDBRANCH  18  19
ENDBRANCH  16  18
ENDBRANCH  13  14
ENDBRANCH   4  13
TORSDOF 4
ENDMDL
MODEL 5
REMARK VINA RESULT:      -7.5      1.211      1.460
REMARK  Name = 
REMARK  5 active torsions:
REMARK  status: ('A' for Active; 'I' for Inactive)
REMARK    1  A    between atoms: C_1  and  C_2
REMARK    2  A    between atoms: N_4  and  C_5
REMARK    3  A    between atoms: C_5  and  C_6
REMARK    4  A    between atoms: N_8  and  C_9
REMARK    5  A    between atoms: C_9  and  C_10
REMARK                            x       y       z     vdW  Elec       q    Type
REMARK                         _______ _______ _______ _____ _____    ______ ____
ROOT
ATOM      1  C   UNL     1       2.238   8.514  17.991  0.00  0.00    +0.000 C 
ATOM      2  C   UNL     1       2.769   7.150  18.413  0.00  0.00    +0.000 C 
ATOM      3  C   UNL     1       4.094   6.838  17.709  0.00  0.00    +0.000 C 
ATOM      4  N   UNL     1       4.586   5.536  18.156  0.00  0.00    +0.000 N 
ATOM      5  C   UNL     1       3.616   4.553  18.325  0.00  0.00    +0.000 A 
ATOM      6  C   UNL     1       3.947   3.206  18.543  0.00  0.00    +0.000 A 
ATOM      7  C   UNL     1       2.957   2.221  18.624  0.00  0.00    +0.000 A 
ATOM      8  C   UNL     1       1.621   2.574  18.492  0.00  0.00    +0.000 A 
ATOM      9  F   UNL     1       0.679   1.623  18.550  0.00  0.00    +0.000 F 
ATOM     10  C   UNL     1       1.251   3.895  18.301  0.00  0.00    +0.000 A 
ATOM     11  C   UNL     1       2.239   4.877  18.235  0.00  0.00    +0.000 A 
ATOM     12  O   UNL     1       1.777   6.167  18.070  0.00  0.00    +0.000 OA
ENDROOT
BRANCH   4  13
ATOM     13  C   UNL     1       5.967   5.404  18.646  0.00  0.00    +0.000 C 
BRANCH  13  14
ATOM     14  C   UNL     1       6.964   4.970  17.565  0.00  0.00    +0.000 C 
ATOM     15  O   UNL     1       8.020   4.411  17.851  0.00  0.00    +0.000 OA
ATOM     16  N   UNL     1       6.613   5.286  16.274  0.00  0.00    +0.000 N 
ATOM     17  H   UNL     1       5.742   5.790  16.141  0.00  0.00    +0.000 HD
BRANCH  16  18
ATOM     18  C   UNL     1       7.470   5.024  15.134  0.00  0.00    +0.000 C 
BRANCH  18  19
ATOM     19  C   UNL     1       6.702   4.805  13.826  0.00  0.00    +0.000 C 
ATOM     20  C   UNL     1       5.856   3.546  13.748  0.00  0.00    +0.000 C 
ATOM     21  C   UNL     1       5.716   3.372  12.257  0.00  0.00    +0.000 C 
ATOM     22  C   UNL     1       7.081   3.801  11.756  0.00  0.00    +0.000 C 
ATOM     23  O   UNL     1       7.609   4.740  12.705  0.00  0.00    +0.000 OA
ENDBRANCH  18  19
ENDBRANCH  16  18
ENDBRANCH  13  14
ENDBRANCH   4  13
TORSDOF 4
ENDMDL
MODEL 6
REMARK VINA RESULT:      -7.1      3.839      7.815
REMARK  Name = 
REMARK  5 active torsions:
REMARK  status: ('A' for Active; 'I' for Inactive)
REMARK    1  A    between atoms: C_1  and  C_2
REMARK    2  A    between atoms: N_4  and  C_5
REMARK    3  A    between atoms: C_5  and  C_6
REMARK    4  A    between atoms: N_8  and  C_9
REMARK    5  A    between atoms: C_9  and  C_10
REMARK                            x       y       z     vdW  Elec       q    Type
REMARK                         _______ _______ _______ _____ _____    ______ ____
ROOT
ATOM      1  C   UNL     1       1.310   2.558  18.475  0.00  0.00    +0.000 C 
ATOM      2  C   UNL     1       2.396   3.624  18.414  0.00  0.00    +0.000 C 
ATOM      3  C   UNL     1       1.782   5.016  18.225  0.00  0.00    +0.000 C 
ATOM      4  N   UNL     1       2.849   6.017  18.197  0.00  0.00    +0.000 N 
ATOM      5  C   UNL     1       4.005   5.643  17.517  0.00  0.00    +0.000 A 
ATOM      6  C   UNL     1       5.026   6.559  17.222  0.00  0.00    +0.000 A 
ATOM      7  C   UNL     1       6.139   6.183  16.462  0.00  0.00    +0.000 A 
ATOM      8  C   UNL     1       6.245   4.882  15.992  0.00  0.00    +0.000 A 
ATOM      9  F   UNL     1       7.302   4.533  15.247  0.00  0.00    +0.000 F 
ATOM     10  C   UNL     1       5.270   3.940  16.282  0.00  0.00    +0.000 A 
ATOM     11  C   UNL     1       4.169   4.315  17.052  0.00  0.00    +0.000 A 
ATOM     12  O   UNL     1       3.264   3.306  17.313  0.00  0.00    +0.000 OA
ENDROOT
BRANCH   4  13
ATOM     13  C   UNL     1       2.770   7.196  19.072  0.00  0.00    +0.000 C 
BRANCH  13  14
ATOM     14  C   UNL     1       2.071   8.397  18.422  0.00  0.00    +0.000 C 
ATOM     15  O   UNL     1       2.258   8.690  17.244  0.00  0.00    +0.000 OA
ATOM     16  N   UNL     1       1.264   9.134  19.255  0.00  0.00    +0.000 N 
ATOM     17  H   UNL     1       1.207   8.841  20.225  0.00  0.00    +0.000 HD
BRANCH  16  18
ATOM     18  C   UNL     1       0.588  10.346  18.834  0.00  0.00    +0.000 C 
BRANCH  18  19
ATOM     19  C   UNL     1      -0.936  10.207  18.760  0.00  0.00    +0.000 C 
ATOM     20  C   UNL     1      -1.518   9.931  17.384  0.00  0.00    +0.000 C 
ATOM     21  C   UNL     1      -2.944  10.386  17.567  0.00  0.00    +0.000 C 
ATOM     22  C   UNL     1      -2.779  11.602  18.457  0.00  0.00    +0.000 C 
ATOM     23  O   UNL     1      -1.584  11.409  19.228  0.00  0.00    +0.000 OA
ENDBRANCH  18  19
ENDBRANCH  16  18
ENDBRANCH  13  14
ENDBRANCH   4  13
TORSDOF 4
ENDMDL
MODEL 7
REMARK VINA RESULT:      -7.1      3.106      6.972
REMARK  Name = 
REMARK  5 active torsions:
REMARK  status: ('A' for Active; 'I' for Inactive)
REMARK    1  A    between atoms: C_1  and  C_2
REMARK    2  A    between atoms: N_4  and  C_5
REMARK    3  A    between atoms: C_5  and  C_6
REMARK    4  A    between atoms: N_8  and  C_9
REMARK    5  A    between atoms: C_9  and  C_10
REMARK                            x       y       z     vdW  Elec       q    Type
REMARK                         _______ _______ _______ _____ _____    ______ ____
ROOT
ATOM      1  C   UNL     1       7.765   6.936  18.007  0.00  0.00    +0.000 C 
ATOM      2  C   UNL     1       6.953   6.145  16.990  0.00  0.00    +0.000 C 
ATOM      3  C   UNL     1       6.645   4.738  17.513  0.00  0.00    +0.000 C 
ATOM      4  N   UNL     1       5.844   4.016  16.524  0.00  0.00    +0.000 N 
ATOM      5  C   UNL     1       6.202   4.225  15.195  0.00  0.00    +0.000 A 
ATOM      6  C   UNL     1       5.674   3.450  14.150  0.00  0.00    +0.000 A 
ATOM      7  C   UNL     1       6.112   3.618  12.832  0.00  0.00    +0.000 A 
ATOM      8  C   UNL     1       7.081   4.569  12.544  0.00  0.00    +0.000 A 
ATOM      9  F   UNL     1       7.511   4.711  11.283  0.00  0.00    +0.000 F 
ATOM     10  C   UNL     1       7.609   5.371  13.543  0.00  0.00    +0.000 A 
ATOM     11  C   UNL     1       7.160   5.211  14.853  0.00  0.00    +0.000 A 
ATOM     12  O   UNL     1       7.722   6.070  15.777  0.00  0.00    +0.000 OA
ENDROOT
BRANCH   4  13
ATOM     13  C   UNL     1       4.594   3.359  16.933  0.00  0.00    +0.000 C 
BRANCH  13  14
ATOM     14  C   UNL     1       3.685   4.248  17.792  0.00  0.00    +0.000 C 
ATOM     15  O   UNL     1       2.696   4.803  17.319  0.00  0.00    +0.000 OA
ATOM     16  N   UNL     1       4.078   4.410  19.099  0.00  0.00    +0.000 N 
ATOM     17  H   UNL     1       4.936   3.947  19.386  0.00  0.00    +0.000 HD
BRANCH  16  18
ATOM     18  C   UNL     1       3.386   5.276  20.033  0.00  0.00    +0.000 C 
BRANCH  18  19
ATOM     19  C   UNL     1       2.295   4.564  20.841  0.00  0.00    +0.000 C 
ATOM     20  C   UNL     1       2.677   3.224  21.445  0.00  0.00    +0.000 C 
ATOM     21  C   UNL     1       1.323   2.598  21.660  0.00  0.00    +0.000 C 
ATOM     22  C   UNL     1       0.558   3.064  20.437  0.00  0.00    +0.000 C 
ATOM     23  O   UNL     1       1.134   4.311  20.022  0.00  0.00    +0.000 OA
ENDBRANCH  18  19
ENDBRANCH  16  18
ENDBRANCH  13  14
ENDBRANCH   4  13
TORSDOF 4
ENDMDL
MODEL 8
REMARK VINA RESULT:      -7.1      3.245      7.040
REMARK  Name = 
REMARK  5 active torsions:
REMARK  status: ('A' for Active; 'I' for Inactive)
REMARK    1  A    between atoms: C_1  and  C_2
REMARK    2  A    between atoms: N_4  and  C_5
REMARK    3  A    between atoms: C_5  and  C_6
REMARK    4  A    between atoms: N_8  and  C_9
REMARK    5  A    between atoms: C_9  and  C_10
REMARK                            x       y       z     vdW  Elec       q    Type
REMARK                         _______ _______ _______ _____ _____    ______ ____
ROOT
ATOM      1  C   UNL     1       8.119   8.329  17.990  0.00  0.00    +0.000 C 
ATOM      2  C   UNL     1       7.169   7.200  17.612  0.00  0.00    +0.000 C 
ATOM      3  C   UNL     1       7.169   6.106  18.685  0.00  0.00    +0.000 C 
ATOM      4  N   UNL     1       6.229   5.051  18.302  0.00  0.00    +0.000 N 
ATOM      5  C   UNL     1       6.208   4.729  16.949  0.00  0.00    +0.000 A 
ATOM      6  C   UNL     1       5.523   3.606  16.460  0.00  0.00    +0.000 A 
ATOM      7  C   UNL     1       5.586   3.250  15.108  0.00  0.00    +0.000 A 
ATOM      8  C   UNL     1       6.334   4.019  14.227  0.00  0.00    +0.000 A 
ATOM      9  F   UNL     1       6.407   3.662  12.938  0.00  0.00    +0.000 F 
ATOM     10  C   UNL     1       7.005   5.150  14.665  0.00  0.00    +0.000 A 
ATOM     11  C   UNL     1       6.928   5.509  16.011  0.00  0.00    +0.000 A 
ATOM     12  O   UNL     1       7.605   6.663  16.350  0.00  0.00    +0.000 OA
ENDROOT
BRANCH   4  13
ATOM     13  C   UNL     1       5.209   4.598  19.259  0.00  0.00    +0.000 C 
BRANCH  13  14
ATOM     14  C   UNL     1       3.840   5.261  19.058  0.00  0.00    +0.000 C 
ATOM     15  O   UNL     1       3.463   5.633  17.949  0.00  0.00    +0.000 OA
ATOM     16  N   UNL     1       3.097   5.443  20.200  0.00  0.00    +0.000 N 
ATOM     17  H   UNL     1       3.513   5.145  21.076  0.00  0.00    +0.000 HD
BRANCH  16  18
ATOM     18  C   UNL     1       1.817   6.123  20.210  0.00  0.00    +0.000 C 
BRANCH  18  19
ATOM     19  C   UNL     1       1.928   7.642  20.377  0.00  0.00    +0.000 C 
ATOM     20  C   UNL     1       0.878   8.298  21.259  0.00  0.00    +0.000 C 
ATOM     21  C   UNL     1       0.936   9.726  20.778  0.00  0.00    +0.000 C 
ATOM     22  C   UNL     1       1.155   9.554  19.289  0.00  0.00    +0.000 C 
ATOM     23  O   UNL     1       1.838   8.306  19.098  0.00  0.00    +0.000 OA
ENDBRANCH  18  19
ENDBRANCH  16  18
ENDBRANCH  13  14
ENDBRANCH   4  13
TORSDOF 4
ENDMDL
MODEL 9
REMARK VINA RESULT:      -7.1      3.258      5.250
REMARK  Name = 
REMARK  5 active torsions:
REMARK  status: ('A' for Active; 'I' for Inactive)
REMARK    1  A    between atoms: C_1  and  C_2
REMARK    2  A    between atoms: N_4  and  C_5
REMARK    3  A    between atoms: C_5  and  C_6
REMARK    4  A    between atoms: N_8  and  C_9
REMARK    5  A    between atoms: C_9  and  C_10
REMARK                            x       y       z     vdW  Elec       q    Type
REMARK                         _______ _______ _______ _____ _____    ______ ____
ROOT
ATOM      1  C   UNL     1       2.128   2.600  21.724  0.00  0.00    +0.000 C 
ATOM      2  C   UNL     1       1.992   3.632  20.611  0.00  0.00    +0.000 C 
ATOM      3  C   UNL     1       3.144   3.506  19.608  0.00  0.00    +0.000 C 
ATOM      4  N   UNL     1       2.969   4.493  18.542  0.00  0.00    +0.000 N 
ATOM      5  C   UNL     1       2.505   5.740  18.949  0.00  0.00    +0.000 A 
ATOM      6  C   UNL     1       2.486   6.847  18.087  0.00  0.00    +0.000 A 
ATOM      7  C   UNL     1       2.098   8.112  18.540  0.00  0.00    +0.000 A 
ATOM      8  C   UNL     1       1.717   8.283  19.864  0.00  0.00    +0.000 A 
ATOM      9  F   UNL     1       1.366   9.500  20.298  0.00  0.00    +0.000 F 
ATOM     10  C   UNL     1       1.698   7.210  20.742  0.00  0.00    +0.000 A 
ATOM     11  C   UNL     1       2.072   5.948  20.282  0.00  0.00    +0.000 A 
ATOM     12  O   UNL     1       1.997   4.935  21.218  0.00  0.00    +0.000 OA
ENDROOT
BRANCH   4  13
ATOM     13  C   UNL     1       3.021   4.067  17.136  0.00  0.00    +0.000 C 
BRANCH  13  14
ATOM     14  C   UNL     1       4.446   3.978  16.573  0.00  0.00    +0.000 C 
ATOM     15  O   UNL     1       5.062   2.915  16.547  0.00  0.00    +0.000 OA
ATOM     16  N   UNL     1       4.989   5.166  16.146  0.00  0.00    +0.000 N 
ATOM     17  H   UNL     1       4.419   6.000  16.251  0.00  0.00    +0.000 HD
BRANCH  16  18
ATOM     18  C   UNL     1       6.349   5.285  15.660  0.00  0.00    +0.000 C 
BRANCH  18  19
ATOM     19  C   UNL     1       7.357   5.685  16.743  0.00  0.00    +0.000 C 
ATOM     20  C   UNL     1       6.903   5.503  18.181  0.00  0.00    +0.000 C 
ATOM     21  C   UNL     1       7.828   6.447  18.907  0.00  0.00    +0.000 C 
ATOM     22  C   UNL     1       7.931   7.604  17.935  0.00  0.00    +0.000 C 
ATOM     23  O   UNL     1       7.719   7.077  16.617  0.00  0.00    +0.000 OA
ENDBRANCH  18  19
ENDBRANCH  16  18
ENDBRANCH  13  14
ENDBRANCH   4  13
TORSDOF 4
ENDMDL
