MODEL 1
REMARK VINA RESULT:      -7.4      0.000      0.000
REMARK  Name = 
REMARK  11 active torsions:
REMARK  status: ('A' for Active; 'I' for Inactive)
REMARK    1  A    between atoms: C_1  and  C_2
REMARK    2  A    between atoms: C_2  and  O_3
REMARK    3  A    between atoms: O_3  and  C_4
REMARK    4  A    between atoms: C_7  and  C_8
REMARK    5  A    between atoms: C_8  and  N_9
REMARK    6  A    between atoms: C_10  and  C_12
REMARK    7  A    between atoms: N_15  and  S_16
REMARK    8  A    between atoms: S_16  and  C_19
REMARK    9  A    between atoms: C_19  and  C_20
REMARK   10  A    between atoms: C_24  and  O_25
REMARK   11  A    between atoms: O_25  and  C_26
REMARK                            x       y       z     vdW  Elec       q    Type
REMARK                         _______ _______ _______ _____ _____    ______ ____
ROOT
ATOM      1  N   UNL     1       2.801   6.228  18.446  0.00  0.00    +0.000 N 
ATOM      2  C   UNL     1       2.254   5.029  18.052  0.00  0.00    +0.000 C 
ATOM      3  O   UNL     1       1.280   4.964  17.309  0.00  0.00    +0.000 OA
ATOM      4  H   UNL     1       3.422   6.249  19.244  0.00  0.00    +0.000 HD
ENDROOT
BRANCH   2   5
ATOM      5  C   UNL     1       2.945   3.785  18.619  0.00  0.00    +0.000 C 
ATOM      6  C   UNL     1       3.803   4.093  19.848  0.00  0.00    +0.000 C 
ATOM      7  C   UNL     1       5.014   4.951  19.488  0.00  0.00    +0.000 C 
ATOM      8  N   UNL     1       5.853   4.283  18.450  0.00  0.00    +0.000 NA
ATOM      9  C   UNL     1       5.062   3.944  17.220  0.00  0.00    +0.000 C 
ATOM     10  C   UNL     1       3.831   3.106  17.569  0.00  0.00    +0.000 C 
BRANCH   8  11
ATOM     11  S   UNL     1       7.271   5.180  18.028  0.00  0.00    +0.000 S 
ATOM     12  O   UNL     1       8.121   5.233  19.201  0.00  0.00    +0.000 OA
ATOM     13  O   UNL     1       7.757   4.652  16.773  0.00  0.00    +0.000 OA
BRANCH  11  14
ATOM     14  C   UNL     1       6.624   6.829  17.750  0.00  0.00    +0.000 C 
ATOM     15  C   UNL     1       7.748   7.812  17.479  0.00  0.00    +0.000 C 
ENDBRANCH  11  14
ENDBRANCH   8  11
ENDBRANCH   2   5
BRANCH   1  16
ATOM     16  C   UNL     1       2.251   7.491  17.994  0.00  0.00    +0.000 C 
BRANCH  16  20
ATOM     17  C   UNL     1       0.849   9.904  21.304  0.00  0.00    +0.000 A 
ATOM     18  C   UNL     1       1.284   8.583  21.504  0.00  0.00    +0.000 A 
ATOM     19  C   UNL     1       1.732   7.802  20.439  0.00  0.00    +0.000 A 
ATOM     20  C   UNL     1       1.706   8.302  19.136  0.00  0.00    +0.000 A 
ATOM     21  C   UNL     1       1.190   9.587  18.928  0.00  0.00    +0.000 A 
ATOM     22  C   UNL     1       0.757  10.394  19.992  0.00  0.00    +0.000 A 
BRANCH  22  23
ATOM     23  O   UNL     1       0.304  11.611  19.552  0.00  0.00    +0.000 OA
ATOM     24  C   UNL     1      -1.078  11.783  19.289  0.00  0.00    +0.000 C 
ENDBRANCH  22  23
BRANCH  17  25
ATOM     25  O   UNL     1       0.510  10.711  22.360  0.00  0.00    +0.000 OA
BRANCH  25  27
ATOM     26  C   UNL     1      -1.625  11.621  22.977  0.00  0.00    +0.000 C 
ATOM     27  C   UNL     1      -0.732  10.396  23.001  0.00  0.00    +0.000 C 
ENDBRANCH  25  27
ENDBRANCH  17  25
ENDBRANCH  16  20
ENDBRANCH   1  16
TORSDOF 8
ENDMDL
MODEL 2
REMARK VINA RESULT:      -7.4      1.434      2.597
REMARK  Name = 
REMARK  11 active torsions:
REMARK  status: ('A' for Active; 'I' for Inactive)
REMARK    1  A    between atoms: C_1  and  C_2
REMARK    2  A    between atoms: C_2  and  O_3
REMARK    3  A    between atoms: O_3  and  C_4
REMARK    4  A    between atoms: C_7  and  C_8
REMARK    5  A    between atoms: C_8  and  N_9
REMARK    6  A    between atoms: C_10  and  C_12
REMARK    7  A    between atoms: N_15  and  S_16
REMARK    8  A    between atoms: S_16  and  C_19
REMARK    9  A    between atoms: C_19  and  C_20
REMARK   10  A    between atoms: C_24  and  O_25
REMARK   11  A    between atoms: O_25  and  C_26
REMARK                            x       y       z     vdW  Elec       q    Type
REMARK                         _______ _______ _______ _____ _____    ______ ____
ROOT
ATOM      1  N   UNL     1       2.160   6.494  19.712  0.00  0.00    +0.000 N 
ATOM      2  C   UNL     1       2.382   5.171  20.019  0.00  0.00    +0.000 C 
ATOM      3  O   UNL     1       2.406   4.761  21.175  0.00  0.00    +0.000 OA
ATOM      4  H   UNL     1       2.400   6.833  18.790  0.00  0.00    +0.000 HD
ENDROOT
BRANCH   2   5
ATOM      5  C   UNL     1       2.606   4.254  18.812  0.00  0.00    +0.000 C 
ATOM      6  C   UNL     1       3.651   3.169  19.080  0.00  0.00    +0.000 C 
ATOM      7  C   UNL     1       5.047   3.762  19.249  0.00  0.00    +0.000 C 
ATOM      8  N   UNL     1       5.445   4.548  18.043  0.00  0.00    +0.000 NA
ATOM      9  C   UNL     1       4.449   5.625  17.722  0.00  0.00    +0.000 C 
ATOM     10  C   UNL     1       3.040   5.048  17.575  0.00  0.00    +0.000 C 
BRANCH   8  11
ATOM     11  S   UNL     1       7.039   5.210  18.146  0.00  0.00    +0.000 S 
ATOM     12  O   UNL     1       7.340   5.410  19.550  0.00  0.00    +0.000 OA
ATOM     13  O   UNL     1       7.895   4.406  17.303  0.00  0.00    +0.000 OA
BRANCH  11  14
ATOM     14  C   UNL     1       6.841   6.827  17.396  0.00  0.00    +0.000 C 
ATOM     15  C   UNL     1       7.891   7.794  17.912  0.00  0.00    +0.000 C 
ENDBRANCH  11  14
ENDBRANCH   8  11
ENDBRANCH   2   5
BRANCH   1  16
ATOM     16  C   UNL     1       1.936   7.480  20.750  0.00  0.00    +0.000 C 
BRANCH  16  20
ATOM     17  C   UNL     1      -0.246  10.878  19.188  0.00  0.00    +0.000 A 
ATOM     18  C   UNL     1       0.627  10.141  18.371  0.00  0.00    +0.000 A 
ATOM     19  C   UNL     1       1.335   9.048  18.872  0.00  0.00    +0.000 A 
ATOM     20  C   UNL     1       1.230   8.696  20.219  0.00  0.00    +0.000 A 
ATOM     21  C   UNL     1       0.427   9.487  21.051  0.00  0.00    +0.000 A 
ATOM     22  C   UNL     1      -0.309  10.574  20.557  0.00  0.00    +0.000 A 
BRANCH  22  23
ATOM     23  O   UNL     1      -1.028  11.191  21.548  0.00  0.00    +0.000 OA
ATOM     24  C   UNL     1      -0.920  10.718  22.880  0.00  0.00    +0.000 C 
ENDBRANCH  22  23
BRANCH  17  25
ATOM     25  O   UNL     1      -1.024  11.885  18.674  0.00  0.00    +0.000 OA
BRANCH  25  27
ATOM     26  C   UNL     1      -2.495  11.238  16.890  0.00  0.00    +0.000 C 
ATOM     27  C   UNL     1      -2.377  11.522  18.375  0.00  0.00    +0.000 C 
ENDBRANCH  25  27
ENDBRANCH  17  25
ENDBRANCH  16  20
ENDBRANCH   1  16
TORSDOF 8
ENDMDL
MODEL 3
REMARK VINA RESULT:      -7.4      4.474      7.885
REMARK  Name = 
REMARK  11 active torsions:
REMARK  status: ('A' for Active; 'I' for Inactive)
REMARK    1  A    between atoms: C_1  and  C_2
REMARK    2  A    between atoms: C_2  and  O_3
REMARK    3  A    between atoms: O_3  and  C_4
REMARK    4  A    between atoms: C_7  and  C_8
REMARK    5  A    between atoms: C_8  and  N_9
REMARK    6  A    between atoms: C_10  and  C_12
REMARK    7  A    between atoms: N_15  and  S_16
REMARK    8  A    between atoms: S_16  and  C_19
REMARK    9  A    between atoms: C_19  and  C_20
REMARK   10  A    between atoms: C_24  and  O_25
REMARK   11  A    between atoms: O_25  and  C_26
REMARK                            x       y       z     vdW  Elec       q    Type
REMARK                         _______ _______ _______ _____ _____    ______ ____
ROOT
ATOM      1  N   UNL     1       8.204   8.114  18.210  0.00  0.00    +0.000 N 
ATOM      2  C   UNL     1       7.478   7.111  17.610  0.00  0.00    +0.000 C 
ATOM      3  O   UNL     1       6.675   7.330  16.710  0.00  0.00    +0.000 OA
ATOM      4  H   UNL     1       8.650   7.937  19.100  0.00  0.00    +0.000 HD
ENDROOT
BRANCH   2   5
ATOM      5  C   UNL     1       7.743   5.705  18.158  0.00  0.00    +0.000 C 
ATOM      6  C   UNL     1       7.329   4.602  17.181  0.00  0.00    +0.000 C 
ATOM      7  C   UNL     1       5.814   4.555  16.995  0.00  0.00    +0.000 C 
ATOM      8  N   UNL     1       5.121   4.347  18.301  0.00  0.00    +0.000 NA
ATOM      9  C   UNL     1       5.497   5.395  19.309  0.00  0.00    +0.000 C 
ATOM     10  C   UNL     1       7.014   5.472  19.486  0.00  0.00    +0.000 C 
BRANCH   8  11
ATOM     11  S   UNL     1       3.401   4.236  18.158  0.00  0.00    +0.000 S 
ATOM     12  O   UNL     1       2.900   5.562  17.856  0.00  0.00    +0.000 OA
ATOM     13  O   UNL     1       3.111   3.111  17.298  0.00  0.00    +0.000 OA
BRANCH  11  14
ATOM     14  C   UNL     1       2.894   3.831  19.830  0.00  0.00    +0.000 C 
ATOM     15  C   UNL     1       1.907   4.855  20.359  0.00  0.00    +0.000 C 
ENDBRANCH  11  14
ENDBRANCH   8  11
ENDBRANCH   2   5
BRANCH   1  16
ATOM     16  C   UNL     1       8.057   9.497  17.800  0.00  0.00    +0.000 C 
BRANCH  16  20
ATOM     17  C   UNL     1      10.983  12.171  19.544  0.00  0.00    +0.000 A 
ATOM     18  C   UNL     1      11.064  11.790  18.194  0.00  0.00    +0.000 A 
ATOM     19  C   UNL     1      10.126  10.925  17.630  0.00  0.00    +0.000 A 
ATOM     20  C   UNL     1       9.111  10.375  18.415  0.00  0.00    +0.000 A 
ATOM     21  C   UNL     1       9.085  10.686  19.781  0.00  0.00    +0.000 A 
ATOM     22  C   UNL     1      10.007  11.573  20.357  0.00  0.00    +0.000 A 
BRANCH  22  23
ATOM     23  O   UNL     1       9.782  11.735  21.700  0.00  0.00    +0.000 OA
ATOM     24  C   UNL     1       8.514  12.192  22.141  0.00  0.00    +0.000 C 
ENDBRANCH  22  23
BRANCH  17  25
ATOM     25  O   UNL     1      11.838  13.104  20.075  0.00  0.00    +0.000 OA
BRANCH  25  27
ATOM     26  C   UNL     1      12.257  15.349  19.333  0.00  0.00    +0.000 C 
ATOM     27  C   UNL     1      11.332  14.443  20.123  0.00  0.00    +0.000 C 
ENDBRANCH  25  27
ENDBRANCH  17  25
ENDBRANCH  16  20
ENDBRANCH   1  16
TORSDOF 8
ENDMDL
MODEL 4
REMARK VINA RESULT:      -7.3      4.753      7.682
REMARK  Name = 
REMARK  11 active torsions:
REMARK  status: ('A' for Active; 'I' for Inactive)
REMARK    1  A    between atoms: C_1  and  C_2
REMARK    2  A    between atoms: C_2  and  O_3
REMARK    3  A    between atoms: O_3  and  C_4
REMARK    4  A    between atoms: C_7  and  C_8
REMARK    5  A    between atoms: C_8  and  N_9
REMARK    6  A    between atoms: C_10  and  C_12
REMARK    7  A    between atoms: N_15  and  S_16
REMARK    8  A    between atoms: S_16  and  C_19
REMARK    9  A    between atoms: C_19  and  C_20
REMARK   10  A    between atoms: C_24  and  O_25
REMARK   11  A    between atoms: O_25  and  C_26
REMARK                            x       y       z     vdW  Elec       q    Type
REMARK                         _______ _______ _______ _____ _____    ______ ____
ROOT
ATOM      1  N   UNL     1       8.206   8.145  18.065  0.00  0.00    +0.000 N 
ATOM      2  C   UNL     1       7.482   7.078  17.585  0.00  0.00    +0.000 C 
ATOM      3  O   UNL     1       6.620   7.204  16.721  0.00  0.00    +0.000 OA
ATOM      4  H   UNL     1       8.708   8.048  18.937  0.00  0.00    +0.000 HD
ENDROOT
BRANCH   2   5
ATOM      5  C   UNL     1       7.826   5.725  18.218  0.00  0.00    +0.000 C 
ATOM      6  C   UNL     1       7.485   4.543  17.307  0.00  0.00    +0.000 C 
ATOM      7  C   UNL     1       5.977   4.394  17.120  0.00  0.00    +0.000 C 
ATOM      8  N   UNL     1       5.289   4.224  18.434  0.00  0.00    +0.000 NA
ATOM      9  C   UNL     1       5.595   5.351  19.378  0.00  0.00    +0.000 C 
ATOM     10  C   UNL     1       7.103   5.529  19.555  0.00  0.00    +0.000 C 
BRANCH   8  11
ATOM     11  S   UNL     1       3.580   4.000  18.293  0.00  0.00    +0.000 S 
ATOM     12  O   UNL     1       3.063   5.082  17.479  0.00  0.00    +0.000 OA
ATOM     13  O   UNL     1       3.354   2.618  17.934  0.00  0.00    +0.000 OA
BRANCH  11  14
ATOM     14  C   UNL     1       3.010   4.263  19.972  0.00  0.00    +0.000 C 
ATOM     15  C   UNL     1       2.627   2.948  20.625  0.00  0.00    +0.000 C 
ENDBRANCH  11  14
ENDBRANCH   8  11
ENDBRANCH   2   5
BRANCH   1  16
ATOM     16  C   UNL     1       7.987   9.487  17.564  0.00  0.00    +0.000 C 
BRANCH  16  20
ATOM     17  C   UNL     1      10.317  12.375  19.797  0.00  0.00    +0.000 A 
ATOM     18  C   UNL     1       9.975  11.132  20.356  0.00  0.00    +0.000 A 
ATOM     19  C   UNL     1       9.221  10.202  19.641  0.00  0.00    +0.000 A 
ATOM     20  C   UNL     1       8.742  10.510  18.367  0.00  0.00    +0.000 A 
ATOM     21  C   UNL     1       9.010  11.783  17.848  0.00  0.00    +0.000 A 
ATOM     22  C   UNL     1       9.786  12.721  18.545  0.00  0.00    +0.000 A 
BRANCH  22  23
ATOM     23  O   UNL     1       9.924  13.888  17.839  0.00  0.00    +0.000 OA
ATOM     24  C   UNL     1      11.105  14.109  17.086  0.00  0.00    +0.000 C 
ENDBRANCH  22  23
BRANCH  17  25
ATOM     25  O   UNL     1      11.148  13.248  20.453  0.00  0.00    +0.000 OA
BRANCH  25  27
ATOM     26  C   UNL     1      11.039  15.625  20.776  0.00  0.00    +0.000 C 
ATOM     27  C   UNL     1      10.490  14.277  21.201  0.00  0.00    +0.000 C 
ENDBRANCH  25  27
ENDBRANCH  17  25
ENDBRANCH  16  20
ENDBRANCH   1  16
TORSDOF 8
ENDMDL
MODEL 5
REMARK VINA RESULT:      -7.2      2.176      3.723
REMARK  Name = 
REMARK  11 active torsions:
REMARK  status: ('A' for Active; 'I' for Inactive)
REMARK    1  A    between atoms: C_1  and  C_2
REMARK    2  A    between atoms: C_2  and  O_3
REMARK    3  A    between atoms: O_3  and  C_4
REMARK    4  A    between atoms: C_7  and  C_8
REMARK    5  A    between atoms: C_8  and  N_9
REMARK    6  A    between atoms: C_10  and  C_12
REMARK    7  A    between atoms: N_15  and  S_16
REMARK    8  A    between atoms: S_16  and  C_19
REMARK    9  A    between atoms: C_19  and  C_20
REMARK   10  A    between atoms: C_24  and  O_25
REMARK   11  A    between atoms: O_25  and  C_26
REMARK                            x       y       z     vdW  Elec       q    Type
REMARK                         _______ _______ _______ _____ _____    ______ ____
ROOT
ATOM      1  N   UNL     1       3.201   7.108  18.191  0.00  0.00    +0.000 N 
ATOM      2  C   UNL     1       4.231   6.792  17.336  0.00  0.00    +0.000 C 
ATOM      3  O   UNL     1       4.424   7.398  16.287  0.00  0.00    +0.000 OA
ATOM      4  H   UNL     1       2.922   6.439  18.896  0.00  0.00    +0.000 HD
ENDROOT
BRANCH   2   5
ATOM      5  C   UNL     1       5.111   5.622  17.787  0.00  0.00    +0.000 C 
ATOM      6  C   UNL     1       4.868   4.350  16.973  0.00  0.00    +0.000 C 
ATOM      7  C   UNL     1       3.477   3.774  17.230  0.00  0.00    +0.000 C 
ATOM      8  N   UNL     1       3.279   3.481  18.681  0.00  0.00    +0.000 NA
ATOM      9  C   UNL     1       3.517   4.693  19.536  0.00  0.00    +0.000 C 
ATOM     10  C   UNL     1       4.897   5.295  19.269  0.00  0.00    +0.000 C 
BRANCH   8  11
ATOM     11  S   UNL     1       1.739   2.781  19.039  0.00  0.00    +0.000 S 
ATOM     12  O   UNL     1       0.809   3.225  18.020  0.00  0.00    +0.000 OA
ATOM     13  O   UNL     1       1.954   1.375  19.297  0.00  0.00    +0.000 OA
BRANCH  11  14
ATOM     14  C   UNL     1       1.289   3.589  20.575  0.00  0.00    +0.000 C 
ATOM     15  C   UNL     1       1.455   2.644  21.751  0.00  0.00    +0.000 C 
ENDBRANCH  11  14
ENDBRANCH   8  11
ENDBRANCH   2   5
BRANCH   1  16
ATOM     16  C   UNL     1       2.283   8.190  17.895  0.00  0.00    +0.000 C 
BRANCH  16  20
ATOM     17  C   UNL     1       0.757   9.964  21.538  0.00  0.00    +0.000 A 
ATOM     18  C   UNL     1       1.213   8.636  21.516  0.00  0.00    +0.000 A 
ATOM     19  C   UNL     1       1.701   8.060  20.343  0.00  0.00    +0.000 A 
ATOM     20  C   UNL     1       1.696   8.780  19.147  0.00  0.00    +0.000 A 
ATOM     21  C   UNL     1       1.158  10.073  19.153  0.00  0.00    +0.000 A 
ATOM     22  C   UNL     1       0.685  10.675  20.329  0.00  0.00    +0.000 A 
BRANCH  22  23
ATOM     23  O   UNL     1       0.218  11.942  20.096  0.00  0.00    +0.000 OA
ATOM     24  C   UNL     1       0.358  12.507  18.804  0.00  0.00    +0.000 C 
ENDBRANCH  22  23
BRANCH  17  25
ATOM     25  O   UNL     1       0.377  10.569  22.710  0.00  0.00    +0.000 OA
BRANCH  25  27
ATOM     26  C   UNL     1      -1.749  11.628  23.062  0.00  0.00    +0.000 C 
ATOM     27  C   UNL     1      -0.974  10.326  23.117  0.00  0.00    +0.000 C 
ENDBRANCH  25  27
ENDBRANCH  17  25
ENDBRANCH  16  20
ENDBRANCH   1  16
TORSDOF 8
ENDMDL
MODEL 6
REMARK VINA RESULT:      -7.1      1.244      1.690
REMARK  Name = 
REMARK  11 active torsions:
REMARK  status: ('A' for Active; 'I' for Inactive)
REMARK    1  A    between atoms: C_1  and  C_2
REMARK    2  A    between atoms: C_2  and  O_3
REMARK    3  A    between atoms: O_3  and  C_4
REMARK    4  A    between atoms: C_7  and  C_8
REMARK    5  A    between atoms: C_8  and  N_9
REMARK    6  A    between atoms: C_10  and  C_12
REMARK    7  A    between atoms: N_15  and  S_16
REMARK    8  A    between atoms: S_16  and  C_19
REMARK    9  A    between atoms: C_19  and  C_20
REMARK   10  A    between atoms: C_24  and  O_25
REMARK   11  A    between atoms: O_25  and  C_26
REMARK                            x       y       z     vdW  Elec       q    Type
REMARK                         _______ _______ _______ _____ _____    ______ ____
ROOT
ATOM      1  N   UNL     1       2.706   6.902  19.092  0.00  0.00    +0.000 N 
ATOM      2  C   UNL     1       2.408   5.650  18.605  0.00  0.00    +0.000 C 
ATOM      3  O   UNL     1       1.571   5.469  17.727  0.00  0.00    +0.000 OA
ATOM      4  H   UNL     1       3.198   6.985  19.972  0.00  0.00    +0.000 HD
ENDROOT
BRANCH   2   5
ATOM      5  C   UNL     1       3.193   4.502  19.247  0.00  0.00    +0.000 C 
ATOM      6  C   UNL     1       4.531   4.956  19.836  0.00  0.00    +0.000 C 
ATOM      7  C   UNL     1       5.506   5.392  18.745  0.00  0.00    +0.000 C 
ATOM      8  N   UNL     1       5.743   4.289  17.767  0.00  0.00    +0.000 NA
ATOM      9  C   UNL     1       4.462   3.791  17.161  0.00  0.00    +0.000 C 
ATOM     10  C   UNL     1       3.464   3.375  18.244  0.00  0.00    +0.000 C 
BRANCH   8  11
ATOM     11  S   UNL     1       6.877   4.698  16.527  0.00  0.00    +0.000 S 
ATOM     12  O   UNL     1       6.687   6.098  16.204  0.00  0.00    +0.000 OA
ATOM     13  O   UNL     1       8.168   4.193  16.940  0.00  0.00    +0.000 OA
BRANCH  11  14
ATOM     14  C   UNL     1       6.298   3.734  15.131  0.00  0.00    +0.000 C 
ATOM     15  C   UNL     1       6.128   4.609  13.903  0.00  0.00    +0.000 C 
ENDBRANCH  11  14
ENDBRANCH   8  11
ENDBRANCH   2   5
BRANCH   1  16
ATOM     16  C   UNL     1       2.041   8.085  18.583  0.00  0.00    +0.000 C 
BRANCH  16  20
ATOM     17  C   UNL     1       0.318  10.425  21.793  0.00  0.00    +0.000 A 
ATOM     18  C   UNL     1       0.725   9.098  22.003  0.00  0.00    +0.000 A 
ATOM     19  C   UNL     1       1.276   8.339  20.970  0.00  0.00    +0.000 A 
ATOM     20  C   UNL     1       1.386   8.871  19.684  0.00  0.00    +0.000 A 
ATOM     21  C   UNL     1       0.898  10.164  19.457  0.00  0.00    +0.000 A 
ATOM     22  C   UNL     1       0.363  10.948  20.491  0.00  0.00    +0.000 A 
BRANCH  22  23
ATOM     23  O   UNL     1      -0.039  12.178  20.037  0.00  0.00    +0.000 OA
ATOM     24  C   UNL     1      -0.199  12.386  18.644  0.00  0.00    +0.000 C 
ENDBRANCH  22  23
BRANCH  17  25
ATOM     25  O   UNL     1      -0.124  11.209  22.829  0.00  0.00    +0.000 OA
BRANCH  25  27
ATOM     26  C   UNL     1      -2.210  12.389  22.976  0.00  0.00    +0.000 C 
ATOM     27  C   UNL     1      -1.507  11.058  23.166  0.00  0.00    +0.000 C 
ENDBRANCH  25  27
ENDBRANCH  17  25
ENDBRANCH  16  20
ENDBRANCH   1  16
TORSDOF 8
ENDMDL
MODEL 7
REMARK VINA RESULT:      -7.1      4.673      7.682
REMARK  Name = 
REMARK  11 active torsions:
REMARK  status: ('A' for Active; 'I' for Inactive)
REMARK    1  A    between atoms: C_1  and  C_2
REMARK    2  A    between atoms: C_2  and  O_3
REMARK    3  A    between atoms: O_3  and  C_4
REMARK    4  A    between atoms: C_7  and  C_8
REMARK    5  A    between atoms: C_8  and  N_9
REMARK    6  A    between atoms: C_10  and  C_12
REMARK    7  A    between atoms: N_15  and  S_16
REMARK    8  A    between atoms: S_16  and  C_19
REMARK    9  A    between atoms: C_19  and  C_20
REMARK   10  A    between atoms: C_24  and  O_25
REMARK   11  A    between atoms: O_25  and  C_26
REMARK                            x       y       z     vdW  Elec       q    Type
REMARK                         _______ _______ _______ _____ _____    ______ ____
ROOT
ATOM      1  N   UNL     1       7.235   8.061  17.453  0.00  0.00    +0.000 N 
ATOM      2  C   UNL     1       6.733   6.792  17.280  0.00  0.00    +0.000 C 
ATOM      3  O   UNL     1       7.230   5.809  17.820  0.00  0.00    +0.000 OA
ATOM      4  H   UNL     1       6.969   8.789  16.805  0.00  0.00    +0.000 HD
ENDROOT
BRANCH   2   5
ATOM      5  C   UNL     1       5.513   6.699  16.357  0.00  0.00    +0.000 C 
ATOM      6  C   UNL     1       4.199   7.002  17.080  0.00  0.00    +0.000 C 
ATOM      7  C   UNL     1       3.860   5.925  18.108  0.00  0.00    +0.000 C 
ATOM      8  N   UNL     1       3.774   4.581  17.466  0.00  0.00    +0.000 NA
ATOM      9  C   UNL     1       5.034   4.229  16.728  0.00  0.00    +0.000 C 
ATOM     10  C   UNL     1       5.400   5.313  15.712  0.00  0.00    +0.000 C 
BRANCH   8  11
ATOM     11  S   UNL     1       3.346   3.316  18.566  0.00  0.00    +0.000 S 
ATOM     12  O   UNL     1       3.366   2.069  17.828  0.00  0.00    +0.000 OA
ATOM     13  O   UNL     1       4.144   3.494  19.758  0.00  0.00    +0.000 OA
BRANCH  11  14
ATOM     14  C   UNL     1       1.637   3.694  18.951  0.00  0.00    +0.000 C 
ATOM     15  C   UNL     1       1.242   3.105  20.293  0.00  0.00    +0.000 C 
ENDBRANCH  11  14
ENDBRANCH   8  11
ENDBRANCH   2   5
BRANCH   1  16
ATOM     16  C   UNL     1       8.389   8.304  18.296  0.00  0.00    +0.000 C 
BRANCH  16  20
ATOM     17  C   UNL     1       9.233  12.536  18.644  0.00  0.00    +0.000 A 
ATOM     18  C   UNL     1       8.327  12.056  17.684  0.00  0.00    +0.000 A 
ATOM     19  C   UNL     1       8.056  10.692  17.567  0.00  0.00    +0.000 A 
ATOM     20  C   UNL     1       8.725   9.767  18.370  0.00  0.00    +0.000 A 
ATOM     21  C   UNL     1       9.693  10.242  19.265  0.00  0.00    +0.000 A 
ATOM     22  C   UNL     1       9.959  11.612  19.411  0.00  0.00    +0.000 A 
BRANCH  22  23
ATOM     23  O   UNL     1      10.932  11.841  20.350  0.00  0.00    +0.000 OA
ATOM     24  C   UNL     1      12.288  11.904  19.942  0.00  0.00    +0.000 C 
ENDBRANCH  22  23
BRANCH  17  25
ATOM     25  O   UNL     1       9.421  13.882  18.836  0.00  0.00    +0.000 OA
BRANCH  25  27
ATOM     26  C   UNL     1       9.925  15.894  17.626  0.00  0.00    +0.000 C 
ATOM     27  C   UNL     1      10.391  14.495  17.980  0.00  0.00    +0.000 C 
ENDBRANCH  25  27
ENDBRANCH  17  25
ENDBRANCH  16  20
ENDBRANCH   1  16
TORSDOF 8
ENDMDL
MODEL 8
REMARK VINA RESULT:      -7.0      1.519      2.430
REMARK  Name = 
REMARK  11 active torsions:
REMARK  status: ('A' for Active; 'I' for Inactive)
REMARK    1  A    between atoms: C_1  and  C_2
REMARK    2  A    between atoms: C_2  and  O_3
REMARK    3  A    between atoms: O_3  and  C_4
REMARK    4  A    between atoms: C_7  and  C_8
REMARK    5  A    between atoms: C_8  and  N_9
REMARK    6  A    between atoms: C_10  and  C_12
REMARK    7  A    between atoms: N_15  and  S_16
REMARK    8  A    between atoms: S_16  and  C_19
REMARK    9  A    between atoms: C_19  and  C_20
REMARK   10  A    between atoms: C_24  and  O_25
REMARK   11  A    between atoms: O_25  and  C_26
REMARK                            x       y       z     vdW  Elec       q    Type
REMARK                         _______ _______ _______ _____ _____    ______ ____
ROOT
ATOM      1  N   UNL     1       2.416   5.116  19.646  0.00  0.00    +0.000 N 
ATOM      2  C   UNL     1       1.731   3.963  19.339  0.00  0.00    +0.000 C 
ATOM      3  O   UNL     1       0.676   3.660  19.887  0.00  0.00    +0.000 OA
ATOM      4  H   UNL     1       3.386   5.202  19.371  0.00  0.00    +0.000 HD
ENDROOT
BRANCH   2   5
ATOM      5  C   UNL     1       2.389   3.084  18.270  0.00  0.00    +0.000 C 
ATOM      6  C   UNL     1       3.556   2.260  18.818  0.00  0.00    +0.000 C 
ATOM      7  C   UNL     1       4.732   3.147  19.219  0.00  0.00    +0.000 C 
ATOM      8  N   UNL     1       5.202   3.967  18.063  0.00  0.00    +0.000 NA
ATOM      9  C   UNL     1       4.094   4.793  17.473  0.00  0.00    +0.000 C 
ATOM     10  C   UNL     1       2.898   3.919  17.090  0.00  0.00    +0.000 C 
BRANCH   8  11
ATOM     11  S   UNL     1       6.566   4.964  18.434  0.00  0.00    +0.000 S 
ATOM     12  O   UNL     1       6.445   5.373  19.819  0.00  0.00    +0.000 OA
ATOM     13  O   UNL     1       7.744   4.277  17.954  0.00  0.00    +0.000 OA
BRANCH  11  14
ATOM     14  C   UNL     1       6.284   6.411  17.413  0.00  0.00    +0.000 C 
ATOM     15  C   UNL     1       7.429   7.398  17.546  0.00  0.00    +0.000 C 
ENDBRANCH  11  14
ENDBRANCH   8  11
ENDBRANCH   2   5
BRANCH   1  16
ATOM     16  C   UNL     1       1.918   6.044  20.641  0.00  0.00    +0.000 C 
BRANCH  16  20
ATOM     17  C   UNL     1       1.299   9.995  18.981  0.00  0.00    +0.000 A 
ATOM     18  C   UNL     1       1.893   8.975  18.220  0.00  0.00    +0.000 A 
ATOM     19  C   UNL     1       2.098   7.703  18.753  0.00  0.00    +0.000 A 
ATOM     20  C   UNL     1       1.763   7.431  20.081  0.00  0.00    +0.000 A 
ATOM     21  C   UNL     1       1.252   8.474  20.864  0.00  0.00    +0.000 A 
ATOM     22  C   UNL     1       1.018   9.752  20.335  0.00  0.00    +0.000 A 
BRANCH  22  23
ATOM     23  O   UNL     1       0.507  10.604  21.279  0.00  0.00    +0.000 OA
ATOM     24  C   UNL     1      -0.839  11.038  21.167  0.00  0.00    +0.000 C 
ENDBRANCH  22  23
BRANCH  17  25
ATOM     25  O   UNL     1       0.996  11.214  18.428  0.00  0.00    +0.000 OA
BRANCH  25  27
ATOM     26  C   UNL     1       1.651  13.367  19.267  0.00  0.00    +0.000 C 
ATOM     27  C   UNL     1       2.062  12.170  18.431  0.00  0.00    +0.000 C 
ENDBRANCH  25  27
ENDBRANCH  17  25
ENDBRANCH  16  20
ENDBRANCH   1  16
TORSDOF 8
ENDMDL
MODEL 9
REMARK VINA RESULT:      -7.0      2.186      3.685
REMARK  Name = 
REMARK  11 active torsions:
REMARK  status: ('A' for Active; 'I' for Inactive)
REMARK    1  A    between atoms: C_1  and  C_2
REMARK    2  A    between atoms: C_2  and  O_3
REMARK    3  A    between atoms: O_3  and  C_4
REMARK    4  A    between atoms: C_7  and  C_8
REMARK    5  A    between atoms: C_8  and  N_9
REMARK    6  A    between atoms: C_10  and  C_12
REMARK    7  A    between atoms: N_15  and  S_16
REMARK    8  A    between atoms: S_16  and  C_19
REMARK    9  A    between atoms: C_19  and  C_20
REMARK   10  A    between atoms: C_24  and  O_25
REMARK   11  A    between atoms: O_25  and  C_26
REMARK                            x       y       z     vdW  Elec       q    Type
REMARK                         _______ _______ _______ _____ _____    ______ ____
ROOT
ATOM      1  N   UNL     1       4.026   7.095  17.717  0.00  0.00    +0.000 N 
ATOM      2  C   UNL     1       4.846   6.568  16.746  0.00  0.00    +0.000 C 
ATOM      3  O   UNL     1       4.922   7.047  15.619  0.00  0.00    +0.000 OA
ATOM      4  H   UNL     1       3.798   6.536  18.527  0.00  0.00    +0.000 HD
ENDROOT
BRANCH   2   5
ATOM      5  C   UNL     1       5.648   5.335  17.175  0.00  0.00    +0.000 C 
ATOM      6  C   UNL     1       5.213   4.063  16.444  0.00  0.00    +0.000 C 
ATOM      7  C   UNL     1       3.803   3.638  16.844  0.00  0.00    +0.000 C 
ATOM      8  N   UNL     1       3.707   3.421  18.318  0.00  0.00    +0.000 NA
ATOM      9  C   UNL     1       4.133   4.635  19.093  0.00  0.00    +0.000 C 
ATOM     10  C   UNL     1       5.536   5.088  18.683  0.00  0.00    +0.000 C 
BRANCH   8  11
ATOM     11  S   UNL     1       2.145   2.890  18.838  0.00  0.00    +0.000 S 
ATOM     12  O   UNL     1       1.180   3.347  17.858  0.00  0.00    +0.000 OA
ATOM     13  O   UNL     1       2.258   1.491  19.182  0.00  0.00    +0.000 OA
BRANCH  11  14
ATOM     14  C   UNL     1       1.888   3.837  20.338  0.00  0.00    +0.000 C 
ATOM     15  C   UNL     1       1.450   2.935  21.478  0.00  0.00    +0.000 C 
ENDBRANCH  11  14
ENDBRANCH   8  11
ENDBRANCH   2   5
BRANCH   1  16
ATOM     16  C   UNL     1       3.204   8.260  17.456  0.00  0.00    +0.000 C 
BRANCH  16  20
ATOM     17  C   UNL     1       0.370   9.001  20.644  0.00  0.00    +0.000 A 
ATOM     18  C   UNL     1       1.296   7.948  20.729  0.00  0.00    +0.000 A 
ATOM     19  C   UNL     1       2.207   7.704  19.701  0.00  0.00    +0.000 A 
ATOM     20  C   UNL     1       2.181   8.473  18.537  0.00  0.00    +0.000 A 
ATOM     21  C   UNL     1       1.200   9.465  18.418  0.00  0.00    +0.000 A 
ATOM     22  C   UNL     1       0.292   9.738  19.452  0.00  0.00    +0.000 A 
BRANCH  22  23
ATOM     23  O   UNL     1      -0.566  10.754  19.117  0.00  0.00    +0.000 OA
ATOM     24  C   UNL     1      -1.835  10.439  18.569  0.00  0.00    +0.000 C 
ENDBRANCH  22  23
BRANCH  17  25
ATOM     25  O   UNL     1      -0.455   9.313  21.696  0.00  0.00    +0.000 OA
BRANCH  25  27
ATOM     26  C   UNL     1      -1.062  11.444  22.621  0.00  0.00    +0.000 C 
ATOM     27  C   UNL     1       0.006  10.370  22.545  0.00  0.00    +0.000 C 
ENDBRANCH  25  27
ENDBRANCH  17  25
ENDBRANCH  16  20
ENDBRANCH   1  16
TORSDOF 8
ENDMDL
