MODEL 1
REMARK VINA RESULT:      -6.7      0.000      0.000
REMARK  Name = 
REMARK  2 active torsions:
REMARK  status: ('A' for Active; 'I' for Inactive)
REMARK    1  A    between atoms: N_5  and  C_6
REMARK    2  A    between atoms: N_20  and  C_21
REMARK                            x       y       z     vdW  Elec       q    Type
REMARK                         _______ _______ _______ _____ _____    ______ ____
ROOT
ATOM      1  O   UNL     1      -2.634  15.649  20.635  0.00  0.00    +0.000 OA
ATOM      2  C   UNL     1      -1.799  14.842  20.992  0.00  0.00    +0.000 C 
ATOM      3  N   UNL     1      -0.946  15.033  22.054  0.00  0.00    +0.000 N 
ATOM      4  C   UNL     1      -0.032  13.969  22.280  0.00  0.00    +0.000 C 
ATOM      5  N   UNL     1      -0.408  12.935  21.322  0.00  0.00    +0.000 N 
ATOM      6  C   UNL     1      -1.459  13.461  20.375  0.00  0.00    +0.000 C 
ATOM      7  C   UNL     1      -2.769  12.682  20.359  0.00  0.00    +0.000 C 
ATOM      8  C   UNL     1      -2.754  11.536  19.365  0.00  0.00    +0.000 C 
ATOM      9  N   UNL     1      -2.384  12.048  18.034  0.00  0.00    +0.000 N 
ATOM     10  C   UNL     1      -2.807  11.326  16.943  0.00  0.00    +0.000 A 
ATOM     11  N   UNL     1      -2.090  10.820  15.958  0.00  0.00    +0.000 NA
ATOM     12  N   UNL     1      -2.937  10.016  15.232  0.00  0.00    +0.000 NA
ATOM     13  N   UNL     1      -4.165  10.034  15.731  0.00  0.00    +0.000 NA
ATOM     14  N   UNL     1      -4.142  10.958  16.718  0.00  0.00    +0.000 N 
ATOM     15  C   UNL     1      -1.043  12.634  17.957  0.00  0.00    +0.000 C 
ATOM     16  C   UNL     1      -0.905  13.765  18.969  0.00  0.00    +0.000 C 
ATOM     17  H   UNL     1      -0.982  15.884  22.594  0.00  0.00    +0.000 HD
ENDROOT
BRANCH   5  18
ATOM     18  C   UNL     1      -0.299  11.596  21.678  0.00  0.00    +0.000 A 
ATOM     19  C   UNL     1      -0.823  11.055  22.861  0.00  0.00    +0.000 A 
ATOM     20  C   UNL     1      -0.741   9.684  23.157  0.00  0.00    +0.000 A 
ATOM     21  C   UNL     1      -0.157   8.802  22.256  0.00  0.00    +0.000 A 
ATOM     22  C   UNL     1       0.393   9.307  21.089  0.00  0.00    +0.000 A 
ATOM     23  C   UNL     1       0.360  10.685  20.842  0.00  0.00    +0.000 A 
ENDBRANCH   5  18
BRANCH  14  24
ATOM     24  C   UNL     1      -5.298  11.365  17.424  0.00  0.00    +0.000 A 
ATOM     25  C   UNL     1      -5.844  10.534  18.405  0.00  0.00    +0.000 A 
ATOM     26  C   UNL     1      -6.770  11.066  19.306  0.00  0.00    +0.000 A 
ATOM     27  C   UNL     1      -7.158  12.407  19.219  0.00  0.00    +0.000 A 
ATOM     28  C   UNL     1      -6.679  13.206  18.186  0.00  0.00    +0.000 A 
ATOM     29  C   UNL     1      -5.778  12.676  17.269  0.00  0.00    +0.000 A 
ENDBRANCH  14  24
TORSDOF 2
ENDMDL
MODEL 2
REMARK VINA RESULT:      -6.7      0.478      1.021
REMARK  Name = 
REMARK  2 active torsions:
REMARK  status: ('A' for Active; 'I' for Inactive)
REMARK    1  A    between atoms: N_5  and  C_6
REMARK    2  A    between atoms: N_20  and  C_21
REMARK                            x       y       z     vdW  Elec       q    Type
REMARK                         _______ _______ _______ _____ _____    ______ ____
ROOT
ATOM      1  O   UNL     1      -2.014  15.974  20.214  0.00  0.00    +0.000 OA
ATOM      2  C   UNL     1      -1.259  15.124  20.641  0.00  0.00    +0.000 C 
ATOM      3  N   UNL     1      -0.362  15.332  21.663  0.00  0.00    +0.000 N 
ATOM      4  C   UNL     1       0.441  14.205  21.987  0.00  0.00    +0.000 C 
ATOM      5  N   UNL     1      -0.068  13.123  21.150  0.00  0.00    +0.000 N 
ATOM      6  C   UNL     1      -1.082  13.658  20.169  0.00  0.00    +0.000 C 
ATOM      7  C   UNL     1      -2.467  13.027  20.256  0.00  0.00    +0.000 C 
ATOM      8  C   UNL     1      -2.600  11.788  19.389  0.00  0.00    +0.000 C 
ATOM      9  N   UNL     1      -2.214  12.117  18.006  0.00  0.00    +0.000 N 
ATOM     10  C   UNL     1      -2.739  11.335  17.004  0.00  0.00    +0.000 A 
ATOM     11  N   UNL     1      -2.107  10.656  16.068  0.00  0.00    +0.000 NA
ATOM     12  N   UNL     1      -3.052   9.876  15.444  0.00  0.00    +0.000 NA
ATOM     13  N   UNL     1      -4.258  10.078  15.958  0.00  0.00    +0.000 NA
ATOM     14  N   UNL     1      -4.111  11.091  16.841  0.00  0.00    +0.000 N 
ATOM     15  C   UNL     1      -0.821  12.544  17.846  0.00  0.00    +0.000 C 
ATOM     16  C   UNL     1      -0.538  13.753  18.730  0.00  0.00    +0.000 C 
ATOM     17  H   UNL     1      -0.294  16.233  22.111  0.00  0.00    +0.000 HD
ENDROOT
BRANCH   5  18
ATOM     18  C   UNL     1      -0.090  11.825  21.644  0.00  0.00    +0.000 A 
ATOM     19  C   UNL     1      -0.808  11.433  22.783  0.00  0.00    +0.000 A 
ATOM     20  C   UNL     1      -0.851  10.097  23.217  0.00  0.00    +0.000 A 
ATOM     21  C   UNL     1      -0.199   9.102  22.500  0.00  0.00    +0.000 A 
ATOM     22  C   UNL     1       0.541   9.458  21.385  0.00  0.00    +0.000 A 
ATOM     23  C   UNL     1       0.626  10.804  21.005  0.00  0.00    +0.000 A 
ENDBRANCH   5  18
BRANCH  14  24
ATOM     24  C   UNL     1      -5.198  11.692  17.518  0.00  0.00    +0.000 A 
ATOM     25  C   UNL     1      -5.790  12.845  16.999  0.00  0.00    +0.000 A 
ATOM     26  C   UNL     1      -7.040  13.242  17.481  0.00  0.00    +0.000 A 
ATOM     27  C   UNL     1      -7.684  12.505  18.481  0.00  0.00    +0.000 A 
ATOM     28  C   UNL     1      -7.050  11.408  19.057  0.00  0.00    +0.000 A 
ATOM     29  C   UNL     1      -5.794  11.024  18.600  0.00  0.00    +0.000 A 
ENDBRANCH  14  24
TORSDOF 2
ENDMDL
MODEL 3
REMARK VINA RESULT:      -6.3      3.308      5.893
REMARK  Name = 
REMARK  2 active torsions:
REMARK  status: ('A' for Active; 'I' for Inactive)
REMARK    1  A    between atoms: N_5  and  C_6
REMARK    2  A    between atoms: N_20  and  C_21
REMARK                            x       y       z     vdW  Elec       q    Type
REMARK                         _______ _______ _______ _____ _____    ______ ____
ROOT
ATOM      1  O   UNL     1       0.449  16.070  23.533  0.00  0.00    +0.000 OA
ATOM      2  C   UNL     1       1.147  16.417  22.602  0.00  0.00    +0.000 C 
ATOM      3  N   UNL     1       1.982  17.510  22.629  0.00  0.00    +0.000 N 
ATOM      4  C   UNL     1       2.689  17.747  21.419  0.00  0.00    +0.000 C 
ATOM      5  N   UNL     1       2.349  16.623  20.554  0.00  0.00    +0.000 N 
ATOM      6  C   UNL     1       1.269  15.783  21.192  0.00  0.00    +0.000 C 
ATOM      7  C   UNL     1       1.636  14.322  21.428  0.00  0.00    +0.000 C 
ATOM      8  C   UNL     1       1.317  13.440  20.235  0.00  0.00    +0.000 C 
ATOM      9  N   UNL     1      -0.098  13.616  19.862  0.00  0.00    +0.000 N 
ATOM     10  C   UNL     1      -0.704  12.580  19.192  0.00  0.00    +0.000 A 
ATOM     11  N   UNL     1      -1.327  12.598  18.030  0.00  0.00    +0.000 NA
ATOM     12  N   UNL     1      -1.572  11.287  17.697  0.00  0.00    +0.000 NA
ATOM     13  N   UNL     1      -1.138  10.461  18.640  0.00  0.00    +0.000 NA
ATOM     14  N   UNL     1      -0.718  11.254  19.651  0.00  0.00    +0.000 N 
ATOM     15  C   UNL     1      -0.453  14.973  19.437  0.00  0.00    +0.000 C 
ATOM     16  C   UNL     1      -0.111  15.973  20.534  0.00  0.00    +0.000 C 
ATOM     17  H   UNL     1       2.046  18.086  23.454  0.00  0.00    +0.000 HD
ENDROOT
BRANCH   5  18
ATOM     18  C   UNL     1       3.305  16.111  19.685  0.00  0.00    +0.000 A 
ATOM     19  C   UNL     1       4.589  15.710  20.082  0.00  0.00    +0.000 A 
ATOM     20  C   UNL     1       5.508  15.144  19.182  0.00  0.00    +0.000 A 
ATOM     21  C   UNL     1       5.153  14.929  17.855  0.00  0.00    +0.000 A 
ATOM     22  C   UNL     1       3.902  15.337  17.424  0.00  0.00    +0.000 A 
ATOM     23  C   UNL     1       3.024  15.959  18.320  0.00  0.00    +0.000 A 
ENDBRANCH   5  18
BRANCH  14  24
ATOM     24  C   UNL     1      -0.290  10.751  20.903  0.00  0.00    +0.000 A 
ATOM     25  C   UNL     1      -0.982  11.100  22.065  0.00  0.00    +0.000 A 
ATOM     26  C   UNL     1      -0.762  10.362  23.231  0.00  0.00    +0.000 A 
ATOM     27  C   UNL     1       0.148   9.299  23.241  0.00  0.00    +0.000 A 
ATOM     28  C   UNL     1       0.899   9.014  22.104  0.00  0.00    +0.000 A 
ATOM     29  C   UNL     1       0.705   9.762  20.948  0.00  0.00    +0.000 A 
ENDBRANCH  14  24
TORSDOF 2
ENDMDL
MODEL 4
REMARK VINA RESULT:      -6.3      2.262      3.023
REMARK  Name = 
REMARK  2 active torsions:
REMARK  status: ('A' for Active; 'I' for Inactive)
REMARK    1  A    between atoms: N_5  and  C_6
REMARK    2  A    between atoms: N_20  and  C_21
REMARK                            x       y       z     vdW  Elec       q    Type
REMARK                         _______ _______ _______ _____ _____    ______ ____
ROOT
ATOM      1  O   UNL     1      -0.505  15.183  18.608  0.00  0.00    +0.000 OA
ATOM      2  C   UNL     1      -0.090  14.106  18.988  0.00  0.00    +0.000 C 
ATOM      3  N   UNL     1       1.237  13.827  19.217  0.00  0.00    +0.000 N 
ATOM      4  C   UNL     1       1.500  12.495  19.636  0.00  0.00    +0.000 C 
ATOM      5  N   UNL     1       0.187  11.880  19.793  0.00  0.00    +0.000 N 
ATOM      6  C   UNL     1      -0.888  12.810  19.283  0.00  0.00    +0.000 C 
ATOM      7  C   UNL     1      -1.948  13.200  20.305  0.00  0.00    +0.000 C 
ATOM      8  C   UNL     1      -3.110  12.225  20.343  0.00  0.00    +0.000 C 
ATOM      9  N   UNL     1      -3.662  12.071  18.985  0.00  0.00    +0.000 N 
ATOM     10  C   UNL     1      -4.975  11.677  18.882  0.00  0.00    +0.000 A 
ATOM     11  N   UNL     1      -5.481  10.645  18.235  0.00  0.00    +0.000 NA
ATOM     12  N   UNL     1      -6.803  10.562  18.603  0.00  0.00    +0.000 NA
ATOM     13  N   UNL     1      -7.131  11.533  19.444  0.00  0.00    +0.000 NA
ATOM     14  N   UNL     1      -6.040  12.328  19.523  0.00  0.00    +0.000 N 
ATOM     15  C   UNL     1      -2.727  11.509  18.006  0.00  0.00    +0.000 C 
ATOM     16  C   UNL     1      -1.471  12.369  17.927  0.00  0.00    +0.000 C 
ATOM     17  H   UNL     1       1.942  14.533  19.069  0.00  0.00    +0.000 HD
ENDROOT
BRANCH   5  18
ATOM     18  C   UNL     1      -0.020  10.952  20.806  0.00  0.00    +0.000 A 
ATOM     19  C   UNL     1      -0.219  11.294  22.152  0.00  0.00    +0.000 A 
ATOM     20  C   UNL     1      -0.482  10.329  23.139  0.00  0.00    +0.000 A 
ATOM     21  C   UNL     1      -0.589   8.985  22.799  0.00  0.00    +0.000 A 
ATOM     22  C   UNL     1      -0.373   8.610  21.483  0.00  0.00    +0.000 A 
ATOM     23  C   UNL     1      -0.046   9.580  20.526  0.00  0.00    +0.000 A 
ENDBRANCH   5  18
BRANCH  14  24
ATOM     24  C   UNL     1      -6.024  13.553  20.232  0.00  0.00    +0.000 A 
ATOM     25  C   UNL     1      -5.960  13.548  21.627  0.00  0.00    +0.000 A 
ATOM     26  C   UNL     1      -5.624  14.730  22.293  0.00  0.00    +0.000 A 
ATOM     27  C   UNL     1      -5.370  15.904  21.577  0.00  0.00    +0.000 A 
ATOM     28  C   UNL     1      -5.522  15.924  20.194  0.00  0.00    +0.000 A 
ATOM     29  C   UNL     1      -5.883  14.759  19.526  0.00  0.00    +0.000 A 
ENDBRANCH  14  24
TORSDOF 2
ENDMDL
MODEL 5
REMARK VINA RESULT:      -6.2      2.868      5.773
REMARK  Name = 
REMARK  2 active torsions:
REMARK  status: ('A' for Active; 'I' for Inactive)
REMARK    1  A    between atoms: N_5  and  C_6
REMARK    2  A    between atoms: N_20  and  C_21
REMARK                            x       y       z     vdW  Elec       q    Type
REMARK                         _______ _______ _______ _____ _____    ______ ____
ROOT
ATOM      1  O   UNL     1      -3.897  11.932  24.006  0.00  0.00    +0.000 OA
ATOM      2  C   UNL     1      -4.422  12.945  23.590  0.00  0.00    +0.000 C 
ATOM      3  N   UNL     1      -5.018  13.890  24.392  0.00  0.00    +0.000 N 
ATOM      4  C   UNL     1      -5.592  14.986  23.692  0.00  0.00    +0.000 C 
ATOM      5  N   UNL     1      -5.235  14.773  22.294  0.00  0.00    +0.000 N 
ATOM      6  C   UNL     1      -4.583  13.422  22.124  0.00  0.00    +0.000 C 
ATOM      7  C   UNL     1      -3.175  13.447  21.540  0.00  0.00    +0.000 C 
ATOM      8  C   UNL     1      -3.171  13.402  20.024  0.00  0.00    +0.000 C 
ATOM      9  N   UNL     1      -3.952  12.238  19.568  0.00  0.00    +0.000 N 
ATOM     10  C   UNL     1      -3.651  11.727  18.327  0.00  0.00    +0.000 A 
ATOM     11  N   UNL     1      -4.450  11.536  17.296  0.00  0.00    +0.000 NA
ATOM     12  N   UNL     1      -3.644  11.204  16.233  0.00  0.00    +0.000 NA
ATOM     13  N   UNL     1      -2.368  11.162  16.590  0.00  0.00    +0.000 NA
ATOM     14  N   UNL     1      -2.360  11.347  17.930  0.00  0.00    +0.000 N 
ATOM     15  C   UNL     1      -5.369  12.269  19.942  0.00  0.00    +0.000 C 
ATOM     16  C   UNL     1      -5.509  12.387  21.455  0.00  0.00    +0.000 C 
ATOM     17  H   UNL     1      -5.045  13.770  25.393  0.00  0.00    +0.000 HD
ENDROOT
BRANCH   5  18
ATOM     18  C   UNL     1      -4.956  15.866  21.482  0.00  0.00    +0.000 A 
ATOM     19  C   UNL     1      -3.988  16.835  21.780  0.00  0.00    +0.000 A 
ATOM     20  C   UNL     1      -3.696  17.895  20.904  0.00  0.00    +0.000 A 
ATOM     21  C   UNL     1      -4.347  17.997  19.680  0.00  0.00    +0.000 A 
ATOM     22  C   UNL     1      -5.327  17.070  19.366  0.00  0.00    +0.000 A 
ATOM     23  C   UNL     1      -5.650  16.059  20.280  0.00  0.00    +0.000 A 
ENDBRANCH   5  18
BRANCH  14  24
ATOM     24  C   UNL     1      -1.190  11.249  18.718  0.00  0.00    +0.000 A 
ATOM     25  C   UNL     1      -0.248  12.281  18.697  0.00  0.00    +0.000 A 
ATOM     26  C   UNL     1       0.724  12.331  19.699  0.00  0.00    +0.000 A 
ATOM     27  C   UNL     1       0.767  11.354  20.699  0.00  0.00    +0.000 A 
ATOM     28  C   UNL     1      -0.117  10.280  20.664  0.00  0.00    +0.000 A 
ATOM     29  C   UNL     1      -1.071  10.210  19.654  0.00  0.00    +0.000 A 
ENDBRANCH  14  24
TORSDOF 2
ENDMDL
MODEL 6
REMARK VINA RESULT:      -6.2      2.991      5.836
REMARK  Name = 
REMARK  2 active torsions:
REMARK  status: ('A' for Active; 'I' for Inactive)
REMARK    1  A    between atoms: N_5  and  C_6
REMARK    2  A    between atoms: N_20  and  C_21
REMARK                            x       y       z     vdW  Elec       q    Type
REMARK                         _______ _______ _______ _____ _____    ______ ____
ROOT
ATOM      1  O   UNL     1      -3.975  12.004  23.948  0.00  0.00    +0.000 OA
ATOM      2  C   UNL     1      -4.589  12.971  23.547  0.00  0.00    +0.000 C 
ATOM      3  N   UNL     1      -5.205  13.889  24.365  0.00  0.00    +0.000 N 
ATOM      4  C   UNL     1      -5.888  14.931  23.681  0.00  0.00    +0.000 C 
ATOM      5  N   UNL     1      -5.591  14.716  22.269  0.00  0.00    +0.000 N 
ATOM      6  C   UNL     1      -4.859  13.409  22.084  0.00  0.00    +0.000 C 
ATOM      7  C   UNL     1      -3.489  13.518  21.426  0.00  0.00    +0.000 C 
ATOM      8  C   UNL     1      -3.561  13.445  19.912  0.00  0.00    +0.000 C 
ATOM      9  N   UNL     1      -4.283  12.223  19.516  0.00  0.00    +0.000 N 
ATOM     10  C   UNL     1      -4.014  11.711  18.269  0.00  0.00    +0.000 A 
ATOM     11  N   UNL     1      -4.851  11.447  17.285  0.00  0.00    +0.000 NA
ATOM     12  N   UNL     1      -4.082  11.150  16.185  0.00  0.00    +0.000 NA
ATOM     13  N   UNL     1      -2.789  11.200  16.474  0.00  0.00    +0.000 NA
ATOM     14  N   UNL     1      -2.723  11.411  17.808  0.00  0.00    +0.000 N 
ATOM     15  C   UNL     1      -5.677  12.166  19.965  0.00  0.00    +0.000 C 
ATOM     16  C   UNL     1      -5.746  12.302  21.481  0.00  0.00    +0.000 C 
ATOM     17  H   UNL     1      -5.170  13.787  25.368  0.00  0.00    +0.000 HD
ENDROOT
BRANCH   5  18
ATOM     18  C   UNL     1      -5.430  15.810  21.427  0.00  0.00    +0.000 A 
ATOM     19  C   UNL     1      -4.580  16.891  21.702  0.00  0.00    +0.000 A 
ATOM     20  C   UNL     1      -4.403  17.952  20.797  0.00  0.00    +0.000 A 
ATOM     21  C   UNL     1      -5.049  17.944  19.567  0.00  0.00    +0.000 A 
ATOM     22  C   UNL     1      -5.915  16.904  19.274  0.00  0.00    +0.000 A 
ATOM     23  C   UNL     1      -6.130  15.890  20.216  0.00  0.00    +0.000 A 
ENDBRANCH   5  18
BRANCH  14  24
ATOM     24  C   UNL     1      -1.509  11.406  18.534  0.00  0.00    +0.000 A 
ATOM     25  C   UNL     1      -1.118  10.259  19.229  0.00  0.00    +0.000 A 
ATOM     26  C   UNL     1       0.205  10.150  19.666  0.00  0.00    +0.000 A 
ATOM     27  C   UNL     1       1.121  11.180  19.428  0.00  0.00    +0.000 A 
ATOM     28  C   UNL     1       0.704  12.357  18.814  0.00  0.00    +0.000 A 
ATOM     29  C   UNL     1      -0.618  12.483  18.400  0.00  0.00    +0.000 A 
ENDBRANCH  14  24
TORSDOF 2
ENDMDL
MODEL 7
REMARK VINA RESULT:      -6.1      3.274      5.439
REMARK  Name = 
REMARK  2 active torsions:
REMARK  status: ('A' for Active; 'I' for Inactive)
REMARK    1  A    between atoms: N_5  and  C_6
REMARK    2  A    between atoms: N_20  and  C_21
REMARK                            x       y       z     vdW  Elec       q    Type
REMARK                         _______ _______ _______ _____ _____    ______ ____
ROOT
ATOM      1  O   UNL     1      -1.494  10.624  19.592  0.00  0.00    +0.000 OA
ATOM      2  C   UNL     1      -1.110  11.676  20.062  0.00  0.00    +0.000 C 
ATOM      3  N   UNL     1       0.150  12.194  19.867  0.00  0.00    +0.000 N 
ATOM      4  C   UNL     1       0.394  13.427  20.530  0.00  0.00    +0.000 C 
ATOM      5  N   UNL     1      -0.883  13.794  21.132  0.00  0.00    +0.000 N 
ATOM      6  C   UNL     1      -1.873  12.664  20.980  0.00  0.00    +0.000 C 
ATOM      7  C   UNL     1      -3.153  13.018  20.232  0.00  0.00    +0.000 C 
ATOM      8  C   UNL     1      -4.235  13.558  21.149  0.00  0.00    +0.000 C 
ATOM      9  N   UNL     1      -4.467  12.602  22.246  0.00  0.00    +0.000 N 
ATOM     10  C   UNL     1      -5.700  12.630  22.853  0.00  0.00    +0.000 A 
ATOM     11  N   UNL     1      -5.990  12.788  24.130  0.00  0.00    +0.000 NA
ATOM     12  N   UNL     1      -7.353  12.951  24.205  0.00  0.00    +0.000 NA
ATOM     13  N   UNL     1      -7.914  12.872  23.006  0.00  0.00    +0.000 NA
ATOM     14  N   UNL     1      -6.916  12.530  22.160  0.00  0.00    +0.000 N 
ATOM     15  C   UNL     1      -3.309  12.380  23.117  0.00  0.00    +0.000 C 
ATOM     16  C   UNL     1      -2.120  11.898  22.294  0.00  0.00    +0.000 C 
ATOM     17  H   UNL     1       0.827  11.698  19.308  0.00  0.00    +0.000 HD
ENDROOT
BRANCH   5  18
ATOM     18  C   UNL     1      -1.251  15.132  21.201  0.00  0.00    +0.000 A 
ATOM     19  C   UNL     1      -1.717  15.757  22.367  0.00  0.00    +0.000 A 
ATOM     20  C   UNL     1      -2.025  17.127  22.409  0.00  0.00    +0.000 A 
ATOM     21  C   UNL     1      -1.842  17.925  21.286  0.00  0.00    +0.000 A 
ATOM     22  C   UNL     1      -1.407  17.335  20.111  0.00  0.00    +0.000 A 
ATOM     23  C   UNL     1      -1.169  15.956  20.071  0.00  0.00    +0.000 A 
ENDBRANCH   5  18
BRANCH  14  24
ATOM     24  C   UNL     1      -7.128  12.227  20.795  0.00  0.00    +0.000 A 
ATOM     25  C   UNL     1      -7.394  13.255  19.887  0.00  0.00    +0.000 A 
ATOM     26  C   UNL     1      -7.283  12.995  18.518  0.00  0.00    +0.000 A 
ATOM     27  C   UNL     1      -6.927  11.722  18.061  0.00  0.00    +0.000 A 
ATOM     28  C   UNL     1      -6.750  10.680  18.967  0.00  0.00    +0.000 A 
ATOM     29  C   UNL     1      -6.885  10.925  20.329  0.00  0.00    +0.000 A 
ENDBRANCH  14  24
TORSDOF 2
ENDMDL
MODEL 8
REMARK VINA RESULT:      -6.1      8.817     11.244
REMARK  Name = 
REMARK  2 active torsions:
REMARK  status: ('A' for Active; 'I' for Inactive)
REMARK    1  A    between atoms: N_5  and  C_6
REMARK    2  A    between atoms: N_20  and  C_21
REMARK                            x       y       z     vdW  Elec       q    Type
REMARK                         _______ _______ _______ _____ _____    ______ ____
ROOT
ATOM      1  O   UNL     1      10.415  17.505  20.613  0.00  0.00    +0.000 OA
ATOM      2  C   UNL     1      10.661  16.435  20.095  0.00  0.00    +0.000 C 
ATOM      3  N   UNL     1      11.929  15.925  19.942  0.00  0.00    +0.000 N 
ATOM      4  C   UNL     1      11.987  14.666  19.286  0.00  0.00    +0.000 C 
ATOM      5  N   UNL     1      10.595  14.276  19.087  0.00  0.00    +0.000 N 
ATOM      6  C   UNL     1       9.677  15.411  19.472  0.00  0.00    +0.000 C 
ATOM      7  C   UNL     1       8.668  15.089  20.568  0.00  0.00    +0.000 C 
ATOM      8  C   UNL     1       7.375  14.513  20.020  0.00  0.00    +0.000 C 
ATOM      9  N   UNL     1       6.830  15.424  18.998  0.00  0.00    +0.000 N 
ATOM     10  C   UNL     1       5.475  15.373  18.769  0.00  0.00    +0.000 A 
ATOM     11  N   UNL     1       4.835  15.164  17.636  0.00  0.00    +0.000 NA
ATOM     12  N   UNL     1       3.509  14.999  17.960  0.00  0.00    +0.000 NA
ATOM     13  N   UNL     1       3.313  15.127  19.265  0.00  0.00    +0.000 NA
ATOM     14  N   UNL     1       4.507  15.502  19.777  0.00  0.00    +0.000 N 
ATOM     15  C   UNL     1       7.689  15.611  17.825  0.00  0.00    +0.000 C 
ATOM     16  C   UNL     1       9.058  16.124  18.254  0.00  0.00    +0.000 C 
ATOM     17  H   UNL     1      12.732  16.442  20.264  0.00  0.00    +0.000 HD
ENDROOT
BRANCH   5  18
ATOM     18  C   UNL     1      10.237  12.936  19.179  0.00  0.00    +0.000 A 
ATOM     19  C   UNL     1      10.408  12.158  20.333  0.00  0.00    +0.000 A 
ATOM     20  C   UNL     1       9.980  10.821  20.404  0.00  0.00    +0.000 A 
ATOM     21  C   UNL     1       9.333  10.230  19.325  0.00  0.00    +0.000 A 
ATOM     22  C   UNL     1       9.171  10.963  18.161  0.00  0.00    +0.000 A 
ATOM     23  C   UNL     1       9.663  12.272  18.087  0.00  0.00    +0.000 A 
ENDBRANCH   5  18
BRANCH  14  24
ATOM     24  C   UNL     1       4.690  15.860  21.133  0.00  0.00    +0.000 A 
ATOM     25  C   UNL     1       4.562  14.892  22.132  0.00  0.00    +0.000 A 
ATOM     26  C   UNL     1       5.052  15.170  23.410  0.00  0.00    +0.000 A 
ATOM     27  C   UNL     1       5.646  16.404  23.693  0.00  0.00    +0.000 A 
ATOM     28  C   UNL     1       5.690  17.397  22.719  0.00  0.00    +0.000 A 
ATOM     29  C   UNL     1       5.180  17.137  21.451  0.00  0.00    +0.000 A 
ENDBRANCH  14  24
TORSDOF 2
ENDMDL
MODEL 9
REMARK VINA RESULT:      -6.1     10.043     12.679
REMARK  Name = 
REMARK  2 active torsions:
REMARK  status: ('A' for Active; 'I' for Inactive)
REMARK    1  A    between atoms: N_5  and  C_6
REMARK    2  A    between atoms: N_20  and  C_21
REMARK                            x       y       z     vdW  Elec       q    Type
REMARK                         _______ _______ _______ _____ _____    ______ ____
ROOT
ATOM      1  O   UNL     1      11.408  17.115  22.113  0.00  0.00    +0.000 OA
ATOM      2  C   UNL     1      11.328  16.444  21.104  0.00  0.00    +0.000 C 
ATOM      3  N   UNL     1      12.325  16.346  20.161  0.00  0.00    +0.000 N 
ATOM      4  C   UNL     1      12.009  15.523  19.047  0.00  0.00    +0.000 C 
ATOM      5  N   UNL     1      10.707  14.945  19.358  0.00  0.00    +0.000 N 
ATOM      6  C   UNL     1      10.143  15.576  20.608  0.00  0.00    +0.000 C 
ATOM      7  C   UNL     1       9.836  14.608  21.744  0.00  0.00    +0.000 C 
ATOM      8  C   UNL     1       8.434  14.034  21.660  0.00  0.00    +0.000 C 
ATOM      9  N   UNL     1       7.460  15.136  21.577  0.00  0.00    +0.000 N 
ATOM     10  C   UNL     1       6.180  14.877  22.009  0.00  0.00    +0.000 A 
ATOM     11  N   UNL     1       5.043  15.018  21.356  0.00  0.00    +0.000 NA
ATOM     12  N   UNL     1       4.071  14.436  22.135  0.00  0.00    +0.000 NA
ATOM     13  N   UNL     1       4.578  13.962  23.264  0.00  0.00    +0.000 NA
ATOM     14  N   UNL     1       5.873  14.352  23.273  0.00  0.00    +0.000 N 
ATOM     15  C   UNL     1       7.595  15.983  20.388  0.00  0.00    +0.000 C 
ATOM     16  C   UNL     1       9.001  16.569  20.319  0.00  0.00    +0.000 C 
ATOM     17  H   UNL     1      13.190  16.851  20.276  0.00  0.00    +0.000 HD
ENDROOT
BRANCH   5  18
ATOM     18  C   UNL     1      10.419  13.646  18.959  0.00  0.00    +0.000 A 
ATOM     19  C   UNL     1      11.204  12.532  19.291  0.00  0.00    +0.000 A 
ATOM     20  C   UNL     1      10.847  11.226  18.916  0.00  0.00    +0.000 A 
ATOM     21  C   UNL     1       9.668  10.990  18.220  0.00  0.00    +0.000 A 
ATOM     22  C   UNL     1       8.881  12.070  17.854  0.00  0.00    +0.000 A 
ATOM     23  C   UNL     1       9.287  13.370  18.180  0.00  0.00    +0.000 A 
ENDBRANCH   5  18
BRANCH  14  24
ATOM     24  C   UNL     1       6.736  14.146  24.374  0.00  0.00    +0.000 A 
ATOM     25  C   UNL     1       7.134  12.851  24.714  0.00  0.00    +0.000 A 
ATOM     26  C   UNL     1       8.218  12.680  25.579  0.00  0.00    +0.000 A 
ATOM     27  C   UNL     1       8.887  13.788  26.109  0.00  0.00    +0.000 A 
ATOM     28  C   UNL     1       8.431  15.074  25.837  0.00  0.00    +0.000 A 
ATOM     29  C   UNL     1       7.336  15.251  25.000  0.00  0.00    +0.000 A 
ENDBRANCH  14  24
TORSDOF 2
ENDMDL
