MODEL 1
REMARK VINA RESULT:      -9.5      0.000      0.000
REMARK  Name = 
REMARK  5 active torsions:
REMARK  status: ('A' for Active; 'I' for Inactive)
REMARK    1  A    between atoms: N_3  and  N_4
REMARK    2  A    between atoms: C_5  and  C_6
REMARK    3  A    between atoms: C_5  and  C_12
REMARK    4  A    between atoms: C_19  and  C_21
REMARK    5  A    between atoms: C_22  and  C_23
REMARK                            x       y       z     vdW  Elec       q    Type
REMARK                         _______ _______ _______ _____ _____    ______ ____
ROOT
ATOM      1  N   UNL     1       1.785   9.755  17.548  0.00  0.00    +0.000 NA
ATOM      2  C   UNL     1       1.653   9.023  18.598  0.00  0.00    +0.000 C 
ATOM      3  N   UNL     1       2.164   7.757  18.713  0.00  0.00    +0.000 N 
ATOM      4  N   UNL     1       0.935   9.589  19.609  0.00  0.00    +0.000 N 
ATOM      5  C   UNL     1       0.712   9.018  20.839  0.00  0.00    +0.000 C 
ATOM      6  O   UNL     1       1.022   7.862  21.123  0.00  0.00    +0.000 OA
ATOM      7  H   UNL     1       2.342   9.162  16.907  0.00  0.00    +0.000 HD
ATOM      8  H   UNL     1       1.928   7.273  19.585  0.00  0.00    +0.000 HD
ATOM      9  H   UNL     1       0.651  10.532  19.406  0.00  0.00    +0.000 HD
ENDROOT
BRANCH   3  10
ATOM     10  N   UNL     1       3.157   7.244  17.933  0.00  0.00    +0.000 NA
ATOM     11  C   UNL     1       3.471   5.980  18.065  0.00  0.00    +0.000 C 
BRANCH  11  12
ATOM     12  C   UNL     1       2.683   4.956  18.846  0.00  0.00    +0.000 A 
ATOM     13  C   UNL     1       2.875   4.814  20.227  0.00  0.00    +0.000 A 
ATOM     14  C   UNL     1       2.137   3.885  20.961  0.00  0.00    +0.000 A 
ATOM     15  C   UNL     1       1.146   3.138  20.337  0.00  0.00    +0.000 A 
ATOM     16  C   UNL     1       0.912   3.295  18.972  0.00  0.00    +0.000 A 
ATOM     17  C   UNL     1       1.696   4.175  18.223  0.00  0.00    +0.000 A 
ENDBRANCH  11  12
BRANCH  11  18
ATOM     18  C   UNL     1       4.706   5.526  17.334  0.00  0.00    +0.000 A 
ATOM     19  C   UNL     1       5.876   6.295  17.406  0.00  0.00    +0.000 A 
ATOM     20  C   UNL     1       7.022   5.899  16.709  0.00  0.00    +0.000 A 
ATOM     21  C   UNL     1       7.008   4.733  15.943  0.00  0.00    +0.000 A 
ATOM     22  C   UNL     1       5.851   3.959  15.876  0.00  0.00    +0.000 A 
ATOM     23  C   UNL     1       4.700   4.359  16.557  0.00  0.00    +0.000 A 
ENDBRANCH  11  18
ENDBRANCH   3  10
BRANCH   5  24
ATOM     24  C   UNL     1       0.027   9.914  21.803  0.00  0.00    +0.000 C 
ATOM     25  C   UNL     1      -0.374  11.129  21.393  0.00  0.00    +0.000 C 
BRANCH  25  26
ATOM     26  C   UNL     1      -1.013  12.144  22.242  0.00  0.00    +0.000 A 
ATOM     27  C   UNL     1      -0.418  13.411  22.328  0.00  0.00    +0.000 A 
ATOM     28  C   UNL     1      -0.987  14.416  23.115  0.00  0.00    +0.000 A 
ATOM     29  C   UNL     1      -2.164  14.169  23.815  0.00  0.00    +0.000 A 
ATOM     30  C   UNL     1      -2.777  12.923  23.720  0.00  0.00    +0.000 A 
ATOM     31  C   UNL     1      -2.210  11.916  22.933  0.00  0.00    +0.000 A 
ENDBRANCH  25  26
ENDBRANCH   5  24
TORSDOF 5
ENDMDL
MODEL 2
REMARK VINA RESULT:      -9.5      2.417      4.668
REMARK  Name = 
REMARK  5 active torsions:
REMARK  status: ('A' for Active; 'I' for Inactive)
REMARK    1  A    between atoms: N_3  and  N_4
REMARK    2  A    between atoms: C_5  and  C_6
REMARK    3  A    between atoms: C_5  and  C_12
REMARK    4  A    between atoms: C_19  and  C_21
REMARK    5  A    between atoms: C_22  and  C_23
REMARK                            x       y       z     vdW  Elec       q    Type
REMARK                         _______ _______ _______ _____ _____    ______ ____
ROOT
ATOM      1  N   UNL     1       1.768   3.728  17.159  0.00  0.00    +0.000 NA
ATOM      2  C   UNL     1       2.571   4.525  17.773  0.00  0.00    +0.000 C 
ATOM      3  N   UNL     1       3.901   4.650  17.468  0.00  0.00    +0.000 N 
ATOM      4  N   UNL     1       2.010   5.242  18.787  0.00  0.00    +0.000 N 
ATOM      5  C   UNL     1       2.658   6.189  19.543  0.00  0.00    +0.000 C 
ATOM      6  O   UNL     1       3.867   6.404  19.480  0.00  0.00    +0.000 OA
ATOM      7  H   UNL     1       2.370   3.281  16.444  0.00  0.00    +0.000 HD
ATOM      8  H   UNL     1       4.428   5.279  18.081  0.00  0.00    +0.000 HD
ATOM      9  H   UNL     1       1.021   5.081  18.879  0.00  0.00    +0.000 HD
ENDROOT
BRANCH   3  10
ATOM     10  N   UNL     1       4.471   4.259  16.293  0.00  0.00    +0.000 NA
ATOM     11  C   UNL     1       5.641   4.747  15.969  0.00  0.00    +0.000 C 
BRANCH  11  12
ATOM     12  C   UNL     1       6.546   5.539  16.882  0.00  0.00    +0.000 A 
ATOM     13  C   UNL     1       6.632   6.933  16.760  0.00  0.00    +0.000 A 
ATOM     14  C   UNL     1       7.450   7.677  17.612  0.00  0.00    +0.000 A 
ATOM     15  C   UNL     1       8.134   7.045  18.643  0.00  0.00    +0.000 A 
ATOM     16  C   UNL     1       8.028   5.664  18.805  0.00  0.00    +0.000 A 
ATOM     17  C   UNL     1       7.265   4.910  17.911  0.00  0.00    +0.000 A 
ENDBRANCH  11  12
BRANCH  11  18
ATOM     18  C   UNL     1       6.120   4.444  14.575  0.00  0.00    +0.000 A 
ATOM     19  C   UNL     1       7.292   5.048  14.098  0.00  0.00    +0.000 A 
ATOM     20  C   UNL     1       7.733   4.798  12.795  0.00  0.00    +0.000 A 
ATOM     21  C   UNL     1       7.012   3.939  11.964  0.00  0.00    +0.000 A 
ATOM     22  C   UNL     1       5.852   3.327  12.436  0.00  0.00    +0.000 A 
ATOM     23  C   UNL     1       5.399   3.587  13.731  0.00  0.00    +0.000 A 
ENDBRANCH  11  18
ENDBRANCH   3  10
BRANCH   5  24
ATOM     24  C   UNL     1       1.771   6.923  20.479  0.00  0.00    +0.000 C 
ATOM     25  C   UNL     1       1.492   8.215  20.235  0.00  0.00    +0.000 C 
BRANCH  25  26
ATOM     26  C   UNL     1       0.679   9.084  21.096  0.00  0.00    +0.000 A 
ATOM     27  C   UNL     1       0.595   8.778  22.463  0.00  0.00    +0.000 A 
ATOM     28  C   UNL     1      -0.159   9.574  23.329  0.00  0.00    +0.000 A 
ATOM     29  C   UNL     1      -0.826  10.694  22.841  0.00  0.00    +0.000 A 
ATOM     30  C   UNL     1      -0.732  11.023  21.492  0.00  0.00    +0.000 A 
ATOM     31  C   UNL     1       0.021  10.227  20.623  0.00  0.00    +0.000 A 
ENDBRANCH  25  26
ENDBRANCH   5  24
TORSDOF 5
ENDMDL
MODEL 3
REMARK VINA RESULT:      -9.4      0.555      1.407
REMARK  Name = 
REMARK  5 active torsions:
REMARK  status: ('A' for Active; 'I' for Inactive)
REMARK    1  A    between atoms: N_3  and  N_4
REMARK    2  A    between atoms: C_5  and  C_6
REMARK    3  A    between atoms: C_5  and  C_12
REMARK    4  A    between atoms: C_19  and  C_21
REMARK    5  A    between atoms: C_22  and  C_23
REMARK                            x       y       z     vdW  Elec       q    Type
REMARK                         _______ _______ _______ _____ _____    ______ ____
ROOT
ATOM      1  N   UNL     1       1.851   9.822  17.602  0.00  0.00    +0.000 NA
ATOM      2  C   UNL     1       1.673   9.094  18.649  0.00  0.00    +0.000 C 
ATOM      3  N   UNL     1       2.185   7.830  18.793  0.00  0.00    +0.000 N 
ATOM      4  N   UNL     1       0.907   9.660  19.623  0.00  0.00    +0.000 N 
ATOM      5  C   UNL     1       0.629   9.094  20.844  0.00  0.00    +0.000 C 
ATOM      6  O   UNL     1       0.931   7.941  21.148  0.00  0.00    +0.000 OA
ATOM      7  H   UNL     1       2.440   9.228  16.991  0.00  0.00    +0.000 HD
ATOM      8  H   UNL     1       1.911   7.349  19.656  0.00  0.00    +0.000 HD
ATOM      9  H   UNL     1       0.628  10.601  19.402  0.00  0.00    +0.000 HD
ENDROOT
BRANCH   3  10
ATOM     10  N   UNL     1       3.215   7.319  18.063  0.00  0.00    +0.000 NA
ATOM     11  C   UNL     1       3.480   6.041  18.158  0.00  0.00    +0.000 C 
BRANCH  11  12
ATOM     12  C   UNL     1       2.606   5.010  18.832  0.00  0.00    +0.000 A 
ATOM     13  C   UNL     1       1.872   4.093  18.069  0.00  0.00    +0.000 A 
ATOM     14  C   UNL     1       1.078   3.123  18.683  0.00  0.00    +0.000 A 
ATOM     15  C   UNL     1       1.066   3.012  20.068  0.00  0.00    +0.000 A 
ATOM     16  C   UNL     1       1.823   3.890  20.843  0.00  0.00    +0.000 A 
ATOM     17  C   UNL     1       2.564   4.904  20.232  0.00  0.00    +0.000 A 
ENDBRANCH  11  12
BRANCH  11  18
ATOM     18  C   UNL     1       4.750   5.578  17.496  0.00  0.00    +0.000 A 
ATOM     19  C   UNL     1       5.793   5.064  18.280  0.00  0.00    +0.000 A 
ATOM     20  C   UNL     1       6.988   4.656  17.681  0.00  0.00    +0.000 A 
ATOM     21  C   UNL     1       7.147   4.752  16.298  0.00  0.00    +0.000 A 
ATOM     22  C   UNL     1       6.110   5.252  15.513  0.00  0.00    +0.000 A 
ATOM     23  C   UNL     1       4.921   5.675  16.108  0.00  0.00    +0.000 A 
ENDBRANCH  11  18
ENDBRANCH   3  10
BRANCH   5  24
ATOM     24  C   UNL     1      -0.105   9.991  21.770  0.00  0.00    +0.000 C 
ATOM     25  C   UNL     1      -0.361  11.253  21.389  0.00  0.00    +0.000 C 
BRANCH  25  26
ATOM     26  C   UNL     1      -1.026  12.270  22.215  0.00  0.00    +0.000 A 
ATOM     27  C   UNL     1      -2.234  11.932  22.843  0.00  0.00    +0.000 A 
ATOM     28  C   UNL     1      -2.907  12.858  23.646  0.00  0.00    +0.000 A 
ATOM     29  C   UNL     1      -2.371  14.128  23.841  0.00  0.00    +0.000 A 
ATOM     30  C   UNL     1      -1.161  14.468  23.243  0.00  0.00    +0.000 A 
ATOM     31  C   UNL     1      -0.487  13.544  22.439  0.00  0.00    +0.000 A 
ENDBRANCH  25  26
ENDBRANCH   5  24
TORSDOF 5
ENDMDL
MODEL 4
REMARK VINA RESULT:      -9.4      6.207      8.278
REMARK  Name = 
REMARK  5 active torsions:
REMARK  status: ('A' for Active; 'I' for Inactive)
REMARK    1  A    between atoms: N_3  and  N_4
REMARK    2  A    between atoms: C_5  and  C_6
REMARK    3  A    between atoms: C_5  and  C_12
REMARK    4  A    between atoms: C_19  and  C_21
REMARK    5  A    between atoms: C_22  and  C_23
REMARK                            x       y       z     vdW  Elec       q    Type
REMARK                         _______ _______ _______ _____ _____    ______ ____
ROOT
ATOM      1  N   UNL     1       8.049   5.540  20.029  0.00  0.00    +0.000 NA
ATOM      2  C   UNL     1       7.678   6.336  19.088  0.00  0.00    +0.000 C 
ATOM      3  N   UNL     1       6.607   6.095  18.267  0.00  0.00    +0.000 N 
ATOM      4  N   UNL     1       8.446   7.451  18.938  0.00  0.00    +0.000 N 
ATOM      5  C   UNL     1       8.209   8.463  18.040  0.00  0.00    +0.000 C 
ATOM      6  O   UNL     1       7.346   8.413  17.165  0.00  0.00    +0.000 OA
ATOM      7  H   UNL     1       7.360   4.768  19.981  0.00  0.00    +0.000 HD
ATOM      8  H   UNL     1       6.468   6.789  17.525  0.00  0.00    +0.000 HD
ATOM      9  H   UNL     1       9.174   7.519  19.629  0.00  0.00    +0.000 HD
ENDROOT
BRANCH   3  10
ATOM     10  N   UNL     1       5.597   5.222  18.538  0.00  0.00    +0.000 NA
ATOM     11  C   UNL     1       5.042   4.574  17.546  0.00  0.00    +0.000 C 
BRANCH  11  12
ATOM     12  C   UNL     1       5.563   4.523  16.129  0.00  0.00    +0.000 A 
ATOM     13  C   UNL     1       6.912   4.790  15.859  0.00  0.00    +0.000 A 
ATOM     14  C   UNL     1       7.408   4.725  14.555  0.00  0.00    +0.000 A 
ATOM     15  C   UNL     1       6.577   4.321  13.517  0.00  0.00    +0.000 A 
ATOM     16  C   UNL     1       5.242   4.012  13.774  0.00  0.00    +0.000 A 
ATOM     17  C   UNL     1       4.728   4.142  15.067  0.00  0.00    +0.000 A 
ENDBRANCH  11  12
BRANCH  11  18
ATOM     18  C   UNL     1       3.802   3.789  17.880  0.00  0.00    +0.000 A 
ATOM     19  C   UNL     1       3.908   2.428  18.197  0.00  0.00    +0.000 A 
ATOM     20  C   UNL     1       2.762   1.680  18.482  0.00  0.00    +0.000 A 
ATOM     21  C   UNL     1       1.506   2.287  18.459  0.00  0.00    +0.000 A 
ATOM     22  C   UNL     1       1.395   3.643  18.155  0.00  0.00    +0.000 A 
ATOM     23  C   UNL     1       2.535   4.390  17.854  0.00  0.00    +0.000 A 
ENDBRANCH  11  18
ENDBRANCH   3  10
BRANCH   5  24
ATOM     24  C   UNL     1       9.115   9.628  18.191  0.00  0.00    +0.000 C 
ATOM     25  C   UNL     1       9.206  10.232  19.388  0.00  0.00    +0.000 C 
BRANCH  25  26
ATOM     26  C   UNL     1      10.014  11.424  19.677  0.00  0.00    +0.000 A 
ATOM     27  C   UNL     1      11.284  11.527  19.091  0.00  0.00    +0.000 A 
ATOM     28  C   UNL     1      12.092  12.642  19.326  0.00  0.00    +0.000 A 
ATOM     29  C   UNL     1      11.634  13.674  20.139  0.00  0.00    +0.000 A 
ATOM     30  C   UNL     1      10.366  13.596  20.709  0.00  0.00    +0.000 A 
ATOM     31  C   UNL     1       9.556  12.481  20.476  0.00  0.00    +0.000 A 
ENDBRANCH  25  26
ENDBRANCH   5  24
TORSDOF 5
ENDMDL
MODEL 5
REMARK VINA RESULT:      -9.4      2.432      4.725
REMARK  Name = 
REMARK  5 active torsions:
REMARK  status: ('A' for Active; 'I' for Inactive)
REMARK    1  A    between atoms: N_3  and  N_4
REMARK    2  A    between atoms: C_5  and  C_6
REMARK    3  A    between atoms: C_5  and  C_12
REMARK    4  A    between atoms: C_19  and  C_21
REMARK    5  A    between atoms: C_22  and  C_23
REMARK                            x       y       z     vdW  Elec       q    Type
REMARK                         _______ _______ _______ _____ _____    ______ ____
ROOT
ATOM      1  N   UNL     1       1.722   3.695  17.140  0.00  0.00    +0.000 NA
ATOM      2  C   UNL     1       2.533   4.477  17.762  0.00  0.00    +0.000 C 
ATOM      3  N   UNL     1       3.863   4.597  17.453  0.00  0.00    +0.000 N 
ATOM      4  N   UNL     1       1.981   5.181  18.790  0.00  0.00    +0.000 N 
ATOM      5  C   UNL     1       2.638   6.113  19.557  0.00  0.00    +0.000 C 
ATOM      6  O   UNL     1       3.849   6.320  19.493  0.00  0.00    +0.000 OA
ATOM      7  H   UNL     1       2.318   3.254  16.416  0.00  0.00    +0.000 HD
ATOM      8  H   UNL     1       4.397   5.214  18.074  0.00  0.00    +0.000 HD
ATOM      9  H   UNL     1       0.992   5.026  18.883  0.00  0.00    +0.000 HD
ENDROOT
BRANCH   3  10
ATOM     10  N   UNL     1       4.425   4.221  16.271  0.00  0.00    +0.000 NA
ATOM     11  C   UNL     1       5.589   4.719  15.941  0.00  0.00    +0.000 C 
BRANCH  11  12
ATOM     12  C   UNL     1       6.497   5.510  16.853  0.00  0.00    +0.000 A 
ATOM     13  C   UNL     1       6.560   6.907  16.754  0.00  0.00    +0.000 A 
ATOM     14  C   UNL     1       7.379   7.649  17.606  0.00  0.00    +0.000 A 
ATOM     15  C   UNL     1       8.090   7.010  18.615  0.00  0.00    +0.000 A 
ATOM     16  C   UNL     1       8.007   5.625  18.754  0.00  0.00    +0.000 A 
ATOM     17  C   UNL     1       7.241   4.875  17.859  0.00  0.00    +0.000 A 
ENDBRANCH  11  12
BRANCH  11  18
ATOM     18  C   UNL     1       6.058   4.432  14.540  0.00  0.00    +0.000 A 
ATOM     19  C   UNL     1       5.291   3.605  13.707  0.00  0.00    +0.000 A 
ATOM     20  C   UNL     1       5.729   3.308  12.414  0.00  0.00    +0.000 A 
ATOM     21  C   UNL     1       6.929   3.839  11.941  0.00  0.00    +0.000 A 
ATOM     22  C   UNL     1       7.691   4.670  12.760  0.00  0.00    +0.000 A 
ATOM     23  C   UNL     1       7.266   4.957  14.058  0.00  0.00    +0.000 A 
ENDBRANCH  11  18
ENDBRANCH   3  10
BRANCH   5  24
ATOM     24  C   UNL     1       1.760   6.838  20.508  0.00  0.00    +0.000 C 
ATOM     25  C   UNL     1       1.545   8.152  20.325  0.00  0.00    +0.000 C 
BRANCH  25  26
ATOM     26  C   UNL     1       0.748   9.012  21.210  0.00  0.00    +0.000 A 
ATOM     27  C   UNL     1       0.014  10.060  20.635  0.00  0.00    +0.000 A 
ATOM     28  C   UNL     1      -0.767  10.905  21.428  0.00  0.00    +0.000 A 
ATOM     29  C   UNL     1      -0.832  10.704  22.804  0.00  0.00    +0.000 A 
ATOM     30  C   UNL     1      -0.127   9.654  23.384  0.00  0.00    +0.000 A 
ATOM     31  C   UNL     1       0.655   8.807  22.592  0.00  0.00    +0.000 A 
ENDBRANCH  25  26
ENDBRANCH   5  24
TORSDOF 5
ENDMDL
MODEL 6
REMARK VINA RESULT:      -9.3      0.563      1.259
REMARK  Name = 
REMARK  5 active torsions:
REMARK  status: ('A' for Active; 'I' for Inactive)
REMARK    1  A    between atoms: N_3  and  N_4
REMARK    2  A    between atoms: C_5  and  C_6
REMARK    3  A    between atoms: C_5  and  C_12
REMARK    4  A    between atoms: C_19  and  C_21
REMARK    5  A    between atoms: C_22  and  C_23
REMARK                            x       y       z     vdW  Elec       q    Type
REMARK                         _______ _______ _______ _____ _____    ______ ____
ROOT
ATOM      1  N   UNL     1       1.817   9.667  17.455  0.00  0.00    +0.000 NA
ATOM      2  C   UNL     1       1.649   9.012  18.550  0.00  0.00    +0.000 C 
ATOM      3  N   UNL     1       2.225   7.794  18.804  0.00  0.00    +0.000 N 
ATOM      4  N   UNL     1       0.824   9.606  19.458  0.00  0.00    +0.000 N 
ATOM      5  C   UNL     1       0.542   9.119  20.712  0.00  0.00    +0.000 C 
ATOM      6  O   UNL     1       0.897   8.011  21.111  0.00  0.00    +0.000 OA
ATOM      7  H   UNL     1       2.456   9.064  16.907  0.00  0.00    +0.000 HD
ATOM      8  H   UNL     1       1.952   7.365  19.694  0.00  0.00    +0.000 HD
ATOM      9  H   UNL     1       0.501  10.509  19.159  0.00  0.00    +0.000 HD
ENDROOT
BRANCH   3  10
ATOM     10  N   UNL     1       3.302   7.288  18.142  0.00  0.00    +0.000 NA
ATOM     11  C   UNL     1       3.572   6.013  18.260  0.00  0.00    +0.000 C 
BRANCH  11  12
ATOM     12  C   UNL     1       2.667   4.978  18.885  0.00  0.00    +0.000 A 
ATOM     13  C   UNL     1       2.533   4.901  20.278  0.00  0.00    +0.000 A 
ATOM     14  C   UNL     1       1.683   3.961  20.864  0.00  0.00    +0.000 A 
ATOM     15  C   UNL     1       0.902   3.138  20.063  0.00  0.00    +0.000 A 
ATOM     16  C   UNL     1       0.991   3.229  18.675  0.00  0.00    +0.000 A 
ATOM     17  C   UNL     1       1.892   4.122  18.088  0.00  0.00    +0.000 A 
ENDBRANCH  11  12
BRANCH  11  18
ATOM     18  C   UNL     1       4.884   5.558  17.680  0.00  0.00    +0.000 A 
ATOM     19  C   UNL     1       4.993   5.337  16.300  0.00  0.00    +0.000 A 
ATOM     20  C   UNL     1       6.198   4.888  15.752  0.00  0.00    +0.000 A 
ATOM     21  C   UNL     1       7.302   4.663  16.576  0.00  0.00    +0.000 A 
ATOM     22  C   UNL     1       7.203   4.892  17.947  0.00  0.00    +0.000 A 
ATOM     23  C   UNL     1       5.997   5.325  18.501  0.00  0.00    +0.000 A 
ENDBRANCH  11  18
ENDBRANCH   3  10
BRANCH   5  24
ATOM     24  C   UNL     1      -0.267  10.039  21.548  0.00  0.00    +0.000 C 
ATOM     25  C   UNL     1      -0.074  11.364  21.432  0.00  0.00    +0.000 C 
BRANCH  25  26
ATOM     26  C   UNL     1      -0.756  12.393  22.228  0.00  0.00    +0.000 A 
ATOM     27  C   UNL     1      -1.915  12.032  22.931  0.00  0.00    +0.000 A 
ATOM     28  C   UNL     1      -2.600  12.969  23.710  0.00  0.00    +0.000 A 
ATOM     29  C   UNL     1      -2.126  14.274  23.805  0.00  0.00    +0.000 A 
ATOM     30  C   UNL     1      -0.964  14.640  23.131  0.00  0.00    +0.000 A 
ATOM     31  C   UNL     1      -0.277  13.704  22.352  0.00  0.00    +0.000 A 
ENDBRANCH  25  26
ENDBRANCH   5  24
TORSDOF 5
ENDMDL
MODEL 7
REMARK VINA RESULT:      -9.3      6.295      8.274
REMARK  Name = 
REMARK  5 active torsions:
REMARK  status: ('A' for Active; 'I' for Inactive)
REMARK    1  A    between atoms: N_3  and  N_4
REMARK    2  A    between atoms: C_5  and  C_6
REMARK    3  A    between atoms: C_5  and  C_12
REMARK    4  A    between atoms: C_19  and  C_21
REMARK    5  A    between atoms: C_22  and  C_23
REMARK                            x       y       z     vdW  Elec       q    Type
REMARK                         _______ _______ _______ _____ _____    ______ ____
ROOT
ATOM      1  N   UNL     1       8.122   5.528  20.181  0.00  0.00    +0.000 NA
ATOM      2  C   UNL     1       7.721   6.292  19.226  0.00  0.00    +0.000 C 
ATOM      3  N   UNL     1       6.643   6.010  18.428  0.00  0.00    +0.000 N 
ATOM      4  N   UNL     1       8.466   7.417  19.035  0.00  0.00    +0.000 N 
ATOM      5  C   UNL     1       8.196   8.400  18.114  0.00  0.00    +0.000 C 
ATOM      6  O   UNL     1       7.320   8.311  17.255  0.00  0.00    +0.000 OA
ATOM      7  H   UNL     1       7.446   4.742  20.164  0.00  0.00    +0.000 HD
ATOM      8  H   UNL     1       6.479   6.682  17.671  0.00  0.00    +0.000 HD
ATOM      9  H   UNL     1       9.203   7.517  19.712  0.00  0.00    +0.000 HD
ENDROOT
BRANCH   3  10
ATOM     10  N   UNL     1       5.654   5.126  18.738  0.00  0.00    +0.000 NA
ATOM     11  C   UNL     1       4.998   4.549  17.763  0.00  0.00    +0.000 C 
BRANCH  11  12
ATOM     12  C   UNL     1       5.379   4.590  16.303  0.00  0.00    +0.000 A 
ATOM     13  C   UNL     1       5.848   3.437  15.659  0.00  0.00    +0.000 A 
ATOM     14  C   UNL     1       6.183   3.460  14.304  0.00  0.00    +0.000 A 
ATOM     15  C   UNL     1       5.983   4.616  13.559  0.00  0.00    +0.000 A 
ATOM     16  C   UNL     1       5.478   5.761  14.174  0.00  0.00    +0.000 A 
ATOM     17  C   UNL     1       5.207   5.759  15.544  0.00  0.00    +0.000 A 
ENDBRANCH  11  12
BRANCH  11  18
ATOM     18  C   UNL     1       3.787   3.749  18.164  0.00  0.00    +0.000 A 
ATOM     19  C   UNL     1       2.511   4.185  17.779  0.00  0.00    +0.000 A 
ATOM     20  C   UNL     1       1.376   3.467  18.168  0.00  0.00    +0.000 A 
ATOM     21  C   UNL     1       1.508   2.309  18.935  0.00  0.00    +0.000 A 
ATOM     22  C   UNL     1       2.774   1.866  19.311  0.00  0.00    +0.000 A 
ATOM     23  C   UNL     1       3.910   2.588  18.940  0.00  0.00    +0.000 A 
ENDBRANCH  11  18
ENDBRANCH   3  10
BRANCH   5  24
ATOM     24  C   UNL     1       9.082   9.585  18.221  0.00  0.00    +0.000 C 
ATOM     25  C   UNL     1       9.250  10.168  19.421  0.00  0.00    +0.000 C 
BRANCH  25  26
ATOM     26  C   UNL     1      10.049  11.374  19.673  0.00  0.00    +0.000 A 
ATOM     27  C   UNL     1      11.283  11.506  19.019  0.00  0.00    +0.000 A 
ATOM     28  C   UNL     1      12.080  12.636  19.217  0.00  0.00    +0.000 A 
ATOM     29  C   UNL     1      11.647  13.654  20.061  0.00  0.00    +0.000 A 
ATOM     30  C   UNL     1      10.414  13.547  20.699  0.00  0.00    +0.000 A 
ATOM     31  C   UNL     1       9.614  12.417  20.502  0.00  0.00    +0.000 A 
ENDBRANCH  25  26
ENDBRANCH   5  24
TORSDOF 5
ENDMDL
MODEL 8
REMARK VINA RESULT:      -9.3      6.272      8.241
REMARK  Name = 
REMARK  5 active torsions:
REMARK  status: ('A' for Active; 'I' for Inactive)
REMARK    1  A    between atoms: N_3  and  N_4
REMARK    2  A    between atoms: C_5  and  C_6
REMARK    3  A    between atoms: C_5  and  C_12
REMARK    4  A    between atoms: C_19  and  C_21
REMARK    5  A    between atoms: C_22  and  C_23
REMARK                            x       y       z     vdW  Elec       q    Type
REMARK                         _______ _______ _______ _____ _____    ______ ____
ROOT
ATOM      1  N   UNL     1       8.025   5.393  20.294  0.00  0.00    +0.000 NA
ATOM      2  C   UNL     1       7.673   6.132  19.301  0.00  0.00    +0.000 C 
ATOM      3  N   UNL     1       6.622   5.842  18.471  0.00  0.00    +0.000 N 
ATOM      4  N   UNL     1       8.443   7.239  19.104  0.00  0.00    +0.000 N 
ATOM      5  C   UNL     1       8.225   8.197  18.144  0.00  0.00    +0.000 C 
ATOM      6  O   UNL     1       7.382   8.094  17.254  0.00  0.00    +0.000 OA
ATOM      7  H   UNL     1       7.338   4.618  20.275  0.00  0.00    +0.000 HD
ATOM      8  H   UNL     1       6.499   6.491  17.687  0.00  0.00    +0.000 HD
ATOM      9  H   UNL     1       9.155   7.349  19.806  0.00  0.00    +0.000 HD
ENDROOT
BRANCH   3  10
ATOM     10  N   UNL     1       5.608   4.983  18.769  0.00  0.00    +0.000 NA
ATOM     11  C   UNL     1       4.911   4.467  17.788  0.00  0.00    +0.000 C 
BRANCH  11  12
ATOM     12  C   UNL     1       5.263   4.551  16.322  0.00  0.00    +0.000 A 
ATOM     13  C   UNL     1       5.143   5.764  15.631  0.00  0.00    +0.000 A 
ATOM     14  C   UNL     1       5.485   5.857  14.281  0.00  0.00    +0.000 A 
ATOM     15  C   UNL     1       6.021   4.756  13.625  0.00  0.00    +0.000 A 
ATOM     16  C   UNL     1       6.185   3.551  14.307  0.00  0.00    +0.000 A 
ATOM     17  C   UNL     1       5.780   3.439  15.639  0.00  0.00    +0.000 A 
ENDBRANCH  11  12
BRANCH  11  18
ATOM     18  C   UNL     1       3.680   3.697  18.185  0.00  0.00    +0.000 A 
ATOM     19  C   UNL     1       2.413   4.191  17.843  0.00  0.00    +0.000 A 
ATOM     20  C   UNL     1       1.261   3.501  18.229  0.00  0.00    +0.000 A 
ATOM     21  C   UNL     1       1.366   2.312  18.952  0.00  0.00    +0.000 A 
ATOM     22  C   UNL     1       2.623   1.811  19.286  0.00  0.00    +0.000 A 
ATOM     23  C   UNL     1       3.776   2.505  18.917  0.00  0.00    +0.000 A 
ENDBRANCH  11  18
ENDBRANCH   3  10
BRANCH   5  24
ATOM     24  C   UNL     1       9.125   9.372  18.248  0.00  0.00    +0.000 C 
ATOM     25  C   UNL     1       9.132  10.089  19.385  0.00  0.00    +0.000 C 
BRANCH  25  26
ATOM     26  C   UNL     1       9.925  11.304  19.616  0.00  0.00    +0.000 A 
ATOM     27  C   UNL     1       9.563  12.142  20.681  0.00  0.00    +0.000 A 
ATOM     28  C   UNL     1      10.287  13.307  20.952  0.00  0.00    +0.000 A 
ATOM     29  C   UNL     1      11.388  13.639  20.169  0.00  0.00    +0.000 A 
ATOM     30  C   UNL     1      11.772  12.804  19.124  0.00  0.00    +0.000 A 
ATOM     31  C   UNL     1      11.050  11.639  18.851  0.00  0.00    +0.000 A 
ENDBRANCH  25  26
ENDBRANCH   5  24
TORSDOF 5
ENDMDL
MODEL 9
REMARK VINA RESULT:      -9.3      6.226      8.423
REMARK  Name = 
REMARK  5 active torsions:
REMARK  status: ('A' for Active; 'I' for Inactive)
REMARK    1  A    between atoms: N_3  and  N_4
REMARK    2  A    between atoms: C_5  and  C_6
REMARK    3  A    between atoms: C_5  and  C_12
REMARK    4  A    between atoms: C_19  and  C_21
REMARK    5  A    between atoms: C_22  and  C_23
REMARK                            x       y       z     vdW  Elec       q    Type
REMARK                         _______ _______ _______ _____ _____    ______ ____
ROOT
ATOM      1  N   UNL     1       8.031   5.423  20.077  0.00  0.00    +0.000 NA
ATOM      2  C   UNL     1       7.667   6.261  19.170  0.00  0.00    +0.000 C 
ATOM      3  N   UNL     1       6.579   6.079  18.357  0.00  0.00    +0.000 N 
ATOM      4  N   UNL     1       8.464   7.360  19.046  0.00  0.00    +0.000 N 
ATOM      5  C   UNL     1       8.242   8.409  18.187  0.00  0.00    +0.000 C 
ATOM      6  O   UNL     1       7.365   8.412  17.324  0.00  0.00    +0.000 OA
ATOM      7  H   UNL     1       7.320   4.673  20.012  0.00  0.00    +0.000 HD
ATOM      8  H   UNL     1       6.449   6.801  17.641  0.00  0.00    +0.000 HD
ATOM      9  H   UNL     1       9.203   7.384  19.727  0.00  0.00    +0.000 HD
ENDROOT
BRANCH   3  10
ATOM     10  N   UNL     1       5.550   5.224  18.613  0.00  0.00    +0.000 NA
ATOM     11  C   UNL     1       5.025   4.555  17.619  0.00  0.00    +0.000 C 
BRANCH  11  12
ATOM     12  C   UNL     1       5.598   4.459  16.225  0.00  0.00    +0.000 A 
ATOM     13  C   UNL     1       4.773   4.137  15.139  0.00  0.00    +0.000 A 
ATOM     14  C   UNL     1       5.288   4.067  13.844  0.00  0.00    +0.000 A 
ATOM     15  C   UNL     1       6.620   4.388  13.609  0.00  0.00    +0.000 A 
ATOM     16  C   UNL     1       7.446   4.749  14.672  0.00  0.00    +0.000 A 
ATOM     17  C   UNL     1       6.948   4.754  15.977  0.00  0.00    +0.000 A 
ENDBRANCH  11  12
BRANCH  11  18
ATOM     18  C   UNL     1       3.764   3.792  17.927  0.00  0.00    +0.000 A 
ATOM     19  C   UNL     1       3.839   2.429  18.245  0.00  0.00    +0.000 A 
ATOM     20  C   UNL     1       2.673   1.702  18.505  0.00  0.00    +0.000 A 
ATOM     21  C   UNL     1       1.429   2.332  18.458  0.00  0.00    +0.000 A 
ATOM     22  C   UNL     1       1.350   3.690  18.154  0.00  0.00    +0.000 A 
ATOM     23  C   UNL     1       2.509   4.416  17.876  0.00  0.00    +0.000 A 
ENDBRANCH  11  18
ENDBRANCH   3  10
BRANCH   5  24
ATOM     24  C   UNL     1       9.182   9.543  18.364  0.00  0.00    +0.000 C 
ATOM     25  C   UNL     1       8.824  10.761  17.925  0.00  0.00    +0.000 C 
BRANCH  25  26
ATOM     26  C   UNL     1       9.665  11.964  17.980  0.00  0.00    +0.000 A 
ATOM     27  C   UNL     1      11.059  11.803  17.957  0.00  0.00    +0.000 A 
ATOM     28  C   UNL     1      11.907  12.914  18.000  0.00  0.00    +0.000 A 
ATOM     29  C   UNL     1      11.371  14.197  18.053  0.00  0.00    +0.000 A 
ATOM     30  C   UNL     1       9.990  14.371  18.053  0.00  0.00    +0.000 A 
ATOM     31  C   UNL     1       9.140  13.262  18.011  0.00  0.00    +0.000 A 
ENDBRANCH  25  26
ENDBRANCH   5  24
TORSDOF 5
ENDMDL
