MODEL 1
REMARK VINA RESULT:      -7.9      0.000      0.000
REMARK  Name = 
REMARK  3 active torsions:
REMARK  status: ('A' for Active; 'I' for Inactive)
REMARK    1  A    between atoms: C_1  and  C_2
REMARK    2  A    between atoms: C_5  and  C_6
REMARK    3  A    between atoms: C_12  and  C_13
REMARK                            x       y       z     vdW  Elec       q    Type
REMARK                         _______ _______ _______ _____ _____    ______ ____
ROOT
ATOM      1  C   UNL     1       6.770   4.588  14.157  0.00  0.00    +0.000 C 
ATOM      2  C   UNL     1       6.393   4.813  15.427  0.00  0.00    +0.000 A 
ATOM      3  S   UNL     1       7.447   5.748  16.498  0.00  0.00    +0.000 S 
ATOM      4  C   UNL     1       6.379   5.458  17.804  0.00  0.00    +0.000 A 
ATOM      5  N   UNL     1       6.380   5.785  19.061  0.00  0.00    +0.000 NA
ATOM      6  N   UNL     1       5.233   5.225  19.593  0.00  0.00    +0.000 NA
ATOM      7  C   UNL     1       4.565   4.581  18.638  0.00  0.00    +0.000 A 
ATOM      8  N   UNL     1       5.289   4.724  17.475  0.00  0.00    +0.000 N 
ATOM      9  C   UNL     1       5.182   4.323  16.160  0.00  0.00    +0.000 A 
ATOM     10  O   UNL     1       4.226   3.688  15.766  0.00  0.00    +0.000 OA
ENDROOT
BRANCH   7  11
ATOM     11  C   UNL     1       3.303   3.849  18.818  0.00  0.00    +0.000 A 
ATOM     12  C   UNL     1       2.114   4.333  18.242  0.00  0.00    +0.000 A 
ATOM     13  C   UNL     1       0.893   3.679  18.423  0.00  0.00    +0.000 A 
ATOM     14  C   UNL     1       0.837   2.493  19.144  0.00  0.00    +0.000 A 
ATOM     15  C   UNL     1       2.007   1.963  19.684  0.00  0.00    +0.000 A 
ATOM     16  C   UNL     1       3.230   2.634  19.529  0.00  0.00    +0.000 A 
ATOM     17 CL   UNL     1       4.604   1.900  20.287  0.00  0.00    +0.000 Cl
ENDBRANCH   7  11
BRANCH   1  22
ATOM     18  C   UNL     1       6.270   0.997  10.947  0.00  0.00    +0.000 C 
ATOM     19  C   UNL     1       5.819   2.209  11.657  0.00  0.00    +0.000 A 
ATOM     20  C   UNL     1       4.695   2.989  11.565  0.00  0.00    +0.000 A 
ATOM     21  C   UNL     1       4.875   4.038  12.497  0.00  0.00    +0.000 A 
ATOM     22  C   UNL     1       6.083   3.846  13.158  0.00  0.00    +0.000 A 
ATOM     23  O   UNL     1       6.657   2.717  12.601  0.00  0.00    +0.000 OA
ENDBRANCH   1  22
TORSDOF 2
ENDMDL
MODEL 2
REMARK VINA RESULT:      -7.8      1.162      1.408
REMARK  Name = 
REMARK  3 active torsions:
REMARK  status: ('A' for Active; 'I' for Inactive)
REMARK    1  A    between atoms: C_1  and  C_2
REMARK    2  A    between atoms: C_5  and  C_6
REMARK    3  A    between atoms: C_12  and  C_13
REMARK                            x       y       z     vdW  Elec       q    Type
REMARK                         _______ _______ _______ _____ _____    ______ ____
ROOT
ATOM      1  C   UNL     1       6.848   4.494  14.521  0.00  0.00    +0.000 C 
ATOM      2  C   UNL     1       6.476   4.657  15.802  0.00  0.00    +0.000 A 
ATOM      3  S   UNL     1       7.593   5.422  16.944  0.00  0.00    +0.000 S 
ATOM      4  C   UNL     1       6.489   5.129  18.220  0.00  0.00    +0.000 A 
ATOM      5  N   UNL     1       6.504   5.363  19.497  0.00  0.00    +0.000 NA
ATOM      6  N   UNL     1       5.308   4.865  19.981  0.00  0.00    +0.000 NA
ATOM      7  C   UNL     1       4.599   4.349  18.979  0.00  0.00    +0.000 A 
ATOM      8  N   UNL     1       5.346   4.515  17.832  0.00  0.00    +0.000 N 
ATOM      9  C   UNL     1       5.220   4.220  16.492  0.00  0.00    +0.000 A 
ATOM     10  O   UNL     1       4.219   3.698  16.047  0.00  0.00    +0.000 OA
ENDROOT
BRANCH   7  11
ATOM     11  C   UNL     1       3.278   3.715  19.098  0.00  0.00    +0.000 A 
ATOM     12  C   UNL     1       3.117   2.350  18.796  0.00  0.00    +0.000 A 
ATOM     13  C   UNL     1       1.868   1.728  18.868  0.00  0.00    +0.000 A 
ATOM     14  C   UNL     1       0.755   2.442  19.293  0.00  0.00    +0.000 A 
ATOM     15  C   UNL     1       0.896   3.782  19.649  0.00  0.00    +0.000 A 
ATOM     16  C   UNL     1       2.142   4.418  19.549  0.00  0.00    +0.000 A 
ATOM     17 CL   UNL     1       2.179   6.097  19.972  0.00  0.00    +0.000 Cl
ENDBRANCH   7  11
BRANCH   1  22
ATOM     18  C   UNL     1       6.127   1.254  10.995  0.00  0.00    +0.000 C 
ATOM     19  C   UNL     1       5.747   2.415  11.823  0.00  0.00    +0.000 A 
ATOM     20  C   UNL     1       4.664   3.257  11.822  0.00  0.00    +0.000 A 
ATOM     21  C   UNL     1       4.909   4.202  12.846  0.00  0.00    +0.000 A 
ATOM     22  C   UNL     1       6.112   3.886  13.467  0.00  0.00    +0.000 A 
ATOM     23  O   UNL     1       6.620   2.787  12.798  0.00  0.00    +0.000 OA
ENDBRANCH   1  22
TORSDOF 2
ENDMDL
MODEL 3
REMARK VINA RESULT:      -7.6      0.671      1.138
REMARK  Name = 
REMARK  3 active torsions:
REMARK  status: ('A' for Active; 'I' for Inactive)
REMARK    1  A    between atoms: C_1  and  C_2
REMARK    2  A    between atoms: C_5  and  C_6
REMARK    3  A    between atoms: C_12  and  C_13
REMARK                            x       y       z     vdW  Elec       q    Type
REMARK                         _______ _______ _______ _____ _____    ______ ____
ROOT
ATOM      1  C   UNL     1       6.820   4.523  13.948  0.00  0.00    +0.000 C 
ATOM      2  C   UNL     1       6.400   4.779  15.198  0.00  0.00    +0.000 A 
ATOM      3  S   UNL     1       7.391   5.788  16.262  0.00  0.00    +0.000 S 
ATOM      4  C   UNL     1       6.298   5.506  17.550  0.00  0.00    +0.000 A 
ATOM      5  N   UNL     1       6.253   5.876  18.794  0.00  0.00    +0.000 NA
ATOM      6  N   UNL     1       5.112   5.295  19.315  0.00  0.00    +0.000 NA
ATOM      7  C   UNL     1       4.493   4.595  18.367  0.00  0.00    +0.000 A 
ATOM      8  N   UNL     1       5.244   4.723  17.218  0.00  0.00    +0.000 N 
ATOM      9  C   UNL     1       5.186   4.273  15.917  0.00  0.00    +0.000 A 
ATOM     10  O   UNL     1       4.264   3.591  15.520  0.00  0.00    +0.000 OA
ENDROOT
BRANCH   7  11
ATOM     11  C   UNL     1       3.252   3.826  18.540  0.00  0.00    +0.000 A 
ATOM     12  C   UNL     1       2.056   4.267  17.944  0.00  0.00    +0.000 A 
ATOM     13  C   UNL     1       0.854   3.576  18.118  0.00  0.00    +0.000 A 
ATOM     14  C   UNL     1       0.826   2.397  18.851  0.00  0.00    +0.000 A 
ATOM     15  C   UNL     1       2.006   1.909  19.409  0.00  0.00    +0.000 A 
ATOM     16  C   UNL     1       3.209   2.615  19.261  0.00  0.00    +0.000 A 
ATOM     17 CL   UNL     1       4.596   1.933  20.042  0.00  0.00    +0.000 Cl
ENDBRANCH   7  11
BRANCH   1  22
ATOM     18  C   UNL     1       3.253   3.373  10.882  0.00  0.00    +0.000 C 
ATOM     19  C   UNL     1       4.555   3.152  11.539  0.00  0.00    +0.000 A 
ATOM     20  C   UNL     1       5.494   2.156  11.453  0.00  0.00    +0.000 A 
ATOM     21  C   UNL     1       6.514   2.506  12.371  0.00  0.00    +0.000 A 
ATOM     22  C   UNL     1       6.186   3.723  12.958  0.00  0.00    +0.000 A 
ATOM     23  O   UNL     1       4.957   4.089  12.440  0.00  0.00    +0.000 OA
ENDBRANCH   1  22
TORSDOF 2
ENDMDL
MODEL 4
REMARK VINA RESULT:      -7.4      4.098      7.348
REMARK  Name = 
REMARK  3 active torsions:
REMARK  status: ('A' for Active; 'I' for Inactive)
REMARK    1  A    between atoms: C_1  and  C_2
REMARK    2  A    between atoms: C_5  and  C_6
REMARK    3  A    between atoms: C_12  and  C_13
REMARK                            x       y       z     vdW  Elec       q    Type
REMARK                         _______ _______ _______ _____ _____    ______ ____
ROOT
ATOM      1  C   UNL     1       1.526   7.271  20.349  0.00  0.00    +0.000 C 
ATOM      2  C   UNL     1       2.223   6.168  20.031  0.00  0.00    +0.000 A 
ATOM      3  S   UNL     1       2.115   4.738  21.069  0.00  0.00    +0.000 S 
ATOM      4  C   UNL     1       3.291   3.949  20.107  0.00  0.00    +0.000 A 
ATOM      5  N   UNL     1       3.866   2.786  20.157  0.00  0.00    +0.000 NA
ATOM      6  N   UNL     1       4.747   2.760  19.091  0.00  0.00    +0.000 NA
ATOM      7  C   UNL     1       4.674   3.908  18.421  0.00  0.00    +0.000 A 
ATOM      8  N   UNL     1       3.735   4.687  19.062  0.00  0.00    +0.000 N 
ATOM      9  C   UNL     1       3.189   5.943  18.908  0.00  0.00    +0.000 A 
ATOM     10  O   UNL     1       3.503   6.664  17.984  0.00  0.00    +0.000 OA
ENDROOT
BRANCH   7  11
ATOM     11  C   UNL     1       5.466   4.260  17.234  0.00  0.00    +0.000 A 
ATOM     12  C   UNL     1       5.007   3.918  15.948  0.00  0.00    +0.000 A 
ATOM     13  C   UNL     1       5.753   4.209  14.803  0.00  0.00    +0.000 A 
ATOM     14  C   UNL     1       6.955   4.897  14.910  0.00  0.00    +0.000 A 
ATOM     15  C   UNL     1       7.408   5.294  16.166  0.00  0.00    +0.000 A 
ATOM     16  C   UNL     1       6.677   4.977  17.320  0.00  0.00    +0.000 A 
ATOM     17 CL   UNL     1       7.369   5.481  18.825  0.00  0.00    +0.000 Cl
ENDBRANCH   7  11
BRANCH   1  22
ATOM     18  C   UNL     1       0.816  12.048  19.992  0.00  0.00    +0.000 C 
ATOM     19  C   UNL     1       1.170  10.720  19.457  0.00  0.00    +0.000 A 
ATOM     20  C   UNL     1       1.521  10.272  18.209  0.00  0.00    +0.000 A 
ATOM     21  C   UNL     1       1.703   8.874  18.337  0.00  0.00    +0.000 A 
ATOM     22  C   UNL     1       1.499   8.518  19.665  0.00  0.00    +0.000 A 
ATOM     23  O   UNL     1       1.148   9.678  20.332  0.00  0.00    +0.000 OA
ENDBRANCH   1  22
TORSDOF 2
ENDMDL
MODEL 5
REMARK VINA RESULT:      -7.4      1.340      1.891
REMARK  Name = 
REMARK  3 active torsions:
REMARK  status: ('A' for Active; 'I' for Inactive)
REMARK    1  A    between atoms: C_1  and  C_2
REMARK    2  A    between atoms: C_5  and  C_6
REMARK    3  A    between atoms: C_12  and  C_13
REMARK                            x       y       z     vdW  Elec       q    Type
REMARK                         _______ _______ _______ _____ _____    ______ ____
ROOT
ATOM      1  C   UNL     1       6.903   4.438  13.808  0.00  0.00    +0.000 C 
ATOM      2  C   UNL     1       6.529   4.693  15.073  0.00  0.00    +0.000 A 
ATOM      3  S   UNL     1       7.568   5.686  16.107  0.00  0.00    +0.000 S 
ATOM      4  C   UNL     1       6.516   5.410  17.430  0.00  0.00    +0.000 A 
ATOM      5  N   UNL     1       6.518   5.775  18.676  0.00  0.00    +0.000 NA
ATOM      6  N   UNL     1       5.388   5.204  19.233  0.00  0.00    +0.000 NA
ATOM      7  C   UNL     1       4.730   4.515  18.304  0.00  0.00    +0.000 A 
ATOM      8  N   UNL     1       5.442   4.641  17.131  0.00  0.00    +0.000 N 
ATOM      9  C   UNL     1       5.335   4.197  15.830  0.00  0.00    +0.000 A 
ATOM     10  O   UNL     1       4.392   3.528  15.463  0.00  0.00    +0.000 OA
ENDROOT
BRANCH   7  11
ATOM     11  C   UNL     1       3.487   3.759  18.516  0.00  0.00    +0.000 A 
ATOM     12  C   UNL     1       3.535   2.389  18.833  0.00  0.00    +0.000 A 
ATOM     13  C   UNL     1       2.371   1.636  19.007  0.00  0.00    +0.000 A 
ATOM     14  C   UNL     1       1.126   2.246  18.919  0.00  0.00    +0.000 A 
ATOM     15  C   UNL     1       1.049   3.612  18.657  0.00  0.00    +0.000 A 
ATOM     16  C   UNL     1       2.215   4.365  18.452  0.00  0.00    +0.000 A 
ATOM     17 CL   UNL     1       1.987   6.042  18.084  0.00  0.00    +0.000 Cl
ENDBRANCH   7  11
BRANCH   1  22
ATOM     18  C   UNL     1       3.236   3.361  10.834  0.00  0.00    +0.000 C 
ATOM     19  C   UNL     1       4.549   3.112  11.461  0.00  0.00    +0.000 A 
ATOM     20  C   UNL     1       5.462   2.094  11.356  0.00  0.00    +0.000 A 
ATOM     21  C   UNL     1       6.511   2.423  12.247  0.00  0.00    +0.000 A 
ATOM     22  C   UNL     1       6.227   3.650  12.837  0.00  0.00    +0.000 A 
ATOM     23  O   UNL     1       4.994   4.042  12.347  0.00  0.00    +0.000 OA
ENDBRANCH   1  22
TORSDOF 2
ENDMDL
MODEL 6
REMARK VINA RESULT:      -7.1      3.881      7.304
REMARK  Name = 
REMARK  3 active torsions:
REMARK  status: ('A' for Active; 'I' for Inactive)
REMARK    1  A    between atoms: C_1  and  C_2
REMARK    2  A    between atoms: C_5  and  C_6
REMARK    3  A    between atoms: C_12  and  C_13
REMARK                            x       y       z     vdW  Elec       q    Type
REMARK                         _______ _______ _______ _____ _____    ______ ____
ROOT
ATOM      1  C   UNL     1       1.256   6.541  21.108  0.00  0.00    +0.000 C 
ATOM      2  C   UNL     1       1.981   5.539  20.582  0.00  0.00    +0.000 A 
ATOM      3  S   UNL     1       1.891   3.925  21.303  0.00  0.00    +0.000 S 
ATOM      4  C   UNL     1       3.098   3.373  20.220  0.00  0.00    +0.000 A 
ATOM      5  N   UNL     1       3.698   2.236  20.041  0.00  0.00    +0.000 NA
ATOM      6  N   UNL     1       4.593   2.445  19.008  0.00  0.00    +0.000 NA
ATOM      7  C   UNL     1       4.503   3.705  18.587  0.00  0.00    +0.000 A 
ATOM      8  N   UNL     1       3.539   4.318  19.356  0.00  0.00    +0.000 N 
ATOM      9  C   UNL     1       2.967   5.569  19.454  0.00  0.00    +0.000 A 
ATOM     10  O   UNL     1       3.277   6.470  18.703  0.00  0.00    +0.000 OA
ENDROOT
BRANCH   7  11
ATOM     11  C   UNL     1       5.303   4.309  17.511  0.00  0.00    +0.000 A 
ATOM     12  C   UNL     1       4.966   4.081  16.164  0.00  0.00    +0.000 A 
ATOM     13  C   UNL     1       5.726   4.613  15.119  0.00  0.00    +0.000 A 
ATOM     14  C   UNL     1       6.815   5.430  15.394  0.00  0.00    +0.000 A 
ATOM     15  C   UNL     1       7.140   5.715  16.718  0.00  0.00    +0.000 A 
ATOM     16  C   UNL     1       6.398   5.158  17.770  0.00  0.00    +0.000 A 
ATOM     17 CL   UNL     1       6.931   5.547  19.371  0.00  0.00    +0.000 Cl
ENDBRANCH   7  11
BRANCH   1  22
ATOM     18  C   UNL     1       1.709  10.156  17.918  0.00  0.00    +0.000 C 
ATOM     19  C   UNL     1       1.420   9.598  19.253  0.00  0.00    +0.000 A 
ATOM     20  C   UNL     1       1.080  10.164  20.455  0.00  0.00    +0.000 A 
ATOM     21  C   UNL     1       0.972   9.090  21.371  0.00  0.00    +0.000 A 
ATOM     22  C   UNL     1       1.210   7.900  20.693  0.00  0.00    +0.000 A 
ATOM     23  O   UNL     1       1.506   8.247  19.387  0.00  0.00    +0.000 OA
ENDBRANCH   1  22
TORSDOF 2
ENDMDL
MODEL 7
REMARK VINA RESULT:      -7.0     10.253     12.030
REMARK  Name = 
REMARK  3 active torsions:
REMARK  status: ('A' for Active; 'I' for Inactive)
REMARK    1  A    between atoms: C_1  and  C_2
REMARK    2  A    between atoms: C_5  and  C_6
REMARK    3  A    between atoms: C_12  and  C_13
REMARK                            x       y       z     vdW  Elec       q    Type
REMARK                         _______ _______ _______ _____ _____    ______ ____
ROOT
ATOM      1  C   UNL     1      -1.243  10.614  18.970  0.00  0.00    +0.000 C 
ATOM      2  C   UNL     1      -0.291  11.486  19.343  0.00  0.00    +0.000 A 
ATOM      3  S   UNL     1       0.786  11.079  20.688  0.00  0.00    +0.000 S 
ATOM      4  C   UNL     1       1.506  12.630  20.580  0.00  0.00    +0.000 A 
ATOM      5  N   UNL     1       2.442  13.238  21.244  0.00  0.00    +0.000 NA
ATOM      6  N   UNL     1       2.548  14.493  20.673  0.00  0.00    +0.000 NA
ATOM      7  C   UNL     1       1.676  14.605  19.673  0.00  0.00    +0.000 A 
ATOM      8  N   UNL     1       0.997  13.408  19.596  0.00  0.00    +0.000 N 
ATOM      9  C   UNL     1      -0.004  12.861  18.823  0.00  0.00    +0.000 A 
ATOM     10  O   UNL     1      -0.500  13.473  17.900  0.00  0.00    +0.000 OA
ENDROOT
BRANCH   7  11
ATOM     11  C   UNL     1       1.483  15.795  18.832  0.00  0.00    +0.000 A 
ATOM     12  C   UNL     1       0.327  16.585  18.976  0.00  0.00    +0.000 A 
ATOM     13  C   UNL     1       0.099  17.703  18.169  0.00  0.00    +0.000 A 
ATOM     14  C   UNL     1       1.046  18.090  17.230  0.00  0.00    +0.000 A 
ATOM     15  C   UNL     1       2.223  17.356  17.100  0.00  0.00    +0.000 A 
ATOM     16  C   UNL     1       2.442  16.216  17.888  0.00  0.00    +0.000 A 
ATOM     17 CL   UNL     1       3.920  15.361  17.600  0.00  0.00    +0.000 Cl
ENDBRANCH   7  11
BRANCH   1  22
ATOM     18  C   UNL     1      -2.970  10.077  14.478  0.00  0.00    +0.000 C 
ATOM     19  C   UNL     1      -3.040  10.546  15.875  0.00  0.00    +0.000 A 
ATOM     20  C   UNL     1      -3.972  11.264  16.580  0.00  0.00    +0.000 A 
ATOM     21  C   UNL     1      -3.435  11.423  17.880  0.00  0.00    +0.000 A 
ATOM     22  C   UNL     1      -2.213  10.763  17.941  0.00  0.00    +0.000 A 
ATOM     23  O   UNL     1      -1.983  10.248  16.678  0.00  0.00    +0.000 OA
ENDBRANCH   1  22
TORSDOF 2
ENDMDL
MODEL 8
REMARK VINA RESULT:      -6.9      4.167      7.749
REMARK  Name = 
REMARK  3 active torsions:
REMARK  status: ('A' for Active; 'I' for Inactive)
REMARK    1  A    between atoms: C_1  and  C_2
REMARK    2  A    between atoms: C_5  and  C_6
REMARK    3  A    between atoms: C_12  and  C_13
REMARK                            x       y       z     vdW  Elec       q    Type
REMARK                         _______ _______ _______ _____ _____    ______ ____
ROOT
ATOM      1  C   UNL     1       0.872   6.510  21.135  0.00  0.00    +0.000 C 
ATOM      2  C   UNL     1       1.748   5.617  20.644  0.00  0.00    +0.000 A 
ATOM      3  S   UNL     1       1.526   3.895  20.993  0.00  0.00    +0.000 S 
ATOM      4  C   UNL     1       2.998   3.543  20.191  0.00  0.00    +0.000 A 
ATOM      5  N   UNL     1       3.665   2.451  19.967  0.00  0.00    +0.000 NA
ATOM      6  N   UNL     1       4.796   2.842  19.274  0.00  0.00    +0.000 NA
ATOM      7  C   UNL     1       4.777   4.160  19.092  0.00  0.00    +0.000 A 
ATOM      8  N   UNL     1       3.620   4.629  19.675  0.00  0.00    +0.000 N 
ATOM      9  C   UNL     1       2.998   5.847  19.851  0.00  0.00    +0.000 A 
ATOM     10  O   UNL     1       3.465   6.871  19.397  0.00  0.00    +0.000 OA
ENDROOT
BRANCH   7  11
ATOM     11  C   UNL     1       5.813   4.947  18.407  0.00  0.00    +0.000 A 
ATOM     12  C   UNL     1       6.788   5.636  19.152  0.00  0.00    +0.000 A 
ATOM     13  C   UNL     1       7.765   6.419  18.532  0.00  0.00    +0.000 A 
ATOM     14  C   UNL     1       7.824   6.493  17.146  0.00  0.00    +0.000 A 
ATOM     15  C   UNL     1       6.903   5.780  16.382  0.00  0.00    +0.000 A 
ATOM     16  C   UNL     1       5.902   5.017  17.002  0.00  0.00    +0.000 A 
ATOM     17 CL   UNL     1       4.787   4.218  15.946  0.00  0.00    +0.000 Cl
ENDBRANCH   7  11
BRANCH   1  22
ATOM     18  C   UNL     1       0.961  10.645  18.618  0.00  0.00    +0.000 C 
ATOM     19  C   UNL     1       0.942   9.855  19.863  0.00  0.00    +0.000 A 
ATOM     20  C   UNL     1       0.978  10.194  21.192  0.00  0.00    +0.000 A 
ATOM     21  C   UNL     1       0.971   8.970  21.903  0.00  0.00    +0.000 A 
ATOM     22  C   UNL     1       0.889   7.924  20.990  0.00  0.00    +0.000 A 
ATOM     23  O   UNL     1       0.896   8.502  19.733  0.00  0.00    +0.000 OA
ENDBRANCH   1  22
TORSDOF 2
ENDMDL
MODEL 9
REMARK VINA RESULT:      -6.9     10.304     12.075
REMARK  Name = 
REMARK  3 active torsions:
REMARK  status: ('A' for Active; 'I' for Inactive)
REMARK    1  A    between atoms: C_1  and  C_2
REMARK    2  A    between atoms: C_5  and  C_6
REMARK    3  A    between atoms: C_12  and  C_13
REMARK                            x       y       z     vdW  Elec       q    Type
REMARK                         _______ _______ _______ _____ _____    ______ ____
ROOT
ATOM      1  C   UNL     1      -1.330  10.532  18.865  0.00  0.00    +0.000 C 
ATOM      2  C   UNL     1      -0.386  11.397  19.273  0.00  0.00    +0.000 A 
ATOM      3  S   UNL     1       0.662  10.967  20.633  0.00  0.00    +0.000 S 
ATOM      4  C   UNL     1       1.385  12.518  20.567  0.00  0.00    +0.000 A 
ATOM      5  N   UNL     1       2.308  13.114  21.260  0.00  0.00    +0.000 NA
ATOM      6  N   UNL     1       2.426  14.378  20.712  0.00  0.00    +0.000 NA
ATOM      7  C   UNL     1       1.576  14.508  19.696  0.00  0.00    +0.000 A 
ATOM      8  N   UNL     1       0.897  13.314  19.586  0.00  0.00    +0.000 N 
ATOM      9  C   UNL     1      -0.088  12.781  18.782  0.00  0.00    +0.000 A 
ATOM     10  O   UNL     1      -0.564  13.409  17.859  0.00  0.00    +0.000 OA
ENDROOT
BRANCH   7  11
ATOM     11  C   UNL     1       1.401  15.713  18.872  0.00  0.00    +0.000 A 
ATOM     12  C   UNL     1       2.421  16.124  17.993  0.00  0.00    +0.000 A 
ATOM     13  C   UNL     1       2.298  17.283  17.221  0.00  0.00    +0.000 A 
ATOM     14  C   UNL     1       1.131  18.034  17.270  0.00  0.00    +0.000 A 
ATOM     15  C   UNL     1       0.085  17.622  18.093  0.00  0.00    +0.000 A 
ATOM     16  C   UNL     1       0.216  16.476  18.892  0.00  0.00    +0.000 A 
ATOM     17 CL   UNL     1      -1.133  16.094  19.908  0.00  0.00    +0.000 Cl
ENDBRANCH   7  11
BRANCH   1  22
ATOM     18  C   UNL     1      -2.995  10.010  14.348  0.00  0.00    +0.000 C 
ATOM     19  C   UNL     1      -3.076  10.490  15.741  0.00  0.00    +0.000 A 
ATOM     20  C   UNL     1      -4.000  11.238  16.424  0.00  0.00    +0.000 A 
ATOM     21  C   UNL     1      -3.482  11.392  17.732  0.00  0.00    +0.000 A 
ATOM     22  C   UNL     1      -2.279  10.700  17.819  0.00  0.00    +0.000 A 
ATOM     23  O   UNL     1      -2.042  10.170  16.564  0.00  0.00    +0.000 OA
ENDBRANCH   1  22
TORSDOF 2
ENDMDL
