MODEL 1
REMARK VINA RESULT:      -7.5      0.000      0.000
REMARK  Name = 
REMARK  5 active torsions:
REMARK  status: ('A' for Active; 'I' for Inactive)
REMARK    1  A    between atoms: C_1  and  C_2
REMARK    2  A    between atoms: C_5  and  C_6
REMARK    3  A    between atoms: C_7  and  C_8
REMARK    4  A    between atoms: C_10  and  C_11
REMARK    5  A    between atoms: N_26  and  C_27
REMARK                            x       y       z     vdW  Elec       q    Type
REMARK                         _______ _______ _______ _____ _____    ______ ____
ROOT
ATOM      1  C   UNL     1      -4.877  13.507  21.445  0.00  0.00    +0.000 A 
ATOM      2  N   UNL     1      -5.343  13.692  22.726  0.00  0.00    +0.000 NA
ATOM      3  C   UNL     1      -6.318  12.825  22.884  0.00  0.00    +0.000 A 
ATOM      4  C   UNL     1      -7.032  12.542  24.150  0.00  0.00    +0.000 C 
ATOM      5  N   UNL     1      -6.561  12.153  21.713  0.00  0.00    +0.000 N 
ATOM      6  N   UNL     1      -7.512  11.228  21.508  0.00  0.00    +0.000 NA
ATOM      7  C   UNL     1      -7.496  10.730  20.315  0.00  0.00    +0.000 A 
ATOM      8  N   UNL     1      -6.615  11.034  19.313  0.00  0.00    +0.000 NA
ATOM      9  C   UNL     1      -5.671  11.920  19.494  0.00  0.00    +0.000 A 
ATOM     10  N   UNL     1      -4.806  12.228  18.444  0.00  0.00    +0.000 N 
ATOM     11  C   UNL     1      -4.979  11.513  17.195  0.00  0.00    +0.000 C 
ATOM     12  C   UNL     1      -3.554  10.975  17.294  0.00  0.00    +0.000 C 
ATOM     13  F   UNL     1      -2.722  11.329  16.284  0.00  0.00    +0.000 F 
ATOM     14  F   UNL     1      -3.430   9.634  17.439  0.00  0.00    +0.000 F 
ATOM     15  C   UNL     1      -3.436  11.790  18.580  0.00  0.00    +0.000 C 
ATOM     16  C   UNL     1      -5.637  12.555  20.785  0.00  0.00    +0.000 A 
ENDROOT
BRANCH   1  18
ATOM     17  C   UNL     1      -2.346  13.844  21.112  0.00  0.00    +0.000 A 
ATOM     18  C   UNL     1      -3.681  14.248  21.067  0.00  0.00    +0.000 A 
ATOM     19  C   UNL     1      -3.658  15.586  20.644  0.00  0.00    +0.000 A 
ATOM     20  N   UNL     1      -2.436  15.992  20.309  0.00  0.00    +0.000 NA
ATOM     21  N   UNL     1      -1.653  14.930  20.611  0.00  0.00    +0.000 N 
ATOM     22  C   UNL     1      -0.238  15.026  20.327  0.00  0.00    +0.000 C 
BRANCH  17  27
ATOM     23  C   UNL     1       0.431   9.075  22.646  0.00  0.00    +0.000 C 
ATOM     24  C   UNL     1      -0.325  10.316  22.300  0.00  0.00    +0.000 A 
ATOM     25  C   UNL     1      -1.208  10.907  23.197  0.00  0.00    +0.000 A 
ATOM     26  C   UNL     1      -1.918  12.045  22.819  0.00  0.00    +0.000 A 
ATOM     27  C   UNL     1      -1.703  12.603  21.565  0.00  0.00    +0.000 A 
ATOM     28  N   UNL     1      -0.861  12.032  20.669  0.00  0.00    +0.000 NA
ATOM     29  C   UNL     1      -0.200  10.914  21.051  0.00  0.00    +0.000 A 
ENDBRANCH  17  27
ENDBRANCH   1  18
TORSDOF 2
ENDMDL
MODEL 2
REMARK VINA RESULT:      -7.3      1.510      1.863
REMARK  Name = 
REMARK  5 active torsions:
REMARK  status: ('A' for Active; 'I' for Inactive)
REMARK    1  A    between atoms: C_1  and  C_2
REMARK    2  A    between atoms: C_5  and  C_6
REMARK    3  A    between atoms: C_7  and  C_8
REMARK    4  A    between atoms: C_10  and  C_11
REMARK    5  A    between atoms: N_26  and  C_27
REMARK                            x       y       z     vdW  Elec       q    Type
REMARK                         _______ _______ _______ _____ _____    ______ ____
ROOT
ATOM      1  C   UNL     1      -2.975  13.348  20.938  0.00  0.00    +0.000 A 
ATOM      2  N   UNL     1      -3.112  13.598  22.284  0.00  0.00    +0.000 NA
ATOM      3  C   UNL     1      -4.240  13.027  22.643  0.00  0.00    +0.000 A 
ATOM      4  C   UNL     1      -4.744  12.896  24.029  0.00  0.00    +0.000 C 
ATOM      5  N   UNL     1      -4.884  12.500  21.553  0.00  0.00    +0.000 N 
ATOM      6  N   UNL     1      -6.075  11.882  21.552  0.00  0.00    +0.000 NA
ATOM      7  C   UNL     1      -6.431  11.451  20.386  0.00  0.00    +0.000 A 
ATOM      8  N   UNL     1      -5.713  11.545  19.225  0.00  0.00    +0.000 NA
ATOM      9  C   UNL     1      -4.542  12.128  19.204  0.00  0.00    +0.000 A 
ATOM     10  N   UNL     1      -3.847  12.232  17.999  0.00  0.00    +0.000 N 
ATOM     11  C   UNL     1      -4.452  11.648  16.818  0.00  0.00    +0.000 C 
ATOM     12  C   UNL     1      -3.242  10.735  16.638  0.00  0.00    +0.000 C 
ATOM     13  F   UNL     1      -2.557  10.890  15.479  0.00  0.00    +0.000 F 
ATOM     14  F   UNL     1      -3.470   9.406  16.772  0.00  0.00    +0.000 F 
ATOM     15  C   UNL     1      -2.654  11.429  17.865  0.00  0.00    +0.000 C 
ATOM     16  C   UNL     1      -4.083  12.672  20.454  0.00  0.00    +0.000 A 
ENDROOT
BRANCH   1  18
ATOM     17  C   UNL     1      -0.548  13.005  20.147  0.00  0.00    +0.000 A 
ATOM     18  C   UNL     1      -1.717  13.747  20.321  0.00  0.00    +0.000 A 
ATOM     19  C   UNL     1      -1.424  15.032  19.839  0.00  0.00    +0.000 A 
ATOM     20  N   UNL     1      -0.220  15.101  19.275  0.00  0.00    +0.000 NA
ATOM     21  N   UNL     1       0.301  13.870  19.482  0.00  0.00    +0.000 N 
ATOM     22  C   UNL     1       1.615  13.588  18.949  0.00  0.00    +0.000 C 
BRANCH  17  27
ATOM     23  C   UNL     1       1.107   7.659  21.372  0.00  0.00    +0.000 C 
ATOM     24  C   UNL     1       0.657   9.060  21.112  0.00  0.00    +0.000 A 
ATOM     25  C   UNL     1       0.203   9.883  22.137  0.00  0.00    +0.000 A 
ATOM     26  C   UNL     1      -0.239  11.171  21.844  0.00  0.00    +0.000 A 
ATOM     27  C   UNL     1      -0.180  11.636  20.536  0.00  0.00    +0.000 A 
ATOM     28  N   UNL     1       0.242  10.845  19.520  0.00  0.00    +0.000 NA
ATOM     29  C   UNL     1       0.645   9.588  19.827  0.00  0.00    +0.000 A 
ENDBRANCH  17  27
ENDBRANCH   1  18
TORSDOF 2
ENDMDL
MODEL 3
REMARK VINA RESULT:      -7.2      9.698     13.631
REMARK  Name = 
REMARK  5 active torsions:
REMARK  status: ('A' for Active; 'I' for Inactive)
REMARK    1  A    between atoms: C_1  and  C_2
REMARK    2  A    between atoms: C_5  and  C_6
REMARK    3  A    between atoms: C_7  and  C_8
REMARK    4  A    between atoms: C_10  and  C_11
REMARK    5  A    between atoms: N_26  and  C_27
REMARK                            x       y       z     vdW  Elec       q    Type
REMARK                         _______ _______ _______ _____ _____    ______ ____
ROOT
ATOM      1  C   UNL     1       9.218  15.761  19.892  0.00  0.00    +0.000 A 
ATOM      2  N   UNL     1       9.083  17.103  19.620  0.00  0.00    +0.000 NA
ATOM      3  C   UNL     1       9.839  17.335  18.571  0.00  0.00    +0.000 A 
ATOM      4  C   UNL     1       9.906  18.606  17.813  0.00  0.00    +0.000 C 
ATOM      5  N   UNL     1      10.534  16.207  18.216  0.00  0.00    +0.000 N 
ATOM      6  N   UNL     1      11.425  16.101  17.218  0.00  0.00    +0.000 NA
ATOM      7  C   UNL     1      11.907  14.909  17.084  0.00  0.00    +0.000 A 
ATOM      8  N   UNL     1      11.576  13.804  17.821  0.00  0.00    +0.000 NA
ATOM      9  C   UNL     1      10.699  13.880  18.788  0.00  0.00    +0.000 A 
ATOM     10  N   UNL     1      10.403  12.742  19.539  0.00  0.00    +0.000 N 
ATOM     11  C   UNL     1      11.067  11.505  19.179  0.00  0.00    +0.000 C 
ATOM     12  C   UNL     1       9.716  10.841  18.924  0.00  0.00    +0.000 C 
ATOM     13  F   UNL     1       9.434   9.766  19.700  0.00  0.00    +0.000 F 
ATOM     14  F   UNL     1       9.466  10.467  17.646  0.00  0.00    +0.000 F 
ATOM     15  C   UNL     1       9.091  12.166  19.356  0.00  0.00    +0.000 C 
ATOM     16  C   UNL     1      10.136  15.181  19.033  0.00  0.00    +0.000 A 
ENDROOT
BRANCH   1  18
ATOM     17  C   UNL     1       6.967  15.055  20.925  0.00  0.00    +0.000 A 
ATOM     18  C   UNL     1       8.353  15.211  20.929  0.00  0.00    +0.000 A 
ATOM     19  C   UNL     1       8.778  14.791  22.198  0.00  0.00    +0.000 A 
ATOM     20  N   UNL     1       7.786  14.279  22.923  0.00  0.00    +0.000 NA
ATOM     21  N   UNL     1       6.695  14.459  22.142  0.00  0.00    +0.000 N 
ATOM     22  C   UNL     1       5.424  13.967  22.625  0.00  0.00    +0.000 C 
BRANCH  17  27
ATOM     23  C   UNL     1       2.955  16.755  17.205  0.00  0.00    +0.000 C 
ATOM     24  C   UNL     1       4.014  16.262  18.138  0.00  0.00    +0.000 A 
ATOM     25  C   UNL     1       4.813  15.169  17.823  0.00  0.00    +0.000 A 
ATOM     26  C   UNL     1       5.765  14.723  18.738  0.00  0.00    +0.000 A 
ATOM     27  C   UNL     1       5.935  15.404  19.937  0.00  0.00    +0.000 A 
ATOM     28  N   UNL     1       5.155  16.460  20.271  0.00  0.00    +0.000 NA
ATOM     29  C   UNL     1       4.221  16.860  19.375  0.00  0.00    +0.000 A 
ENDBRANCH  17  27
ENDBRANCH   1  18
TORSDOF 2
ENDMDL
MODEL 4
REMARK VINA RESULT:      -7.2      2.714      5.019
REMARK  Name = 
REMARK  5 active torsions:
REMARK  status: ('A' for Active; 'I' for Inactive)
REMARK    1  A    between atoms: C_1  and  C_2
REMARK    2  A    between atoms: C_5  and  C_6
REMARK    3  A    between atoms: C_7  and  C_8
REMARK    4  A    between atoms: C_10  and  C_11
REMARK    5  A    between atoms: N_26  and  C_27
REMARK                            x       y       z     vdW  Elec       q    Type
REMARK                         _______ _______ _______ _____ _____    ______ ____
ROOT
ATOM      1  C   UNL     1      -3.166  12.393  20.003  0.00  0.00    +0.000 A 
ATOM      2  N   UNL     1      -4.412  12.730  19.526  0.00  0.00    +0.000 NA
ATOM      3  C   UNL     1      -4.585  12.018  18.436  0.00  0.00    +0.000 A 
ATOM      4  C   UNL     1      -5.837  11.925  17.649  0.00  0.00    +0.000 C 
ATOM      5  N   UNL     1      -3.452  11.304  18.139  0.00  0.00    +0.000 N 
ATOM      6  N   UNL     1      -3.269  10.505  17.076  0.00  0.00    +0.000 NA
ATOM      7  C   UNL     1      -2.113   9.926  17.062  0.00  0.00    +0.000 A 
ATOM      8  N   UNL     1      -1.130  10.036  18.008  0.00  0.00    +0.000 NA
ATOM      9  C   UNL     1      -1.292  10.796  19.059  0.00  0.00    +0.000 A 
ATOM     10  N   UNL     1      -0.261  10.908  19.992  0.00  0.00    +0.000 N 
ATOM     11  C   UNL     1       0.945  10.137  19.762  0.00  0.00    +0.000 C 
ATOM     12  C   UNL     1       0.752   9.419  21.094  0.00  0.00    +0.000 C 
ATOM     13  F   UNL     1       1.747   9.583  22.000  0.00  0.00    +0.000 F 
ATOM     14  F   UNL     1       0.514   8.087  21.026  0.00  0.00    +0.000 F 
ATOM     15  C   UNL     1      -0.482  10.299  21.283  0.00  0.00    +0.000 C 
ATOM     16  C   UNL     1      -2.539  11.510  19.140  0.00  0.00    +0.000 A 
ENDROOT
BRANCH   1  18
ATOM     17  C   UNL     1      -1.812  13.883  21.609  0.00  0.00    +0.000 A 
ATOM     18  C   UNL     1      -2.791  12.936  21.302  0.00  0.00    +0.000 A 
ATOM     19  C   UNL     1      -3.322  12.527  22.534  0.00  0.00    +0.000 A 
ATOM     20  N   UNL     1      -2.838  13.231  23.555  0.00  0.00    +0.000 NA
ATOM     21  N   UNL     1      -1.917  14.037  22.979  0.00  0.00    +0.000 N 
ATOM     22  C   UNL     1      -1.215  14.980  23.821  0.00  0.00    +0.000 C 
BRANCH  17  27
ATOM     23  C   UNL     1       2.165  16.393  18.339  0.00  0.00    +0.000 C 
ATOM     24  C   UNL     1       1.087  15.784  19.176  0.00  0.00    +0.000 A 
ATOM     25  C   UNL     1      -0.203  16.302  19.194  0.00  0.00    +0.000 A 
ATOM     26  C   UNL     1      -1.167  15.722  20.016  0.00  0.00    +0.000 A 
ATOM     27  C   UNL     1      -0.841  14.606  20.777  0.00  0.00    +0.000 A 
ATOM     28  N   UNL     1       0.415  14.097  20.787  0.00  0.00    +0.000 NA
ATOM     29  C   UNL     1       1.341  14.692  19.997  0.00  0.00    +0.000 A 
ENDBRANCH  17  27
ENDBRANCH   1  18
TORSDOF 2
ENDMDL
MODEL 5
REMARK VINA RESULT:      -7.1      2.828      4.664
REMARK  Name = 
REMARK  5 active torsions:
REMARK  status: ('A' for Active; 'I' for Inactive)
REMARK    1  A    between atoms: C_1  and  C_2
REMARK    2  A    between atoms: C_5  and  C_6
REMARK    3  A    between atoms: C_7  and  C_8
REMARK    4  A    between atoms: C_10  and  C_11
REMARK    5  A    between atoms: N_26  and  C_27
REMARK                            x       y       z     vdW  Elec       q    Type
REMARK                         _______ _______ _______ _____ _____    ______ ____
ROOT
ATOM      1  C   UNL     1      -2.016  12.058  18.352  0.00  0.00    +0.000 A 
ATOM      2  N   UNL     1      -1.834  11.522  17.099  0.00  0.00    +0.000 NA
ATOM      3  C   UNL     1      -3.023  11.131  16.698  0.00  0.00    +0.000 A 
ATOM      4  C   UNL     1      -3.361  10.626  15.347  0.00  0.00    +0.000 C 
ATOM      5  N   UNL     1      -3.951  11.309  17.691  0.00  0.00    +0.000 N 
ATOM      6  N   UNL     1      -5.251  10.981  17.636  0.00  0.00    +0.000 NA
ATOM      7  C   UNL     1      -5.906  11.291  18.707  0.00  0.00    +0.000 A 
ATOM      8  N   UNL     1      -5.410  11.919  19.817  0.00  0.00    +0.000 NA
ATOM      9  C   UNL     1      -4.150  12.263  19.887  0.00  0.00    +0.000 A 
ATOM     10  N   UNL     1      -3.669  12.877  21.044  0.00  0.00    +0.000 N 
ATOM     11  C   UNL     1      -4.613  13.139  22.112  0.00  0.00    +0.000 C 
ATOM     12  C   UNL     1      -4.311  14.633  22.025  0.00  0.00    +0.000 C 
ATOM     13  F   UNL     1      -3.800  15.195  23.148  0.00  0.00    +0.000 F 
ATOM     14  F   UNL     1      -5.335  15.428  21.633  0.00  0.00    +0.000 F 
ATOM     15  C   UNL     1      -3.304  14.270  20.936  0.00  0.00    +0.000 C 
ATOM     16  C   UNL     1      -3.335  11.922  18.751  0.00  0.00    +0.000 A 
ENDROOT
BRANCH   1  18
ATOM     17  C   UNL     1       0.224  12.135  19.621  0.00  0.00    +0.000 A 
ATOM     18  C   UNL     1      -0.864  12.710  18.962  0.00  0.00    +0.000 A 
ATOM     19  C   UNL     1      -0.679  14.097  19.062  0.00  0.00    +0.000 A 
ATOM     20  N   UNL     1       0.489  14.414  19.617  0.00  0.00    +0.000 NA
ATOM     21  N   UNL     1       1.016  13.216  19.960  0.00  0.00    +0.000 N 
ATOM     22  C   UNL     1       2.329  13.198  20.566  0.00  0.00    +0.000 C 
BRANCH  17  27
ATOM     23  C   UNL     1       1.803   6.725  20.645  0.00  0.00    +0.000 C 
ATOM     24  C   UNL     1       1.362   8.137  20.433  0.00  0.00    +0.000 A 
ATOM     25  C   UNL     1       0.692   8.848  21.422  0.00  0.00    +0.000 A 
ATOM     26  C   UNL     1       0.269  10.151  21.169  0.00  0.00    +0.000 A 
ATOM     27  C   UNL     1       0.560  10.742  19.945  0.00  0.00    +0.000 A 
ATOM     28  N   UNL     1       1.195  10.060  18.962  0.00  0.00    +0.000 NA
ATOM     29  C   UNL     1       1.576   8.787  19.224  0.00  0.00    +0.000 A 
ENDBRANCH  17  27
ENDBRANCH   1  18
TORSDOF 2
ENDMDL
MODEL 6
REMARK VINA RESULT:      -7.1      2.439      5.017
REMARK  Name = 
REMARK  5 active torsions:
REMARK  status: ('A' for Active; 'I' for Inactive)
REMARK    1  A    between atoms: C_1  and  C_2
REMARK    2  A    between atoms: C_5  and  C_6
REMARK    3  A    between atoms: C_7  and  C_8
REMARK    4  A    between atoms: C_10  and  C_11
REMARK    5  A    between atoms: N_26  and  C_27
REMARK                            x       y       z     vdW  Elec       q    Type
REMARK                         _______ _______ _______ _____ _____    ______ ____
ROOT
ATOM      1  C   UNL     1      -3.709  12.634  19.958  0.00  0.00    +0.000 A 
ATOM      2  N   UNL     1      -5.014  12.858  19.589  0.00  0.00    +0.000 NA
ATOM      3  C   UNL     1      -5.223  12.107  18.532  0.00  0.00    +0.000 A 
ATOM      4  C   UNL     1      -6.527  11.894  17.861  0.00  0.00    +0.000 C 
ATOM      5  N   UNL     1      -4.066  11.479  18.148  0.00  0.00    +0.000 N 
ATOM      6  N   UNL     1      -3.911  10.671  17.087  0.00  0.00    +0.000 NA
ATOM      7  C   UNL     1      -2.717  10.186  16.980  0.00  0.00    +0.000 A 
ATOM      8  N   UNL     1      -1.668  10.398  17.832  0.00  0.00    +0.000 NA
ATOM      9  C   UNL     1      -1.799  11.169  18.881  0.00  0.00    +0.000 A 
ATOM     10  N   UNL     1      -0.703  11.387  19.716  0.00  0.00    +0.000 N 
ATOM     11  C   UNL     1       0.537  10.710  19.392  0.00  0.00    +0.000 C 
ATOM     12  C   UNL     1       0.521  10.012  20.750  0.00  0.00    +0.000 C 
ATOM     13  F   UNL     1       1.574  10.278  21.560  0.00  0.00    +0.000 F 
ATOM     14  F   UNL     1       0.388   8.663  20.727  0.00  0.00    +0.000 F 
ATOM     15  C   UNL     1      -0.760  10.794  21.031  0.00  0.00    +0.000 C 
ATOM     16  C   UNL     1      -3.089  11.782  19.059  0.00  0.00    +0.000 A 
ENDROOT
BRANCH   1  18
ATOM     17  C   UNL     1      -2.517  14.398  21.408  0.00  0.00    +0.000 A 
ATOM     18  C   UNL     1      -3.267  13.238  21.209  0.00  0.00    +0.000 A 
ATOM     19  C   UNL     1      -3.464  12.690  22.486  0.00  0.00    +0.000 A 
ATOM     20  N   UNL     1      -3.006  13.481  23.454  0.00  0.00    +0.000 NA
ATOM     21  N   UNL     1      -2.425  14.503  22.783  0.00  0.00    +0.000 N 
ATOM     22  C   UNL     1      -1.848  15.582  23.554  0.00  0.00    +0.000 C 
BRANCH  17  27
ATOM     23  C   UNL     1      -0.017  17.847  17.579  0.00  0.00    +0.000 C 
ATOM     24  C   UNL     1      -0.708  16.995  18.593  0.00  0.00    +0.000 A 
ATOM     25  C   UNL     1      -1.831  17.442  19.279  0.00  0.00    +0.000 A 
ATOM     26  C   UNL     1      -2.423  16.626  20.241  0.00  0.00    +0.000 A 
ATOM     27  C   UNL     1      -1.911  15.356  20.472  0.00  0.00    +0.000 A 
ATOM     28  N   UNL     1      -0.806  14.907  19.828  0.00  0.00    +0.000 NA
ATOM     29  C   UNL     1      -0.235  15.728  18.914  0.00  0.00    +0.000 A 
ENDBRANCH  17  27
ENDBRANCH   1  18
TORSDOF 2
ENDMDL
MODEL 7
REMARK VINA RESULT:      -6.9      2.293      6.142
REMARK  Name = 
REMARK  5 active torsions:
REMARK  status: ('A' for Active; 'I' for Inactive)
REMARK    1  A    between atoms: C_1  and  C_2
REMARK    2  A    between atoms: C_5  and  C_6
REMARK    3  A    between atoms: C_7  and  C_8
REMARK    4  A    between atoms: C_10  and  C_11
REMARK    5  A    between atoms: N_26  and  C_27
REMARK                            x       y       z     vdW  Elec       q    Type
REMARK                         _______ _______ _______ _____ _____    ______ ____
ROOT
ATOM      1  C   UNL     1      -3.098  14.381  20.871  0.00  0.00    +0.000 A 
ATOM      2  N   UNL     1      -3.054  15.700  21.257  0.00  0.00    +0.000 NA
ATOM      3  C   UNL     1      -1.977  16.203  20.696  0.00  0.00    +0.000 A 
ATOM      4  C   UNL     1      -1.584  17.631  20.698  0.00  0.00    +0.000 C 
ATOM      5  N   UNL     1      -1.272  15.227  20.041  0.00  0.00    +0.000 N 
ATOM      6  N   UNL     1      -0.106  15.383  19.395  0.00  0.00    +0.000 NA
ATOM      7  C   UNL     1       0.321  14.299  18.834  0.00  0.00    +0.000 A 
ATOM      8  N   UNL     1      -0.304  13.081  18.825  0.00  0.00    +0.000 NA
ATOM      9  C   UNL     1      -1.448  12.909  19.435  0.00  0.00    +0.000 A 
ATOM     10  N   UNL     1      -2.047  11.648  19.431  0.00  0.00    +0.000 N 
ATOM     11  C   UNL     1      -1.376  10.585  18.710  0.00  0.00    +0.000 C 
ATOM     12  C   UNL     1      -2.600  10.405  17.816  0.00  0.00    +0.000 C 
ATOM     13  F   UNL     1      -3.190   9.186  17.867  0.00  0.00    +0.000 F 
ATOM     14  F   UNL     1      -2.429  10.691  16.503  0.00  0.00    +0.000 F 
ATOM     15  C   UNL     1      -3.253  11.504  18.650  0.00  0.00    +0.000 C 
ATOM     16  C   UNL     1      -1.982  14.057  20.118  0.00  0.00    +0.000 A 
ENDROOT
BRANCH   1  18
ATOM     17  C   UNL     1      -5.526  13.570  20.591  0.00  0.00    +0.000 A 
ATOM     18  C   UNL     1      -4.292  13.629  21.238  0.00  0.00    +0.000 A 
ATOM     19  C   UNL     1      -4.436  12.857  22.400  0.00  0.00    +0.000 A 
ATOM     20  N   UNL     1      -5.611  12.234  22.454  0.00  0.00    +0.000 NA
ATOM     21  N   UNL     1      -6.263  12.687  21.358  0.00  0.00    +0.000 N 
ATOM     22  C   UNL     1      -7.585  12.167  21.089  0.00  0.00    +0.000 C 
BRANCH  17  27
ATOM     23  C   UNL     1      -7.382  16.476  16.016  0.00  0.00    +0.000 C 
ATOM     24  C   UNL     1      -6.908  15.665  17.178  0.00  0.00    +0.000 A 
ATOM     25  C   UNL     1      -6.780  14.282  17.099  0.00  0.00    +0.000 A 
ATOM     26  C   UNL     1      -6.367  13.562  18.218  0.00  0.00    +0.000 A 
ATOM     27  C   UNL     1      -6.046  14.238  19.389  0.00  0.00    +0.000 A 
ATOM     28  N   UNL     1      -6.181  15.582  19.492  0.00  0.00    +0.000 NA
ATOM     29  C   UNL     1      -6.606  16.258  18.398  0.00  0.00    +0.000 A 
ENDBRANCH  17  27
ENDBRANCH   1  18
TORSDOF 2
ENDMDL
MODEL 8
REMARK VINA RESULT:      -6.9      1.729      3.919
REMARK  Name = 
REMARK  5 active torsions:
REMARK  status: ('A' for Active; 'I' for Inactive)
REMARK    1  A    between atoms: C_1  and  C_2
REMARK    2  A    between atoms: C_5  and  C_6
REMARK    3  A    between atoms: C_7  and  C_8
REMARK    4  A    between atoms: C_10  and  C_11
REMARK    5  A    between atoms: N_26  and  C_27
REMARK                            x       y       z     vdW  Elec       q    Type
REMARK                         _______ _______ _______ _____ _____    ______ ____
ROOT
ATOM      1  C   UNL     1      -2.845  12.762  21.625  0.00  0.00    +0.000 A 
ATOM      2  N   UNL     1      -3.314  13.131  22.864  0.00  0.00    +0.000 NA
ATOM      3  C   UNL     1      -4.623  13.042  22.795  0.00  0.00    +0.000 A 
ATOM      4  C   UNL     1      -5.566  13.196  23.927  0.00  0.00    +0.000 C 
ATOM      5  N   UNL     1      -5.020  12.722  21.521  0.00  0.00    +0.000 N 
ATOM      6  N   UNL     1      -6.283  12.591  21.089  0.00  0.00    +0.000 NA
ATOM      7  C   UNL     1      -6.368  12.248  19.845  0.00  0.00    +0.000 A 
ATOM      8  N   UNL     1      -5.328  11.995  18.993  0.00  0.00    +0.000 NA
ATOM      9  C   UNL     1      -4.089  12.101  19.395  0.00  0.00    +0.000 A 
ATOM     10  N   UNL     1      -3.050  11.862  18.495  0.00  0.00    +0.000 N 
ATOM     11  C   UNL     1      -3.404  11.469  17.146  0.00  0.00    +0.000 C 
ATOM     12  C   UNL     1      -2.631  10.164  17.312  0.00  0.00    +0.000 C 
ATOM     13  F   UNL     1      -1.597   9.979  16.455  0.00  0.00    +0.000 F 
ATOM     14  F   UNL     1      -3.365   9.026  17.276  0.00  0.00    +0.000 F 
ATOM     15  C   UNL     1      -2.267  10.668  18.707  0.00  0.00    +0.000 C 
ATOM     16  C   UNL     1      -3.899  12.514  20.761  0.00  0.00    +0.000 A 
ENDROOT
BRANCH   1  18
ATOM     17  C   UNL     1      -0.493  13.493  20.872  0.00  0.00    +0.000 A 
ATOM     18  C   UNL     1      -1.401  12.626  21.482  0.00  0.00    +0.000 A 
ATOM     19  C   UNL     1      -0.649  11.513  21.887  0.00  0.00    +0.000 A 
ATOM     20  N   UNL     1       0.656  11.682  21.687  0.00  0.00    +0.000 NA
ATOM     21  N   UNL     1       0.731  12.879  21.060  0.00  0.00    +0.000 N 
ATOM     22  C   UNL     1       2.041  13.392  20.725  0.00  0.00    +0.000 C 
BRANCH  17  27
ATOM     23  C   UNL     1      -1.183  18.631  18.434  0.00  0.00    +0.000 C 
ATOM     24  C   UNL     1      -0.980  17.269  19.016  0.00  0.00    +0.000 A 
ATOM     25  C   UNL     1      -0.354  16.256  18.299  0.00  0.00    +0.000 A 
ATOM     26  C   UNL     1      -0.216  14.991  18.869  0.00  0.00    +0.000 A 
ATOM     27  C   UNL     1      -0.668  14.769  20.164  0.00  0.00    +0.000 A 
ATOM     28  N   UNL     1      -1.297  15.737  20.872  0.00  0.00    +0.000 NA
ATOM     29  C   UNL     1      -1.440  16.952  20.288  0.00  0.00    +0.000 A 
ENDBRANCH  17  27
ENDBRANCH   1  18
TORSDOF 2
ENDMDL
MODEL 9
REMARK VINA RESULT:      -6.9      2.607      5.797
REMARK  Name = 
REMARK  5 active torsions:
REMARK  status: ('A' for Active; 'I' for Inactive)
REMARK    1  A    between atoms: C_1  and  C_2
REMARK    2  A    between atoms: C_5  and  C_6
REMARK    3  A    between atoms: C_7  and  C_8
REMARK    4  A    between atoms: C_10  and  C_11
REMARK    5  A    between atoms: N_26  and  C_27
REMARK                            x       y       z     vdW  Elec       q    Type
REMARK                         _______ _______ _______ _____ _____    ______ ____
ROOT
ATOM      1  C   UNL     1      -1.283  12.112  22.414  0.00  0.00    +0.000 A 
ATOM      2  N   UNL     1      -1.161  11.103  23.340  0.00  0.00    +0.000 NA
ATOM      3  C   UNL     1      -0.292  10.255  22.836  0.00  0.00    +0.000 A 
ATOM      4  C   UNL     1       0.280   9.080  23.533  0.00  0.00    +0.000 C 
ATOM      5  N   UNL     1       0.076  10.636  21.571  0.00  0.00    +0.000 N 
ATOM      6  N   UNL     1       0.914   9.979  20.753  0.00  0.00    +0.000 NA
ATOM      7  C   UNL     1       1.111  10.583  19.627  0.00  0.00    +0.000 A 
ATOM      8  N   UNL     1       0.585  11.785  19.239  0.00  0.00    +0.000 NA
ATOM      9  C   UNL     1      -0.222  12.450  20.024  0.00  0.00    +0.000 A 
ATOM     10  N   UNL     1      -0.764  13.660  19.589  0.00  0.00    +0.000 N 
ATOM     11  C   UNL     1      -0.372  14.142  18.280  0.00  0.00    +0.000 C 
ATOM     12  C   UNL     1       0.190  15.416  18.906  0.00  0.00    +0.000 C 
ATOM     13  F   UNL     1      -0.387  16.573  18.500  0.00  0.00    +0.000 F 
ATOM     14  F   UNL     1       1.528  15.597  18.795  0.00  0.00    +0.000 F 
ATOM     15  C   UNL     1      -0.291  14.857  20.244  0.00  0.00    +0.000 C 
ATOM     16  C   UNL     1      -0.526  11.833  21.288  0.00  0.00    +0.000 A 
ENDROOT
BRANCH   1  18
ATOM     17  C   UNL     1      -3.364  13.629  22.393  0.00  0.00    +0.000 A 
ATOM     18  C   UNL     1      -2.081  13.268  22.804  0.00  0.00    +0.000 A 
ATOM     19  C   UNL     1      -1.645  14.306  23.643  0.00  0.00    +0.000 A 
ATOM     20  N   UNL     1      -2.599  15.205  23.875  0.00  0.00    +0.000 NA
ATOM     21  N   UNL     1      -3.627  14.787  23.101  0.00  0.00    +0.000 N 
ATOM     22  C   UNL     1      -4.863  15.537  23.148  0.00  0.00    +0.000 C 
BRANCH  17  27
ATOM     23  C   UNL     1      -7.303  11.325  18.930  0.00  0.00    +0.000 C 
ATOM     24  C   UNL     1      -6.237  11.933  19.784  0.00  0.00    +0.000 A 
ATOM     25  C   UNL     1      -5.067  12.445  19.236  0.00  0.00    +0.000 A 
ATOM     26  C   UNL     1      -4.086  12.972  20.073  0.00  0.00    +0.000 A 
ATOM     27  C   UNL     1      -4.307  13.020  21.444  0.00  0.00    +0.000 A 
ATOM     28  N   UNL     1      -5.432  12.509  22.000  0.00  0.00    +0.000 NA
ATOM     29  C   UNL     1      -6.361  11.982  21.167  0.00  0.00    +0.000 A 
ENDBRANCH  17  27
ENDBRANCH   1  18
TORSDOF 2
ENDMDL
