MODEL 1
REMARK VINA RESULT:      -7.8      0.000      0.000
REMARK  Name = 
REMARK  2 active torsions:
REMARK  status: ('A' for Active; 'I' for Inactive)
REMARK    1  A    between atoms: C_1  and  N_2
REMARK    2  A    between atoms: N_18  and  C_19
REMARK                            x       y       z     vdW  Elec       q    Type
REMARK                         _______ _______ _______ _____ _____    ______ ____
ROOT
ATOM      1  C   UNL     1       6.250   5.576  19.281  0.00  0.00    +0.000 C 
ATOM      2  N   UNL     1       6.147   4.927  17.993  0.00  0.00    +0.000 N 
ATOM      3  C   UNL     1       7.208   4.314  17.363  0.00  0.00    +0.000 C 
ATOM      4  O   UNL     1       8.325   4.134  17.818  0.00  0.00    +0.000 OA
ATOM      5  N   UNL     1       6.835   3.963  16.111  0.00  0.00    +0.000 N 
ATOM      6  C   UNL     1       5.563   4.377  15.847  0.00  0.00    +0.000 C 
ATOM      7  O   UNL     1       5.032   4.285  14.749  0.00  0.00    +0.000 OA
ATOM      8  C   UNL     1       4.940   4.954  17.169  0.00  0.00    +0.000 C 
ATOM      9  C   UNL     1       3.906   3.971  17.708  0.00  0.00    +0.000 A 
ATOM     10  C   UNL     1       4.036   2.572  17.620  0.00  0.00    +0.000 A 
ATOM     11  C   UNL     1       3.053   1.730  18.140  0.00  0.00    +0.000 A 
ATOM     12  C   UNL     1       1.938   2.270  18.774  0.00  0.00    +0.000 A 
ATOM     13  C   UNL     1       1.815   3.651  18.907  0.00  0.00    +0.000 A 
ATOM     14  C   UNL     1       2.797   4.489  18.378  0.00  0.00    +0.000 A 
ATOM     15  N   UNL     1       2.671   5.865  18.511  0.00  0.00    +0.000 N 
ATOM     16  C   UNL     1       3.407   6.783  17.827  0.00  0.00    +0.000 C 
ATOM     17  O   UNL     1       3.113   7.973  17.926  0.00  0.00    +0.000 OA
ATOM     18  N   UNL     1       4.396   6.305  17.006  0.00  0.00    +0.000 N 
ATOM     19  C   UNL     1       4.951   7.187  15.993  0.00  0.00    +0.000 C 
ATOM     20  H   UNL     1       7.461   3.563  15.432  0.00  0.00    +0.000 HD
ATOM     21  H   UNL     1       1.891   6.255  19.025  0.00  0.00    +0.000 HD
ENDROOT
TORSDOF 0
ENDMDL
MODEL 2
REMARK VINA RESULT:      -7.2      2.066      3.664
REMARK  Name = 
REMARK  2 active torsions:
REMARK  status: ('A' for Active; 'I' for Inactive)
REMARK    1  A    between atoms: C_1  and  N_2
REMARK    2  A    between atoms: N_18  and  C_19
REMARK                            x       y       z     vdW  Elec       q    Type
REMARK                         _______ _______ _______ _____ _____    ______ ____
ROOT
ATOM      1  C   UNL     1       6.324   4.763  19.108  0.00  0.00    +0.000 C 
ATOM      2  N   UNL     1       5.067   4.130  18.776  0.00  0.00    +0.000 N 
ATOM      3  C   UNL     1       4.594   3.000  19.409  0.00  0.00    +0.000 C 
ATOM      4  O   UNL     1       5.084   2.444  20.377  0.00  0.00    +0.000 OA
ATOM      5  N   UNL     1       3.493   2.558  18.759  0.00  0.00    +0.000 N 
ATOM      6  C   UNL     1       3.238   3.322  17.659  0.00  0.00    +0.000 C 
ATOM      7  O   UNL     1       2.367   3.063  16.839  0.00  0.00    +0.000 OA
ATOM      8  C   UNL     1       4.221   4.547  17.660  0.00  0.00    +0.000 C 
ATOM      9  C   UNL     1       3.449   5.811  18.021  0.00  0.00    +0.000 A 
ATOM     10  C   UNL     1       2.388   5.842  18.946  0.00  0.00    +0.000 A 
ATOM     11  C   UNL     1       1.727   7.037  19.234  0.00  0.00    +0.000 A 
ATOM     12  C   UNL     1       2.129   8.220  18.622  0.00  0.00    +0.000 A 
ATOM     13  C   UNL     1       3.205   8.214  17.737  0.00  0.00    +0.000 A 
ATOM     14  C   UNL     1       3.857   7.015  17.446  0.00  0.00    +0.000 A 
ATOM     15  N   UNL     1       4.928   7.011  16.562  0.00  0.00    +0.000 N 
ATOM     16  C   UNL     1       5.470   5.896  16.002  0.00  0.00    +0.000 C 
ATOM     17  O   UNL     1       6.327   6.026  15.129  0.00  0.00    +0.000 OA
ATOM     18  N   UNL     1       4.967   4.686  16.406  0.00  0.00    +0.000 N 
ATOM     19  C   UNL     1       5.236   3.511  15.594  0.00  0.00    +0.000 C 
ATOM     20  H   UNL     1       3.010   1.707  18.991  0.00  0.00    +0.000 HD
ATOM     21  H   UNL     1       5.258   7.881  16.163  0.00  0.00    +0.000 HD
ENDROOT
TORSDOF 0
ENDMDL
MODEL 3
REMARK VINA RESULT:      -7.2      2.363      3.545
REMARK  Name = 
REMARK  2 active torsions:
REMARK  status: ('A' for Active; 'I' for Inactive)
REMARK    1  A    between atoms: C_1  and  N_2
REMARK    2  A    between atoms: N_18  and  C_19
REMARK                            x       y       z     vdW  Elec       q    Type
REMARK                         _______ _______ _______ _____ _____    ______ ____
ROOT
ATOM      1  C   UNL     1       6.021   4.734  19.401  0.00  0.00    +0.000 C 
ATOM      2  N   UNL     1       4.789   4.030  19.122  0.00  0.00    +0.000 N 
ATOM      3  C   UNL     1       4.518   2.759  19.583  0.00  0.00    +0.000 C 
ATOM      4  O   UNL     1       5.195   2.100  20.353  0.00  0.00    +0.000 OA
ATOM      5  N   UNL     1       3.374   2.317  19.011  0.00  0.00    +0.000 N 
ATOM      6  C   UNL     1       2.890   3.230  18.121  0.00  0.00    +0.000 C 
ATOM      7  O   UNL     1       1.932   3.023  17.388  0.00  0.00    +0.000 OA
ATOM      8  C   UNL     1       3.751   4.540  18.227  0.00  0.00    +0.000 C 
ATOM      9  C   UNL     1       2.934   5.623  18.923  0.00  0.00    +0.000 A 
ATOM     10  C   UNL     1       2.026   5.368  19.968  0.00  0.00    +0.000 A 
ATOM     11  C   UNL     1       1.314   6.409  20.565  0.00  0.00    +0.000 A 
ATOM     12  C   UNL     1       1.514   7.721  20.143  0.00  0.00    +0.000 A 
ATOM     13  C   UNL     1       2.441   7.994  19.140  0.00  0.00    +0.000 A 
ATOM     14  C   UNL     1       3.144   6.948  18.541  0.00  0.00    +0.000 A 
ATOM     15  N   UNL     1       4.066   7.224  17.540  0.00  0.00    +0.000 N 
ATOM     16  C   UNL     1       4.614   6.295  16.710  0.00  0.00    +0.000 C 
ATOM     17  O   UNL     1       5.314   6.675  15.773  0.00  0.00    +0.000 OA
ATOM     18  N   UNL     1       4.285   4.983  16.936  0.00  0.00    +0.000 N 
ATOM     19  C   UNL     1       4.530   4.009  15.887  0.00  0.00    +0.000 C 
ATOM     20  H   UNL     1       3.009   1.389  19.137  0.00  0.00    +0.000 HD
ATOM     21  H   UNL     1       4.255   8.182  17.275  0.00  0.00    +0.000 HD
ENDROOT
TORSDOF 0
ENDMDL
MODEL 4
REMARK VINA RESULT:      -7.1      2.101      4.597
REMARK  Name = 
REMARK  2 active torsions:
REMARK  status: ('A' for Active; 'I' for Inactive)
REMARK    1  A    between atoms: C_1  and  N_2
REMARK    2  A    between atoms: N_18  and  C_19
REMARK                            x       y       z     vdW  Elec       q    Type
REMARK                         _______ _______ _______ _____ _____    ______ ____
ROOT
ATOM      1  C   UNL     1       3.245   6.207  18.022  0.00  0.00    +0.000 C 
ATOM      2  N   UNL     1       3.217   4.797  17.700  0.00  0.00    +0.000 N 
ATOM      3  C   UNL     1       2.055   4.095  17.461  0.00  0.00    +0.000 C 
ATOM      4  O   UNL     1       0.928   4.552  17.379  0.00  0.00    +0.000 OA
ATOM      5  N   UNL     1       2.348   2.778  17.365  0.00  0.00    +0.000 N 
ATOM      6  C   UNL     1       3.673   2.555  17.595  0.00  0.00    +0.000 C 
ATOM      7  O   UNL     1       4.170   1.440  17.679  0.00  0.00    +0.000 OA
ATOM      8  C   UNL     1       4.402   3.942  17.709  0.00  0.00    +0.000 C 
ATOM      9  C   UNL     1       5.237   4.176  16.455  0.00  0.00    +0.000 A 
ATOM     10  C   UNL     1       4.846   3.764  15.167  0.00  0.00    +0.000 A 
ATOM     11  C   UNL     1       5.657   4.016  14.060  0.00  0.00    +0.000 A 
ATOM     12  C   UNL     1       6.858   4.701  14.219  0.00  0.00    +0.000 A 
ATOM     13  C   UNL     1       7.239   5.154  15.480  0.00  0.00    +0.000 A 
ATOM     14  C   UNL     1       6.427   4.892  16.585  0.00  0.00    +0.000 A 
ATOM     15  N   UNL     1       6.810   5.343  17.841  0.00  0.00    +0.000 N 
ATOM     16  C   UNL     1       6.255   4.937  19.015  0.00  0.00    +0.000 C 
ATOM     17  O   UNL     1       6.767   5.302  20.072  0.00  0.00    +0.000 OA
ATOM     18  N   UNL     1       5.188   4.078  18.939  0.00  0.00    +0.000 N 
ATOM     19  C   UNL     1       4.802   3.335  20.126  0.00  0.00    +0.000 C 
ATOM     20  H   UNL     1       1.654   2.057  17.262  0.00  0.00    +0.000 HD
ATOM     21  H   UNL     1       7.652   5.893  17.947  0.00  0.00    +0.000 HD
ENDROOT
TORSDOF 0
ENDMDL
MODEL 5
REMARK VINA RESULT:      -6.7      2.789      4.476
REMARK  Name = 
REMARK  2 active torsions:
REMARK  status: ('A' for Active; 'I' for Inactive)
REMARK    1  A    between atoms: C_1  and  N_2
REMARK    2  A    between atoms: N_18  and  C_19
REMARK                            x       y       z     vdW  Elec       q    Type
REMARK                         _______ _______ _______ _____ _____    ______ ____
ROOT
ATOM      1  C   UNL     1       2.149   2.838  17.757  0.00  0.00    +0.000 C 
ATOM      2  N   UNL     1       3.396   3.527  18.002  0.00  0.00    +0.000 N 
ATOM      3  C   UNL     1       4.399   3.642  17.063  0.00  0.00    +0.000 C 
ATOM      4  O   UNL     1       4.351   3.294  15.895  0.00  0.00    +0.000 OA
ATOM      5  N   UNL     1       5.493   4.180  17.649  0.00  0.00    +0.000 N 
ATOM      6  C   UNL     1       5.284   4.377  18.982  0.00  0.00    +0.000 C 
ATOM      7  O   UNL     1       6.155   4.745  19.758  0.00  0.00    +0.000 OA
ATOM      8  C   UNL     1       3.778   4.070  19.304  0.00  0.00    +0.000 C 
ATOM      9  C   UNL     1       3.043   5.380  19.570  0.00  0.00    +0.000 A 
ATOM     10  C   UNL     1       3.320   6.583  18.893  0.00  0.00    +0.000 A 
ATOM     11  C   UNL     1       2.604   7.745  19.182  0.00  0.00    +0.000 A 
ATOM     12  C   UNL     1       1.589   7.719  20.134  0.00  0.00    +0.000 A 
ATOM     13  C   UNL     1       1.274   6.526  20.782  0.00  0.00    +0.000 A 
ATOM     14  C   UNL     1       1.999   5.369  20.494  0.00  0.00    +0.000 A 
ATOM     15  N   UNL     1       1.684   4.182  21.143  0.00  0.00    +0.000 N 
ATOM     16  C   UNL     1       2.465   3.068  21.149  0.00  0.00    +0.000 C 
ATOM     17  O   UNL     1       2.149   2.124  21.869  0.00  0.00    +0.000 OA
ATOM     18  N   UNL     1       3.609   3.103  20.393  0.00  0.00    +0.000 N 
ATOM     19  C   UNL     1       4.645   2.116  20.645  0.00  0.00    +0.000 C 
ATOM     20  H   UNL     1       6.376   4.297  17.182  0.00  0.00    +0.000 HD
ATOM     21  H   UNL     1       0.907   4.149  21.790  0.00  0.00    +0.000 HD
ENDROOT
TORSDOF 0
ENDMDL
MODEL 6
REMARK VINA RESULT:      -6.7      2.412      4.341
REMARK  Name = 
REMARK  2 active torsions:
REMARK  status: ('A' for Active; 'I' for Inactive)
REMARK    1  A    between atoms: C_1  and  N_2
REMARK    2  A    between atoms: N_18  and  C_19
REMARK                            x       y       z     vdW  Elec       q    Type
REMARK                         _______ _______ _______ _____ _____    ______ ____
ROOT
ATOM      1  C   UNL     1       1.044   4.290  17.429  0.00  0.00    +0.000 C 
ATOM      2  N   UNL     1       2.167   3.591  18.014  0.00  0.00    +0.000 N 
ATOM      3  C   UNL     1       2.181   2.232  18.244  0.00  0.00    +0.000 C 
ATOM      4  O   UNL     1       1.333   1.424  17.905  0.00  0.00    +0.000 OA
ATOM      5  N   UNL     1       3.288   1.916  18.955  0.00  0.00    +0.000 N 
ATOM      6  C   UNL     1       3.999   3.036  19.272  0.00  0.00    +0.000 C 
ATOM      7  O   UNL     1       4.978   3.034  20.005  0.00  0.00    +0.000 OA
ATOM      8  C   UNL     1       3.356   4.264  18.533  0.00  0.00    +0.000 C 
ATOM      9  C   UNL     1       4.266   4.694  17.387  0.00  0.00    +0.000 A 
ATOM     10  C   UNL     1       5.013   3.796  16.603  0.00  0.00    +0.000 A 
ATOM     11  C   UNL     1       5.823   4.259  15.564  0.00  0.00    +0.000 A 
ATOM     12  C   UNL     1       5.881   5.620  15.281  0.00  0.00    +0.000 A 
ATOM     13  C   UNL     1       5.114   6.518  16.020  0.00  0.00    +0.000 A 
ATOM     14  C   UNL     1       4.313   6.051  17.063  0.00  0.00    +0.000 A 
ATOM     15  N   UNL     1       3.551   6.948  17.799  0.00  0.00    +0.000 N 
ATOM     16  C   UNL     1       2.944   6.663  18.983  0.00  0.00    +0.000 C 
ATOM     17  O   UNL     1       2.410   7.576  19.611  0.00  0.00    +0.000 OA
ATOM     18  N   UNL     1       3.031   5.372  19.436  0.00  0.00    +0.000 N 
ATOM     19  C   UNL     1       2.735   5.099  20.832  0.00  0.00    +0.000 C 
ATOM     20  H   UNL     1       3.484   0.994  19.304  0.00  0.00    +0.000 HD
ATOM     21  H   UNL     1       3.547   7.930  17.554  0.00  0.00    +0.000 HD
ENDROOT
TORSDOF 0
ENDMDL
MODEL 7
REMARK VINA RESULT:      -6.5      2.212      4.021
REMARK  Name = 
REMARK  2 active torsions:
REMARK  status: ('A' for Active; 'I' for Inactive)
REMARK    1  A    between atoms: C_1  and  N_2
REMARK    2  A    between atoms: N_18  and  C_19
REMARK                            x       y       z     vdW  Elec       q    Type
REMARK                         _______ _______ _______ _____ _____    ______ ____
ROOT
ATOM      1  C   UNL     1       2.981   3.081  16.701  0.00  0.00    +0.000 C 
ATOM      2  N   UNL     1       4.177   3.725  17.196  0.00  0.00    +0.000 N 
ATOM      3  C   UNL     1       5.384   3.704  16.530  0.00  0.00    +0.000 C 
ATOM      4  O   UNL     1       5.597   3.256  15.417  0.00  0.00    +0.000 OA
ATOM      5  N   UNL     1       6.338   4.237  17.328  0.00  0.00    +0.000 N 
ATOM      6  C   UNL     1       5.825   4.563  18.549  0.00  0.00    +0.000 C 
ATOM      7  O   UNL     1       6.504   4.955  19.488  0.00  0.00    +0.000 OA
ATOM      8  C   UNL     1       4.268   4.363  18.508  0.00  0.00    +0.000 C 
ATOM      9  C   UNL     1       3.586   5.727  18.484  0.00  0.00    +0.000 A 
ATOM     10  C   UNL     1       4.104   6.849  17.810  0.00  0.00    +0.000 A 
ATOM     11  C   UNL     1       3.424   8.067  17.825  0.00  0.00    +0.000 A 
ATOM     12  C   UNL     1       2.208   8.178  18.493  0.00  0.00    +0.000 A 
ATOM     13  C   UNL     1       1.661   7.066  19.129  0.00  0.00    +0.000 A 
ATOM     14  C   UNL     1       2.349   5.852  19.118  0.00  0.00    +0.000 A 
ATOM     15  N   UNL     1       1.802   4.746  19.755  0.00  0.00    +0.000 N 
ATOM     16  C   UNL     1       2.477   3.599  20.038  0.00  0.00    +0.000 C 
ATOM     17  O   UNL     1       1.928   2.740  20.725  0.00  0.00    +0.000 OA
ATOM     18  N   UNL     1       3.770   3.507  19.589  0.00  0.00    +0.000 N 
ATOM     19  C   UNL     1       4.640   2.496  20.165  0.00  0.00    +0.000 C 
ATOM     20  H   UNL     1       7.314   4.267  17.089  0.00  0.00    +0.000 HD
ATOM     21  H   UNL     1       0.890   4.811  20.189  0.00  0.00    +0.000 HD
ENDROOT
TORSDOF 0
ENDMDL
MODEL 8
REMARK VINA RESULT:      -6.5      2.692      4.624
REMARK  Name = 
REMARK  2 active torsions:
REMARK  status: ('A' for Active; 'I' for Inactive)
REMARK    1  A    between atoms: C_1  and  N_2
REMARK    2  A    between atoms: N_18  and  C_19
REMARK                            x       y       z     vdW  Elec       q    Type
REMARK                         _______ _______ _______ _____ _____    ______ ____
ROOT
ATOM      1  C   UNL     1       1.012   3.103  18.371  0.00  0.00    +0.000 C 
ATOM      2  N   UNL     1       2.352   3.556  18.073  0.00  0.00    +0.000 N 
ATOM      3  C   UNL     1       3.011   3.261  16.899  0.00  0.00    +0.000 C 
ATOM      4  O   UNL     1       2.551   2.692  15.925  0.00  0.00    +0.000 OA
ATOM      5  N   UNL     1       4.296   3.675  16.999  0.00  0.00    +0.000 N 
ATOM      6  C   UNL     1       4.548   4.188  18.236  0.00  0.00    +0.000 C 
ATOM      7  O   UNL     1       5.660   4.526  18.619  0.00  0.00    +0.000 OA
ATOM      8  C   UNL     1       3.195   4.273  19.030  0.00  0.00    +0.000 C 
ATOM      9  C   UNL     1       2.761   5.731  19.131  0.00  0.00    +0.000 A 
ATOM     10  C   UNL     1       2.965   6.680  18.112  0.00  0.00    +0.000 A 
ATOM     11  C   UNL     1       2.538   8.000  18.269  0.00  0.00    +0.000 A 
ATOM     12  C   UNL     1       1.882   8.384  19.435  0.00  0.00    +0.000 A 
ATOM     13  C   UNL     1       1.634   7.447  20.435  0.00  0.00    +0.000 A 
ATOM     14  C   UNL     1       2.071   6.131  20.276  0.00  0.00    +0.000 A 
ATOM     15  N   UNL     1       1.825   5.199  21.275  0.00  0.00    +0.000 N 
ATOM     16  C   UNL     1       2.413   3.975  21.360  0.00  0.00    +0.000 C 
ATOM     17  O   UNL     1       2.220   3.290  22.362  0.00  0.00    +0.000 OA
ATOM     18  N   UNL     1       3.253   3.613  20.337  0.00  0.00    +0.000 N 
ATOM     19  C   UNL     1       4.176   2.511  20.547  0.00  0.00    +0.000 C 
ATOM     20  H   UNL     1       4.993   3.507  16.294  0.00  0.00    +0.000 HD
ATOM     21  H   UNL     1       1.295   5.464  22.096  0.00  0.00    +0.000 HD
ENDROOT
TORSDOF 0
ENDMDL
MODEL 9
REMARK VINA RESULT:      -6.4      6.516      8.550
REMARK  Name = 
REMARK  2 active torsions:
REMARK  status: ('A' for Active; 'I' for Inactive)
REMARK    1  A    between atoms: C_1  and  N_2
REMARK    2  A    between atoms: N_18  and  C_19
REMARK                            x       y       z     vdW  Elec       q    Type
REMARK                         _______ _______ _______ _____ _____    ______ ____
ROOT
ATOM      1  C   UNL     1       1.917  12.854  20.704  0.00  0.00    +0.000 C 
ATOM      2  N   UNL     1       0.919  12.515  19.714  0.00  0.00    +0.000 N 
ATOM      3  C   UNL     1       0.626  13.311  18.627  0.00  0.00    +0.000 C 
ATOM      4  O   UNL     1       1.211  14.324  18.283  0.00  0.00    +0.000 OA
ATOM      5  N   UNL     1      -0.462  12.812  17.995  0.00  0.00    +0.000 N 
ATOM      6  C   UNL     1      -0.959  11.731  18.661  0.00  0.00    +0.000 C 
ATOM      7  O   UNL     1      -2.003  11.169  18.361  0.00  0.00    +0.000 OA
ATOM      8  C   UNL     1       0.032  11.358  19.822  0.00  0.00    +0.000 C 
ATOM      9  C   UNL     1       0.779  10.081  19.455  0.00  0.00    +0.000 A 
ATOM     10  C   UNL     1       1.179   9.758  18.144  0.00  0.00    +0.000 A 
ATOM     11  C   UNL     1       1.865   8.572  17.879  0.00  0.00    +0.000 A 
ATOM     12  C   UNL     1       2.181   7.703  18.919  0.00  0.00    +0.000 A 
ATOM     13  C   UNL     1       1.830   8.028  20.227  0.00  0.00    +0.000 A 
ATOM     14  C   UNL     1       1.137   9.211  20.486  0.00  0.00    +0.000 A 
ATOM     15  N   UNL     1       0.787   9.532  21.791  0.00  0.00    +0.000 N 
ATOM     16  C   UNL     1      -0.100  10.503  22.141  0.00  0.00    +0.000 C 
ATOM     17  O   UNL     1      -0.433  10.605  23.321  0.00  0.00    +0.000 OA
ATOM     18  N   UNL     1      -0.623  11.267  21.130  0.00  0.00    +0.000 N 
ATOM     19  C   UNL     1      -1.821  12.046  21.390  0.00  0.00    +0.000 C 
ATOM     20  H   UNL     1      -0.909  13.260  17.214  0.00  0.00    +0.000 HD
ATOM     21  H   UNL     1       1.069   8.930  22.553  0.00  0.00    +0.000 HD
ENDROOT
TORSDOF 0
ENDMDL
