MODEL 1
REMARK VINA RESULT:      -7.2      0.000      0.000
REMARK  Name = 
REMARK  6 active torsions:
REMARK  status: ('A' for Active; 'I' for Inactive)
REMARK    1  A    between atoms: C_2  and  C_3
REMARK    2  A    between atoms: C_4  and  C_5
REMARK    3  A    between atoms: C_8  and  C_9
REMARK    4  A    between atoms: C_17  and  C_18
REMARK    5  A    between atoms: C_18  and  O_19
REMARK    6  A    between atoms: N_23  and  C_24
REMARK                            x       y       z     vdW  Elec       q    Type
REMARK                         _______ _______ _______ _____ _____    ______ ____
ROOT
ATOM      1  C   UNL     1      -1.580  11.783  18.988  0.00  0.00    +0.000 C 
ATOM      2  C   UNL     1      -0.264  11.571  19.779  0.00  0.00    +0.000 C 
ATOM      3  C   UNL     1      -1.115  11.509  21.077  0.00  0.00    +0.000 C 
ATOM      4  N   UNL     1      -2.189  12.099  20.273  0.00  0.00    +0.000 N 
ATOM      5  C   UNL     1      -3.435  12.537  20.614  0.00  0.00    +0.000 C 
ATOM      6  O   UNL     1      -3.802  12.604  21.782  0.00  0.00    +0.000 OA
ATOM      7  N   UNL     1      -4.189  12.943  19.540  0.00  0.00    +0.000 N 
ATOM      8  H   UNL     1      -3.874  12.703  18.615  0.00  0.00    +0.000 HD
ENDROOT
BRANCH   2   9
ATOM      9  C   UNL     1       0.696  10.371  19.378  0.00  0.00    +0.000 A 
ATOM     10  C   UNL     1       1.332  10.334  18.119  0.00  0.00    +0.000 A 
ATOM     11  C   UNL     1       2.075   9.226  17.698  0.00  0.00    +0.000 A 
ATOM     12  C   UNL     1       2.200   8.115  18.528  0.00  0.00    +0.000 A 
ATOM     13  C   UNL     1       1.632   8.145  19.798  0.00  0.00    +0.000 A 
ATOM     14  C   UNL     1       0.909   9.262  20.218  0.00  0.00    +0.000 A 
BRANCH  12  15
ATOM     15  C   UNL     1       2.932   6.921  18.101  0.00  0.00    +0.000 C 
ATOM     16  C   UNL     1       4.092   7.061  17.441  0.00  0.00    +0.000 C 
ATOM     17  C   UNL     1       4.932   5.895  17.016  0.00  0.00    +0.000 C 
ATOM     18  C   UNL     1       4.183   4.565  17.089  0.00  0.00    +0.000 C 
ATOM     19  C   UNL     1       3.384   4.451  18.384  0.00  0.00    +0.000 C 
ATOM     20  C   UNL     1       2.362   5.586  18.509  0.00  0.00    +0.000 C 
ENDBRANCH  12  15
ENDBRANCH   2   9
BRANCH   7  21
ATOM     21  C   UNL     1      -5.565  13.377  19.643  0.00  0.00    +0.000 C 
ATOM     22  C   UNL     1      -5.667  14.881  19.882  0.00  0.00    +0.000 C 
ATOM     23  C   UNL     1      -7.126  15.182  19.575  0.00  0.00    +0.000 C 
ATOM     24  C   UNL     1      -7.522  14.191  18.480  0.00  0.00    +0.000 C 
ATOM     25  C   UNL     1      -6.349  13.218  18.340  0.00  0.00    +0.000 C 
ENDBRANCH   7  21
BRANCH   1  27
ATOM     26  N   UNL     1      -2.680   9.714  17.836  0.00  0.00    +0.000 NA
ATOM     27  C   UNL     1      -2.216  10.646  18.342  0.00  0.00    +0.000 C 
ENDBRANCH   1  27
BRANCH   3  28
ATOM     28  C   UNL     1      -0.608  12.407  22.198  0.00  0.00    +0.000 C 
BRANCH  28  29
ATOM     29  O   UNL     1      -1.185  12.021  23.439  0.00  0.00    +0.000 OA
ATOM     30  H   UNL     1      -1.243  12.826  23.998  0.00  0.00    +0.000 HD
ENDBRANCH  28  29
ENDBRANCH   3  28
TORSDOF 6
ENDMDL
MODEL 2
REMARK VINA RESULT:      -7.2      0.684      1.379
REMARK  Name = 
REMARK  6 active torsions:
REMARK  status: ('A' for Active; 'I' for Inactive)
REMARK    1  A    between atoms: C_2  and  C_3
REMARK    2  A    between atoms: C_4  and  C_5
REMARK    3  A    between atoms: C_8  and  C_9
REMARK    4  A    between atoms: C_17  and  C_18
REMARK    5  A    between atoms: C_18  and  O_19
REMARK    6  A    between atoms: N_23  and  C_24
REMARK                            x       y       z     vdW  Elec       q    Type
REMARK                         _______ _______ _______ _____ _____    ______ ____
ROOT
ATOM      1  C   UNL     1      -1.398  11.663  18.926  0.00  0.00    +0.000 C 
ATOM      2  C   UNL     1      -0.093  11.409  19.724  0.00  0.00    +0.000 C 
ATOM      3  C   UNL     1      -0.953  11.372  21.017  0.00  0.00    +0.000 C 
ATOM      4  N   UNL     1      -2.004  11.996  20.208  0.00  0.00    +0.000 N 
ATOM      5  C   UNL     1      -3.237  12.472  20.544  0.00  0.00    +0.000 C 
ATOM      6  O   UNL     1      -3.608  12.549  21.710  0.00  0.00    +0.000 OA
ATOM      7  N   UNL     1      -3.972  12.902  19.466  0.00  0.00    +0.000 N 
ATOM      8  H   UNL     1      -3.660  12.655  18.542  0.00  0.00    +0.000 HD
ENDROOT
BRANCH   2   9
ATOM      9  C   UNL     1       0.831  10.180  19.326  0.00  0.00    +0.000 A 
ATOM     10  C   UNL     1       1.422  10.094  18.048  0.00  0.00    +0.000 A 
ATOM     11  C   UNL     1       2.130   8.961  17.634  0.00  0.00    +0.000 A 
ATOM     12  C   UNL     1       2.266   7.873  18.492  0.00  0.00    +0.000 A 
ATOM     13  C   UNL     1       1.742   7.951  19.781  0.00  0.00    +0.000 A 
ATOM     14  C   UNL     1       1.055   9.092  20.191  0.00  0.00    +0.000 A 
BRANCH  12  15
ATOM     15  C   UNL     1       2.961   6.654  18.077  0.00  0.00    +0.000 C 
ATOM     16  C   UNL     1       2.344   5.469  18.205  0.00  0.00    +0.000 C 
ATOM     17  C   UNL     1       2.960   4.179  17.754  0.00  0.00    +0.000 C 
ATOM     18  C   UNL     1       4.458   4.301  17.475  0.00  0.00    +0.000 C 
ATOM     19  C   UNL     1       4.772   5.569  16.687  0.00  0.00    +0.000 C 
ATOM     20  C   UNL     1       4.320   6.821  17.446  0.00  0.00    +0.000 C 
ENDBRANCH  12  15
ENDBRANCH   2   9
BRANCH   7  21
ATOM     21  C   UNL     1      -5.335  13.379  19.562  0.00  0.00    +0.000 C 
ATOM     22  C   UNL     1      -6.263  12.321  20.154  0.00  0.00    +0.000 C 
ATOM     23  C   UNL     1      -7.506  13.118  20.522  0.00  0.00    +0.000 C 
ATOM     24  C   UNL     1      -6.995  14.507  20.910  0.00  0.00    +0.000 C 
ATOM     25  C   UNL     1      -5.506  14.529  20.553  0.00  0.00    +0.000 C 
ENDBRANCH   7  21
BRANCH   1  27
ATOM     26  N   UNL     1      -2.625   9.693  17.731  0.00  0.00    +0.000 NA
ATOM     27  C   UNL     1      -2.065  10.548  18.275  0.00  0.00    +0.000 C 
ENDBRANCH   1  27
BRANCH   3  28
ATOM     28  C   UNL     1      -0.424  12.252  22.142  0.00  0.00    +0.000 C 
BRANCH  28  29
ATOM     29  O   UNL     1      -1.091  11.949  23.361  0.00  0.00    +0.000 OA
ATOM     30  H   UNL     1      -1.792  11.294  23.156  0.00  0.00    +0.000 HD
ENDBRANCH  28  29
ENDBRANCH   3  28
TORSDOF 6
ENDMDL
MODEL 3
REMARK VINA RESULT:      -7.1      4.037      6.729
REMARK  Name = 
REMARK  6 active torsions:
REMARK  status: ('A' for Active; 'I' for Inactive)
REMARK    1  A    between atoms: C_2  and  C_3
REMARK    2  A    between atoms: C_4  and  C_5
REMARK    3  A    between atoms: C_8  and  C_9
REMARK    4  A    between atoms: C_17  and  C_18
REMARK    5  A    between atoms: C_18  and  O_19
REMARK    6  A    between atoms: N_23  and  C_24
REMARK                            x       y       z     vdW  Elec       q    Type
REMARK                         _______ _______ _______ _____ _____    ______ ____
ROOT
ATOM      1  C   UNL     1       2.968   7.334  19.497  0.00  0.00    +0.000 C 
ATOM      2  C   UNL     1       3.519   5.888  19.403  0.00  0.00    +0.000 C 
ATOM      3  C   UNL     1       2.087   5.379  19.726  0.00  0.00    +0.000 C 
ATOM      4  N   UNL     1       1.813   6.749  20.165  0.00  0.00    +0.000 N 
ATOM      5  C   UNL     1       0.718   7.305  20.757  0.00  0.00    +0.000 C 
ATOM      6  O   UNL     1      -0.229   6.626  21.139  0.00  0.00    +0.000 OA
ATOM      7  N   UNL     1       0.816   8.664  20.929  0.00  0.00    +0.000 N 
ATOM      8  H   UNL     1       1.547   9.158  20.445  0.00  0.00    +0.000 HD
ENDROOT
BRANCH   2   9
ATOM      9  C   UNL     1       4.266   5.428  18.080  0.00  0.00    +0.000 A 
ATOM     10  C   UNL     1       5.209   6.264  17.446  0.00  0.00    +0.000 A 
ATOM     11  C   UNL     1       5.780   5.933  16.212  0.00  0.00    +0.000 A 
ATOM     12  C   UNL     1       5.419   4.751  15.572  0.00  0.00    +0.000 A 
ATOM     13  C   UNL     1       4.534   3.878  16.200  0.00  0.00    +0.000 A 
ATOM     14  C   UNL     1       3.984   4.206  17.439  0.00  0.00    +0.000 A 
BRANCH  12  15
ATOM     15  C   UNL     1       5.962   4.395  14.260  0.00  0.00    +0.000 C 
ATOM     16  C   UNL     1       5.230   3.639  13.428  0.00  0.00    +0.000 C 
ATOM     17  C   UNL     1       5.685   3.274  12.047  0.00  0.00    +0.000 C 
ATOM     18  C   UNL     1       7.174   3.539  11.823  0.00  0.00    +0.000 C 
ATOM     19  C   UNL     1       7.585   4.896  12.389  0.00  0.00    +0.000 C 
ATOM     20  C   UNL     1       7.302   4.980  13.892  0.00  0.00    +0.000 C 
ENDBRANCH  12  15
ENDBRANCH   2   9
BRANCH   7  21
ATOM     21  C   UNL     1      -0.248   9.486  21.466  0.00  0.00    +0.000 C 
ATOM     22  C   UNL     1      -0.123   9.655  22.978  0.00  0.00    +0.000 C 
ATOM     23  C   UNL     1      -1.057  10.819  23.274  0.00  0.00    +0.000 C 
ATOM     24  C   UNL     1      -0.993  11.714  22.035  0.00  0.00    +0.000 C 
ATOM     25  C   UNL     1      -0.194  10.936  20.987  0.00  0.00    +0.000 C 
ENDBRANCH   7  21
BRANCH   1  27
ATOM     26  N   UNL     1       2.356   8.590  17.291  0.00  0.00    +0.000 NA
ATOM     27  C   UNL     1       2.602   8.039  18.280  0.00  0.00    +0.000 C 
ENDBRANCH   1  27
BRANCH   3  28
ATOM     28  C   UNL     1       2.031   4.342  20.841  0.00  0.00    +0.000 C 
BRANCH  28  29
ATOM     29  O   UNL     1       0.804   3.624  20.787  0.00  0.00    +0.000 OA
ATOM     30  H   UNL     1       0.084   4.284  20.687  0.00  0.00    +0.000 HD
ENDBRANCH  28  29
ENDBRANCH   3  28
TORSDOF 6
ENDMDL
MODEL 4
REMARK VINA RESULT:      -7.0      0.796      1.407
REMARK  Name = 
REMARK  6 active torsions:
REMARK  status: ('A' for Active; 'I' for Inactive)
REMARK    1  A    between atoms: C_2  and  C_3
REMARK    2  A    between atoms: C_4  and  C_5
REMARK    3  A    between atoms: C_8  and  C_9
REMARK    4  A    between atoms: C_17  and  C_18
REMARK    5  A    between atoms: C_18  and  O_19
REMARK    6  A    between atoms: N_23  and  C_24
REMARK                            x       y       z     vdW  Elec       q    Type
REMARK                         _______ _______ _______ _____ _____    ______ ____
ROOT
ATOM      1  C   UNL     1      -1.506  11.569  18.876  0.00  0.00    +0.000 C 
ATOM      2  C   UNL     1      -0.192  11.279  19.647  0.00  0.00    +0.000 C 
ATOM      3  C   UNL     1      -1.018  11.320  20.963  0.00  0.00    +0.000 C 
ATOM      4  N   UNL     1      -2.061  11.968  20.163  0.00  0.00    +0.000 N 
ATOM      5  C   UNL     1      -3.261  12.510  20.515  0.00  0.00    +0.000 C 
ATOM      6  O   UNL     1      -3.597  12.638  21.687  0.00  0.00    +0.000 OA
ATOM      7  N   UNL     1      -4.005  12.941  19.444  0.00  0.00    +0.000 N 
ATOM      8  H   UNL     1      -3.730  12.652  18.520  0.00  0.00    +0.000 HD
ENDROOT
BRANCH   2   9
ATOM      9  C   UNL     1       0.664   9.998  19.264  0.00  0.00    +0.000 A 
ATOM     10  C   UNL     1       0.976   9.014  20.226  0.00  0.00    +0.000 A 
ATOM     11  C   UNL     1       1.835   7.947  19.941  0.00  0.00    +0.000 A 
ATOM     12  C   UNL     1       2.414   7.836  18.680  0.00  0.00    +0.000 A 
ATOM     13  C   UNL     1       2.081   8.760  17.693  0.00  0.00    +0.000 A 
ATOM     14  C   UNL     1       1.207   9.809  17.979  0.00  0.00    +0.000 A 
BRANCH  12  15
ATOM     15  C   UNL     1       3.353   6.759  18.362  0.00  0.00    +0.000 C 
ATOM     16  C   UNL     1       4.100   6.845  17.251  0.00  0.00    +0.000 C 
ATOM     17  C   UNL     1       5.124   5.816  16.878  0.00  0.00    +0.000 C 
ATOM     18  C   UNL     1       4.983   4.520  17.676  0.00  0.00    +0.000 C 
ATOM     19  C   UNL     1       4.746   4.806  19.156  0.00  0.00    +0.000 C 
ATOM     20  C   UNL     1       3.479   5.641  19.365  0.00  0.00    +0.000 C 
ENDBRANCH  12  15
ENDBRANCH   2   9
BRANCH   7  21
ATOM     21  C   UNL     1      -5.342  13.483  19.560  0.00  0.00    +0.000 C 
ATOM     22  C   UNL     1      -6.303  12.485  20.201  0.00  0.00    +0.000 C 
ATOM     23  C   UNL     1      -7.498  13.347  20.579  0.00  0.00    +0.000 C 
ATOM     24  C   UNL     1      -6.914  14.720  20.918  0.00  0.00    +0.000 C 
ATOM     25  C   UNL     1      -5.435  14.665  20.525  0.00  0.00    +0.000 C 
ENDBRANCH   7  21
BRANCH   1  27
ATOM     26  N   UNL     1      -2.868   9.609  17.818  0.00  0.00    +0.000 NA
ATOM     27  C   UNL     1      -2.240  10.467  18.277  0.00  0.00    +0.000 C 
ENDBRANCH   1  27
BRANCH   3  28
ATOM     28  C   UNL     1      -0.419  12.208  22.046  0.00  0.00    +0.000 C 
BRANCH  28  29
ATOM     29  O   UNL     1      -1.058  11.965  23.293  0.00  0.00    +0.000 OA
ATOM     30  H   UNL     1      -0.985  11.004  23.476  0.00  0.00    +0.000 HD
ENDBRANCH  28  29
ENDBRANCH   3  28
TORSDOF 6
ENDMDL
MODEL 5
REMARK VINA RESULT:      -6.9      0.646      1.413
REMARK  Name = 
REMARK  6 active torsions:
REMARK  status: ('A' for Active; 'I' for Inactive)
REMARK    1  A    between atoms: C_2  and  C_3
REMARK    2  A    between atoms: C_4  and  C_5
REMARK    3  A    between atoms: C_8  and  C_9
REMARK    4  A    between atoms: C_17  and  C_18
REMARK    5  A    between atoms: C_18  and  O_19
REMARK    6  A    between atoms: N_23  and  C_24
REMARK                            x       y       z     vdW  Elec       q    Type
REMARK                         _______ _______ _______ _____ _____    ______ ____
ROOT
ATOM      1  C   UNL     1      -1.982  11.639  18.725  0.00  0.00    +0.000 C 
ATOM      2  C   UNL     1      -0.659  11.478  19.516  0.00  0.00    +0.000 C 
ATOM      3  C   UNL     1      -1.490  11.590  20.824  0.00  0.00    +0.000 C 
ATOM      4  N   UNL     1      -2.560  12.117  19.973  0.00  0.00    +0.000 N 
ATOM      5  C   UNL     1      -3.786  12.629  20.279  0.00  0.00    +0.000 C 
ATOM      6  O   UNL     1      -4.132  12.839  21.437  0.00  0.00    +0.000 OA
ATOM      7  N   UNL     1      -4.547  12.932  19.176  0.00  0.00    +0.000 N 
ATOM      8  H   UNL     1      -4.255  12.580  18.280  0.00  0.00    +0.000 HD
ENDROOT
BRANCH   2   9
ATOM      9  C   UNL     1       0.259  10.212  19.242  0.00  0.00    +0.000 A 
ATOM     10  C   UNL     1       0.609   9.325  20.282  0.00  0.00    +0.000 A 
ATOM     11  C   UNL     1       1.520   8.281  20.089  0.00  0.00    +0.000 A 
ATOM     12  C   UNL     1       2.113   8.095  18.843  0.00  0.00    +0.000 A 
ATOM     13  C   UNL     1       1.744   8.920  17.783  0.00  0.00    +0.000 A 
ATOM     14  C   UNL     1       0.820   9.946  17.979  0.00  0.00    +0.000 A 
BRANCH  12  15
ATOM     15  C   UNL     1       3.104   7.042  18.617  0.00  0.00    +0.000 C 
ATOM     16  C   UNL     1       3.169   6.007  19.469  0.00  0.00    +0.000 C 
ATOM     17  C   UNL     1       4.114   4.859  19.284  0.00  0.00    +0.000 C 
ATOM     18  C   UNL     1       5.210   5.151  18.259  0.00  0.00    +0.000 C 
ATOM     19  C   UNL     1       4.639   5.830  17.017  0.00  0.00    +0.000 C 
ATOM     20  C   UNL     1       3.949   7.151  17.374  0.00  0.00    +0.000 C 
ENDBRANCH  12  15
ENDBRANCH   2   9
BRANCH   7  21
ATOM     21  C   UNL     1      -5.908  13.416  19.247  0.00  0.00    +0.000 C 
ATOM     22  C   UNL     1      -5.963  14.940  19.335  0.00  0.00    +0.000 C 
ATOM     23  C   UNL     1      -7.416  15.254  19.013  0.00  0.00    +0.000 C 
ATOM     24  C   UNL     1      -7.854  14.170  18.026  0.00  0.00    +0.000 C 
ATOM     25  C   UNL     1      -6.712  13.152  17.974  0.00  0.00    +0.000 C 
ENDBRANCH   7  21
BRANCH   1  27
ATOM     26  N   UNL     1      -3.209   9.538  17.776  0.00  0.00    +0.000 NA
ATOM     27  C   UNL     1      -2.661  10.456  18.221  0.00  0.00    +0.000 C 
ENDBRANCH   1  27
BRANCH   3  28
ATOM     28  C   UNL     1      -0.939  12.595  21.829  0.00  0.00    +0.000 C 
BRANCH  28  29
ATOM     29  O   UNL     1      -1.541  12.401  23.102  0.00  0.00    +0.000 OA
ATOM     30  H   UNL     1      -1.503  13.259  23.577  0.00  0.00    +0.000 HD
ENDBRANCH  28  29
ENDBRANCH   3  28
TORSDOF 6
ENDMDL
MODEL 6
REMARK VINA RESULT:      -6.7      1.183      1.896
REMARK  Name = 
REMARK  6 active torsions:
REMARK  status: ('A' for Active; 'I' for Inactive)
REMARK    1  A    between atoms: C_2  and  C_3
REMARK    2  A    between atoms: C_4  and  C_5
REMARK    3  A    between atoms: C_8  and  C_9
REMARK    4  A    between atoms: C_17  and  C_18
REMARK    5  A    between atoms: C_18  and  O_19
REMARK    6  A    between atoms: N_23  and  C_24
REMARK                            x       y       z     vdW  Elec       q    Type
REMARK                         _______ _______ _______ _____ _____    ______ ____
ROOT
ATOM      1  C   UNL     1      -0.786  11.594  19.940  0.00  0.00    +0.000 C 
ATOM      2  C   UNL     1       0.274  10.732  20.672  0.00  0.00    +0.000 C 
ATOM      3  C   UNL     1      -0.785  10.462  21.777  0.00  0.00    +0.000 C 
ATOM      4  N   UNL     1      -1.519  11.591  21.199  0.00  0.00    +0.000 N 
ATOM      5  C   UNL     1      -2.659  12.224  21.598  0.00  0.00    +0.000 C 
ATOM      6  O   UNL     1      -3.202  11.972  22.668  0.00  0.00    +0.000 OA
ATOM      7  N   UNL     1      -3.085  13.193  20.722  0.00  0.00    +0.000 N 
ATOM      8  H   UNL     1      -2.678  13.221  19.802  0.00  0.00    +0.000 HD
ENDROOT
BRANCH   2   9
ATOM      9  C   UNL     1       0.966   9.531  19.898  0.00  0.00    +0.000 A 
ATOM     10  C   UNL     1       1.268   8.318  20.552  0.00  0.00    +0.000 A 
ATOM     11  C   UNL     1       1.992   7.299  19.924  0.00  0.00    +0.000 A 
ATOM     12  C   UNL     1       2.441   7.467  18.616  0.00  0.00    +0.000 A 
ATOM     13  C   UNL     1       2.109   8.630  17.926  0.00  0.00    +0.000 A 
ATOM     14  C   UNL     1       1.369   9.632  18.553  0.00  0.00    +0.000 A 
BRANCH  12  15
ATOM     15  C   UNL     1       3.239   6.441  17.945  0.00  0.00    +0.000 C 
ATOM     16  C   UNL     1       2.795   5.175  17.917  0.00  0.00    +0.000 C 
ATOM     17  C   UNL     1       3.521   4.074  17.206  0.00  0.00    +0.000 C 
ATOM     18  C   UNL     1       4.955   4.451  16.832  0.00  0.00    +0.000 C 
ATOM     19  C   UNL     1       5.022   5.860  16.250  0.00  0.00    +0.000 C 
ATOM     20  C   UNL     1       4.495   6.898  17.245  0.00  0.00    +0.000 C 
ENDBRANCH  12  15
ENDBRANCH   2   9
BRANCH   7  21
ATOM     21  C   UNL     1      -4.308  13.947  20.891  0.00  0.00    +0.000 C 
ATOM     22  C   UNL     1      -4.081  15.444  20.693  0.00  0.00    +0.000 C 
ATOM     23  C   UNL     1      -5.491  15.989  20.526  0.00  0.00    +0.000 C 
ATOM     24  C   UNL     1      -6.277  14.873  19.837  0.00  0.00    +0.000 C 
ATOM     25  C   UNL     1      -5.356  13.650  19.819  0.00  0.00    +0.000 C 
ENDBRANCH   7  21
BRANCH   1  27
ATOM     26  N   UNL     1      -2.126  10.517  17.975  0.00  0.00    +0.000 NA
ATOM     27  C   UNL     1      -1.555  11.009  18.854  0.00  0.00    +0.000 C 
ENDBRANCH   1  27
BRANCH   3  28
ATOM     28  C   UNL     1      -0.282  10.704  23.194  0.00  0.00    +0.000 C 
BRANCH  28  29
ATOM     29  O   UNL     1      -0.178   9.472  23.898  0.00  0.00    +0.000 OA
ATOM     30  H   UNL     1      -1.020   8.986  23.764  0.00  0.00    +0.000 HD
ENDBRANCH  28  29
ENDBRANCH   3  28
TORSDOF 6
ENDMDL
MODEL 7
REMARK VINA RESULT:      -6.6      2.806      3.960
REMARK  Name = 
REMARK  6 active torsions:
REMARK  status: ('A' for Active; 'I' for Inactive)
REMARK    1  A    between atoms: C_2  and  C_3
REMARK    2  A    between atoms: C_4  and  C_5
REMARK    3  A    between atoms: C_8  and  C_9
REMARK    4  A    between atoms: C_17  and  C_18
REMARK    5  A    between atoms: C_18  and  O_19
REMARK    6  A    between atoms: N_23  and  C_24
REMARK                            x       y       z     vdW  Elec       q    Type
REMARK                         _______ _______ _______ _____ _____    ______ ____
ROOT
ATOM      1  C   UNL     1      -0.129   9.548  20.983  0.00  0.00    +0.000 C 
ATOM      2  C   UNL     1       0.145   9.340  19.471  0.00  0.00    +0.000 C 
ATOM      3  C   UNL     1       0.062  10.882  19.299  0.00  0.00    +0.000 C 
ATOM      4  N   UNL     1      -0.567  10.890  20.622  0.00  0.00    +0.000 N 
ATOM      5  C   UNL     1      -1.124  11.899  21.350  0.00  0.00    +0.000 C 
ATOM      6  O   UNL     1      -1.287  13.022  20.885  0.00  0.00    +0.000 OA
ATOM      7  N   UNL     1      -1.528  11.514  22.605  0.00  0.00    +0.000 N 
ATOM      8  H   UNL     1      -1.211  10.627  22.960  0.00  0.00    +0.000 HD
ENDROOT
BRANCH   2   9
ATOM      9  C   UNL     1       1.439   8.540  19.021  0.00  0.00    +0.000 A 
ATOM     10  C   UNL     1       2.183   8.931  17.887  0.00  0.00    +0.000 A 
ATOM     11  C   UNL     1       3.247   8.165  17.400  0.00  0.00    +0.000 A 
ATOM     12  C   UNL     1       3.598   6.976  18.034  0.00  0.00    +0.000 A 
ATOM     13  C   UNL     1       2.920   6.593  19.188  0.00  0.00    +0.000 A 
ATOM     14  C   UNL     1       1.873   7.373  19.679  0.00  0.00    +0.000 A 
BRANCH  12  15
ATOM     15  C   UNL     1       4.677   6.128  17.525  0.00  0.00    +0.000 C 
ATOM     16  C   UNL     1       4.382   4.915  17.030  0.00  0.00    +0.000 C 
ATOM     17  C   UNL     1       5.415   4.005  16.439  0.00  0.00    +0.000 C 
ATOM     18  C   UNL     1       6.845   4.433  16.772  0.00  0.00    +0.000 C 
ATOM     19  C   UNL     1       7.024   5.939  16.607  0.00  0.00    +0.000 C 
ATOM     20  C   UNL     1       6.065   6.716  17.515  0.00  0.00    +0.000 C 
ENDBRANCH  12  15
ENDBRANCH   2   9
BRANCH   7  21
ATOM     21  C   UNL     1      -2.078  12.423  23.587  0.00  0.00    +0.000 C 
ATOM     22  C   UNL     1      -1.361  13.771  23.574  0.00  0.00    +0.000 C 
ATOM     23  C   UNL     1      -2.302  14.672  24.359  0.00  0.00    +0.000 C 
ATOM     24  C   UNL     1      -3.707  14.145  24.062  0.00  0.00    +0.000 C 
ATOM     25  C   UNL     1      -3.519  12.838  23.289  0.00  0.00    +0.000 C 
ENDBRANCH   7  21
BRANCH   1  27
ATOM     26  N   UNL     1       1.843   9.562  22.694  0.00  0.00    +0.000 NA
ATOM     27  C   UNL     1       0.986   9.563  21.915  0.00  0.00    +0.000 C 
ENDBRANCH   1  27
BRANCH   3  28
ATOM     28  C   UNL     1      -0.854  11.335  18.169  0.00  0.00    +0.000 C 
BRANCH  28  29
ATOM     29  O   UNL     1      -0.602  12.697  17.844  0.00  0.00    +0.000 OA
ATOM     30  H   UNL     1      -0.968  12.856  16.948  0.00  0.00    +0.000 HD
ENDBRANCH  28  29
ENDBRANCH   3  28
TORSDOF 6
ENDMDL
MODEL 8
REMARK VINA RESULT:      -6.6      2.792      3.864
REMARK  Name = 
REMARK  6 active torsions:
REMARK  status: ('A' for Active; 'I' for Inactive)
REMARK    1  A    between atoms: C_2  and  C_3
REMARK    2  A    between atoms: C_4  and  C_5
REMARK    3  A    between atoms: C_8  and  C_9
REMARK    4  A    between atoms: C_17  and  C_18
REMARK    5  A    between atoms: C_18  and  O_19
REMARK    6  A    between atoms: N_23  and  C_24
REMARK                            x       y       z     vdW  Elec       q    Type
REMARK                         _______ _______ _______ _____ _____    ______ ____
ROOT
ATOM      1  C   UNL     1      -0.553  10.024  20.675  0.00  0.00    +0.000 C 
ATOM      2  C   UNL     1      -0.262   9.583  19.218  0.00  0.00    +0.000 C 
ATOM      3  C   UNL     1      -0.421  11.069  18.793  0.00  0.00    +0.000 C 
ATOM      4  N   UNL     1      -1.056  11.264  20.100  0.00  0.00    +0.000 N 
ATOM      5  C   UNL     1      -1.666  12.350  20.653  0.00  0.00    +0.000 C 
ATOM      6  O   UNL     1      -1.884  13.371  20.009  0.00  0.00    +0.000 OA
ATOM      7  N   UNL     1      -2.056  12.158  21.956  0.00  0.00    +0.000 N 
ATOM      8  H   UNL     1      -1.697  11.359  22.451  0.00  0.00    +0.000 HD
ENDROOT
BRANCH   2   9
ATOM      9  C   UNL     1       1.074   8.786  18.902  0.00  0.00    +0.000 A 
ATOM     10  C   UNL     1       1.851   9.086  17.763  0.00  0.00    +0.000 A 
ATOM     11  C   UNL     1       2.958   8.311  17.397  0.00  0.00    +0.000 A 
ATOM     12  C   UNL     1       3.317   7.205  18.162  0.00  0.00    +0.000 A 
ATOM     13  C   UNL     1       2.603   6.917  19.323  0.00  0.00    +0.000 A 
ATOM     14  C   UNL     1       1.514   7.707  19.691  0.00  0.00    +0.000 A 
BRANCH  12  15
ATOM     15  C   UNL     1       4.440   6.346  17.784  0.00  0.00    +0.000 C 
ATOM     16  C   UNL     1       4.898   5.437  18.659  0.00  0.00    +0.000 C 
ATOM     17  C   UNL     1       6.006   4.482  18.334  0.00  0.00    +0.000 C 
ATOM     18  C   UNL     1       6.780   4.875  17.076  0.00  0.00    +0.000 C 
ATOM     19  C   UNL     1       5.835   5.298  15.955  0.00  0.00    +0.000 C 
ATOM     20  C   UNL     1       4.969   6.489  16.378  0.00  0.00    +0.000 C 
ENDBRANCH  12  15
ENDBRANCH   2   9
BRANCH   7  21
ATOM     21  C   UNL     1      -2.656  13.188  22.776  0.00  0.00    +0.000 C 
ATOM     22  C   UNL     1      -3.560  12.597  23.855  0.00  0.00    +0.000 C 
ATOM     23  C   UNL     1      -3.766  13.762  24.811  0.00  0.00    +0.000 C 
ATOM     24  C   UNL     1      -2.467  14.568  24.752  0.00  0.00    +0.000 C 
ATOM     25  C   UNL     1      -1.640  13.963  23.615  0.00  0.00    +0.000 C 
ENDBRANCH   7  21
BRANCH   1  27
ATOM     26  N   UNL     1       1.468  10.399  22.285  0.00  0.00    +0.000 NA
ATOM     27  C   UNL     1       0.556  10.250  21.588  0.00  0.00    +0.000 C 
ENDBRANCH   1  27
BRANCH   3  28
ATOM     28  C   UNL     1      -1.353  11.282  17.608  0.00  0.00    +0.000 C 
BRANCH  28  29
ATOM     29  O   UNL     1      -1.255  12.620  17.135  0.00  0.00    +0.000 OA
ATOM     30  H   UNL     1      -1.885  13.162  17.657  0.00  0.00    +0.000 HD
ENDBRANCH  28  29
ENDBRANCH   3  28
TORSDOF 6
ENDMDL
MODEL 9
REMARK VINA RESULT:      -6.6      1.396      2.243
REMARK  Name = 
REMARK  6 active torsions:
REMARK  status: ('A' for Active; 'I' for Inactive)
REMARK    1  A    between atoms: C_2  and  C_3
REMARK    2  A    between atoms: C_4  and  C_5
REMARK    3  A    between atoms: C_8  and  C_9
REMARK    4  A    between atoms: C_17  and  C_18
REMARK    5  A    between atoms: C_18  and  O_19
REMARK    6  A    between atoms: N_23  and  C_24
REMARK                            x       y       z     vdW  Elec       q    Type
REMARK                         _______ _______ _______ _____ _____    ______ ____
ROOT
ATOM      1  C   UNL     1      -0.452  11.428  19.590  0.00  0.00    +0.000 C 
ATOM      2  C   UNL     1       0.598  10.565  20.337  0.00  0.00    +0.000 C 
ATOM      3  C   UNL     1      -0.460  10.338  21.452  0.00  0.00    +0.000 C 
ATOM      4  N   UNL     1      -1.178  11.466  20.852  0.00  0.00    +0.000 N 
ATOM      5  C   UNL     1      -2.306  12.127  21.241  0.00  0.00    +0.000 C 
ATOM      6  O   UNL     1      -2.848  11.908  22.319  0.00  0.00    +0.000 OA
ATOM      7  N   UNL     1      -2.720  13.082  20.346  0.00  0.00    +0.000 N 
ATOM      8  H   UNL     1      -2.317  13.083  19.424  0.00  0.00    +0.000 HD
ENDROOT
BRANCH   2   9
ATOM      9  C   UNL     1       1.266   9.336  19.587  0.00  0.00    +0.000 A 
ATOM     10  C   UNL     1       1.550   8.133  20.266  0.00  0.00    +0.000 A 
ATOM     11  C   UNL     1       2.254   7.088  19.659  0.00  0.00    +0.000 A 
ATOM     12  C   UNL     1       2.701   7.219  18.346  0.00  0.00    +0.000 A 
ATOM     13  C   UNL     1       2.385   8.372  17.631  0.00  0.00    +0.000 A 
ATOM     14  C   UNL     1       1.666   9.400  18.239  0.00  0.00    +0.000 A 
BRANCH  12  15
ATOM     15  C   UNL     1       3.479   6.165  17.694  0.00  0.00    +0.000 C 
ATOM     16  C   UNL     1       3.064   4.892  17.782  0.00  0.00    +0.000 C 
ATOM     17  C   UNL     1       3.769   3.758  17.100  0.00  0.00    +0.000 C 
ATOM     18  C   UNL     1       5.166   4.136  16.609  0.00  0.00    +0.000 C 
ATOM     19  C   UNL     1       5.163   5.503  15.930  0.00  0.00    +0.000 C 
ATOM     20  C   UNL     1       4.675   6.597  16.885  0.00  0.00    +0.000 C 
ENDBRANCH  12  15
ENDBRANCH   2   9
BRANCH   7  21
ATOM     21  C   UNL     1      -3.930  13.861  20.503  0.00  0.00    +0.000 C 
ATOM     22  C   UNL     1      -5.161  12.969  20.649  0.00  0.00    +0.000 C 
ATOM     23  C   UNL     1      -6.220  13.925  21.178  0.00  0.00    +0.000 C 
ATOM     24  C   UNL     1      -5.459  14.938  22.035  0.00  0.00    +0.000 C 
ATOM     25  C   UNL     1      -3.971  14.660  21.805  0.00  0.00    +0.000 C 
ENDBRANCH   7  21
BRANCH   1  27
ATOM     26  N   UNL     1      -1.842  10.311  17.683  0.00  0.00    +0.000 NA
ATOM     27  C   UNL     1      -1.235  10.832  18.521  0.00  0.00    +0.000 C 
ENDBRANCH   1  27
BRANCH   3  28
ATOM     28  C   UNL     1       0.054  10.603  22.861  0.00  0.00    +0.000 C 
BRANCH  28  29
ATOM     29  O   UNL     1      -0.409   9.596  23.753  0.00  0.00    +0.000 OA
ATOM     30  H   UNL     1       0.299   9.446  24.416  0.00  0.00    +0.000 HD
ENDBRANCH  28  29
ENDBRANCH   3  28
TORSDOF 6
ENDMDL
