MODEL 1
REMARK VINA RESULT:      -8.4      0.000      0.000
REMARK  Name = 
REMARK  3 active torsions:
REMARK  status: ('A' for Active; 'I' for Inactive)
REMARK    1  A    between atoms: N_1  and  C_2
REMARK    2  A    between atoms: C_5  and  C_6
REMARK    3  A    between atoms: C_11  and  C_12
REMARK                            x       y       z     vdW  Elec       q    Type
REMARK                         _______ _______ _______ _____ _____    ______ ____
ROOT
ATOM      1  C   UNL     1       2.114   6.496  20.189  0.00  0.00    +0.000 A 
ATOM      2  C   UNL     1       1.497   5.442  20.861  0.00  0.00    +0.000 A 
ATOM      3  C   UNL     1       2.027   4.165  20.752  0.00  0.00    +0.000 A 
ATOM      4 CL   UNL     1       1.299   2.859  21.601  0.00  0.00    +0.000 Cl
ATOM      5  C   UNL     1       3.140   3.941  19.972  0.00  0.00    +0.000 A 
ATOM      6  C   UNL     1       3.691   5.025  19.311  0.00  0.00    +0.000 A 
ATOM      7  N   UNL     1       3.213   6.301  19.407  0.00  0.00    +0.000 NA
ENDROOT
BRANCH   6   8
ATOM      8  C   UNL     1       4.884   4.782  18.445  0.00  0.00    +0.000 C 
ATOM      9  O   UNL     1       5.835   4.168  18.922  0.00  0.00    +0.000 OA
ATOM     10  N   UNL     1       4.820   5.311  17.181  0.00  0.00    +0.000 N 
ATOM     11  C   UNL     1       5.863   5.215  16.298  0.00  0.00    +0.000 A 
ATOM     12  N   UNL     1       6.952   4.401  16.468  0.00  0.00    +0.000 NA
ATOM     13  N   UNL     1       7.763   4.622  15.444  0.00  0.00    +0.000 NA
ATOM     14  N   UNL     1       7.138   5.561  14.727  0.00  0.00    +0.000 N 
ATOM     15  N   UNL     1       5.926   5.937  15.171  0.00  0.00    +0.000 NA
ATOM     16  H   UNL     1       4.041   5.897  16.913  0.00  0.00    +0.000 HD
ATOM     17  H   UNL     1       7.574   5.973  13.908  0.00  0.00    +0.000 HD
ENDBRANCH   6   8
BRANCH   1  21
ATOM     18  C   UNL     1       0.672  10.572  20.535  0.00  0.00    +0.000 A 
ATOM     19  C   UNL     1       1.054  10.053  19.301  0.00  0.00    +0.000 A 
ATOM     20  C   UNL     1       1.533   8.743  19.190  0.00  0.00    +0.000 A 
ATOM     21  C   UNL     1       1.617   7.888  20.307  0.00  0.00    +0.000 A 
ATOM     22  C   UNL     1       1.184   8.410  21.536  0.00  0.00    +0.000 A 
ATOM     23  C   UNL     1       0.698   9.722  21.643  0.00  0.00    +0.000 A 
BRANCH  18  24
ATOM     24  N   UNL     1       0.050  11.818  20.612  0.00  0.00    +0.000 N 
ATOM     25  H   UNL     1       0.146  12.382  19.774  0.00  0.00    +0.000 HD
ATOM     26  H   UNL     1       0.278  12.342  21.448  0.00  0.00    +0.000 HD
ENDBRANCH  18  24
ENDBRANCH   1  21
TORSDOF 3
ENDMDL
MODEL 2
REMARK VINA RESULT:      -8.4      0.076      1.023
REMARK  Name = 
REMARK  3 active torsions:
REMARK  status: ('A' for Active; 'I' for Inactive)
REMARK    1  A    between atoms: N_1  and  C_2
REMARK    2  A    between atoms: C_5  and  C_6
REMARK    3  A    between atoms: C_11  and  C_12
REMARK                            x       y       z     vdW  Elec       q    Type
REMARK                         _______ _______ _______ _____ _____    ______ ____
ROOT
ATOM      1  C   UNL     1       2.113   6.506  20.185  0.00  0.00    +0.000 A 
ATOM      2  C   UNL     1       1.490   5.445  20.841  0.00  0.00    +0.000 A 
ATOM      3  C   UNL     1       2.025   4.170  20.729  0.00  0.00    +0.000 A 
ATOM      4 CL   UNL     1       1.289   2.856  21.558  0.00  0.00    +0.000 Cl
ATOM      5  C   UNL     1       3.149   3.956  19.961  0.00  0.00    +0.000 A 
ATOM      6  C   UNL     1       3.706   5.046  19.316  0.00  0.00    +0.000 A 
ATOM      7  N   UNL     1       3.223   6.320  19.416  0.00  0.00    +0.000 NA
ENDROOT
BRANCH   6   8
ATOM      8  C   UNL     1       4.911   4.813  18.465  0.00  0.00    +0.000 C 
ATOM      9  O   UNL     1       5.878   4.247  18.965  0.00  0.00    +0.000 OA
ATOM     10  N   UNL     1       4.836   5.297  17.183  0.00  0.00    +0.000 N 
ATOM     11  C   UNL     1       5.886   5.205  16.308  0.00  0.00    +0.000 A 
ATOM     12  N   UNL     1       7.000   4.433  16.510  0.00  0.00    +0.000 NA
ATOM     13  N   UNL     1       7.809   4.645  15.483  0.00  0.00    +0.000 NA
ATOM     14  N   UNL     1       7.158   5.539  14.732  0.00  0.00    +0.000 N 
ATOM     15  N   UNL     1       5.932   5.890  15.157  0.00  0.00    +0.000 NA
ATOM     16  H   UNL     1       4.040   5.848  16.892  0.00  0.00    +0.000 HD
ATOM     17  H   UNL     1       7.585   5.937  13.901  0.00  0.00    +0.000 HD
ENDBRANCH   6   8
BRANCH   1  21
ATOM     18  C   UNL     1       0.634  10.567  20.540  0.00  0.00    +0.000 A 
ATOM     19  C   UNL     1       0.734   9.746  21.658  0.00  0.00    +0.000 A 
ATOM     20  C   UNL     1       1.197   8.430  21.543  0.00  0.00    +0.000 A 
ATOM     21  C   UNL     1       1.611   7.896  20.307  0.00  0.00    +0.000 A 
ATOM     22  C   UNL     1       1.549   8.752  19.196  0.00  0.00    +0.000 A 
ATOM     23  C   UNL     1       1.089  10.072  19.316  0.00  0.00    +0.000 A 
BRANCH  18  24
ATOM     24  N   UNL     1       0.322  11.920  20.685  0.00  0.00    +0.000 N 
ATOM     25  H   UNL     1       0.819  12.380  21.440  0.00  0.00    +0.000 HD
ATOM     26  H   UNL     1      -0.671  12.115  20.711  0.00  0.00    +0.000 HD
ENDBRANCH  18  24
ENDBRANCH   1  21
TORSDOF 3
ENDMDL
MODEL 3
REMARK VINA RESULT:      -8.3      1.729      2.254
REMARK  Name = 
REMARK  3 active torsions:
REMARK  status: ('A' for Active; 'I' for Inactive)
REMARK    1  A    between atoms: N_1  and  C_2
REMARK    2  A    between atoms: C_5  and  C_6
REMARK    3  A    between atoms: C_11  and  C_12
REMARK                            x       y       z     vdW  Elec       q    Type
REMARK                         _______ _______ _______ _____ _____    ______ ____
ROOT
ATOM      1  C   UNL     1       3.013   6.366  18.601  0.00  0.00    +0.000 A 
ATOM      2  C   UNL     1       2.832   5.139  19.237  0.00  0.00    +0.000 A 
ATOM      3  C   UNL     1       3.627   4.062  18.871  0.00  0.00    +0.000 A 
ATOM      4 CL   UNL     1       3.442   2.550  19.669  0.00  0.00    +0.000 Cl
ATOM      5  C   UNL     1       4.570   4.203  17.876  0.00  0.00    +0.000 A 
ATOM      6  C   UNL     1       4.682   5.441  17.267  0.00  0.00    +0.000 A 
ATOM      7  N   UNL     1       3.934   6.531  17.610  0.00  0.00    +0.000 NA
ENDROOT
BRANCH   6   8
ATOM      8  C   UNL     1       5.688   5.590  16.172  0.00  0.00    +0.000 C 
ATOM      9  O   UNL     1       6.411   6.581  16.176  0.00  0.00    +0.000 OA
ATOM     10  N   UNL     1       5.683   4.601  15.221  0.00  0.00    +0.000 N 
ATOM     11  C   UNL     1       6.510   4.636  14.130  0.00  0.00    +0.000 A 
ATOM     12  N   UNL     1       7.571   5.492  13.987  0.00  0.00    +0.000 NA
ATOM     13  N   UNL     1       8.091   5.266  12.790  0.00  0.00    +0.000 NA
ATOM     14  N   UNL     1       7.315   4.310  12.271  0.00  0.00    +0.000 N 
ATOM     15  N   UNL     1       6.346   3.833  13.070  0.00  0.00    +0.000 NA
ATOM     16  H   UNL     1       4.975   3.879  15.241  0.00  0.00    +0.000 HD
ATOM     17  H   UNL     1       7.448   3.987  11.317  0.00  0.00    +0.000 HD
ENDBRANCH   6   8
BRANCH   1  21
ATOM     18  C   UNL     1       0.712   9.868  19.719  0.00  0.00    +0.000 A 
ATOM     19  C   UNL     1       1.110   9.669  18.401  0.00  0.00    +0.000 A 
ATOM     20  C   UNL     1       1.865   8.546  18.041  0.00  0.00    +0.000 A 
ATOM     21  C   UNL     1       2.223   7.561  18.982  0.00  0.00    +0.000 A 
ATOM     22  C   UNL     1       1.774   7.752  20.299  0.00  0.00    +0.000 A 
ATOM     23  C   UNL     1       1.013   8.876  20.656  0.00  0.00    +0.000 A 
BRANCH  18  24
ATOM     24  N   UNL     1      -0.168  10.902  20.040  0.00  0.00    +0.000 N 
ATOM     25  H   UNL     1      -0.199  11.648  19.354  0.00  0.00    +0.000 HD
ATOM     26  H   UNL     1      -0.063  11.258  20.982  0.00  0.00    +0.000 HD
ENDBRANCH  18  24
ENDBRANCH   1  21
TORSDOF 3
ENDMDL
MODEL 4
REMARK VINA RESULT:      -8.3      1.765      2.492
REMARK  Name = 
REMARK  3 active torsions:
REMARK  status: ('A' for Active; 'I' for Inactive)
REMARK    1  A    between atoms: N_1  and  C_2
REMARK    2  A    between atoms: C_5  and  C_6
REMARK    3  A    between atoms: C_11  and  C_12
REMARK                            x       y       z     vdW  Elec       q    Type
REMARK                         _______ _______ _______ _____ _____    ______ ____
ROOT
ATOM      1  C   UNL     1       2.912   6.173  18.535  0.00  0.00    +0.000 A 
ATOM      2  C   UNL     1       2.599   4.896  18.998  0.00  0.00    +0.000 A 
ATOM      3  C   UNL     1       3.309   3.806  18.515  0.00  0.00    +0.000 A 
ATOM      4 CL   UNL     1       2.960   2.228  19.101  0.00  0.00    +0.000 Cl
ATOM      5  C   UNL     1       4.298   3.987  17.573  0.00  0.00    +0.000 A 
ATOM      6  C   UNL     1       4.543   5.277  17.136  0.00  0.00    +0.000 A 
ATOM      7  N   UNL     1       3.882   6.378  17.600  0.00  0.00    +0.000 NA
ENDROOT
BRANCH   6   8
ATOM      8  C   UNL     1       5.599   5.472  16.097  0.00  0.00    +0.000 C 
ATOM      9  O   UNL     1       6.335   6.450  16.191  0.00  0.00    +0.000 OA
ATOM     10  N   UNL     1       5.625   4.539  15.092  0.00  0.00    +0.000 N 
ATOM     11  C   UNL     1       6.501   4.623  14.043  0.00  0.00    +0.000 A 
ATOM     12  N   UNL     1       7.579   5.469  13.997  0.00  0.00    +0.000 NA
ATOM     13  N   UNL     1       8.150   5.303  12.813  0.00  0.00    +0.000 NA
ATOM     14  N   UNL     1       7.386   4.390  12.205  0.00  0.00    +0.000 N 
ATOM     15  N   UNL     1       6.375   3.884  12.932  0.00  0.00    +0.000 NA
ATOM     16  H   UNL     1       4.908   3.828  15.039  0.00  0.00    +0.000 HD
ATOM     17  H   UNL     1       7.558   4.120  11.242  0.00  0.00    +0.000 HD
ENDBRANCH   6   8
BRANCH   1  21
ATOM     18  C   UNL     1       0.869   9.690  20.041  0.00  0.00    +0.000 A 
ATOM     19  C   UNL     1       1.184   8.632  20.888  0.00  0.00    +0.000 A 
ATOM     20  C   UNL     1       1.830   7.490  20.401  0.00  0.00    +0.000 A 
ATOM     21  C   UNL     1       2.217   7.377  19.051  0.00  0.00    +0.000 A 
ATOM     22  C   UNL     1       1.935   8.472  18.219  0.00  0.00    +0.000 A 
ATOM     23  C   UNL     1       1.292   9.618  18.712  0.00  0.00    +0.000 A 
BRANCH  18  24
ATOM     24  N   UNL     1       0.369  10.884  20.561  0.00  0.00    +0.000 N 
ATOM     25  H   UNL     1       0.708  11.716  20.089  0.00  0.00    +0.000 HD
ATOM     26  H   UNL     1       0.449  10.962  21.567  0.00  0.00    +0.000 HD
ENDBRANCH  18  24
ENDBRANCH   1  21
TORSDOF 3
ENDMDL
MODEL 5
REMARK VINA RESULT:      -8.3      0.968      1.016
REMARK  Name = 
REMARK  3 active torsions:
REMARK  status: ('A' for Active; 'I' for Inactive)
REMARK    1  A    between atoms: N_1  and  C_2
REMARK    2  A    between atoms: C_5  and  C_6
REMARK    3  A    between atoms: C_11  and  C_12
REMARK                            x       y       z     vdW  Elec       q    Type
REMARK                         _______ _______ _______ _____ _____    ______ ____
ROOT
ATOM      1  C   UNL     1       2.136   6.517  19.864  0.00  0.00    +0.000 A 
ATOM      2  C   UNL     1       1.854   5.512  20.788  0.00  0.00    +0.000 A 
ATOM      3  C   UNL     1       2.358   4.236  20.578  0.00  0.00    +0.000 A 
ATOM      4 CL   UNL     1       2.049   2.994  21.725  0.00  0.00    +0.000 Cl
ATOM      5  C   UNL     1       3.111   3.965  19.457  0.00  0.00    +0.000 A 
ATOM      6  C   UNL     1       3.334   5.000  18.565  0.00  0.00    +0.000 A 
ATOM      7  N   UNL     1       2.874   6.274  18.744  0.00  0.00    +0.000 NA
ENDROOT
BRANCH   6   8
ATOM      8  C   UNL     1       4.131   4.703  17.337  0.00  0.00    +0.000 C 
ATOM      9  O   UNL     1       3.812   3.735  16.654  0.00  0.00    +0.000 OA
ATOM     10  N   UNL     1       5.194   5.539  17.101  0.00  0.00    +0.000 N 
ATOM     11  C   UNL     1       6.046   5.353  16.046  0.00  0.00    +0.000 A 
ATOM     12  N   UNL     1       5.810   4.501  14.998  0.00  0.00    +0.000 NA
ATOM     13  N   UNL     1       6.874   4.553  14.211  0.00  0.00    +0.000 NA
ATOM     14  N   UNL     1       7.696   5.408  14.826  0.00  0.00    +0.000 N 
ATOM     15  N   UNL     1       7.223   5.986  15.944  0.00  0.00    +0.000 NA
ATOM     16  H   UNL     1       5.447   6.245  17.780  0.00  0.00    +0.000 HD
ATOM     17  H   UNL     1       8.630   5.587  14.470  0.00  0.00    +0.000 HD
ENDBRANCH   6   8
BRANCH   1  21
ATOM     18  C   UNL     1       0.760  10.589  20.444  0.00  0.00    +0.000 A 
ATOM     19  C   UNL     1       1.156  10.143  19.187  0.00  0.00    +0.000 A 
ATOM     20  C   UNL     1       1.614   8.833  19.001  0.00  0.00    +0.000 A 
ATOM     21  C   UNL     1       1.662   7.908  20.061  0.00  0.00    +0.000 A 
ATOM     22  C   UNL     1       1.215   8.358  21.314  0.00  0.00    +0.000 A 
ATOM     23  C   UNL     1       0.751   9.670  21.496  0.00  0.00    +0.000 A 
BRANCH  18  24
ATOM     24  N   UNL     1       0.160  11.840  20.590  0.00  0.00    +0.000 N 
ATOM     25  H   UNL     1      -0.816  11.801  20.866  0.00  0.00    +0.000 HD
ATOM     26  H   UNL     1       0.307  12.463  19.807  0.00  0.00    +0.000 HD
ENDBRANCH  18  24
ENDBRANCH   1  21
TORSDOF 3
ENDMDL
MODEL 6
REMARK VINA RESULT:      -8.3      0.979      1.455
REMARK  Name = 
REMARK  3 active torsions:
REMARK  status: ('A' for Active; 'I' for Inactive)
REMARK    1  A    between atoms: N_1  and  C_2
REMARK    2  A    between atoms: C_5  and  C_6
REMARK    3  A    between atoms: C_11  and  C_12
REMARK                            x       y       z     vdW  Elec       q    Type
REMARK                         _______ _______ _______ _____ _____    ______ ____
ROOT
ATOM      1  C   UNL     1       2.180   6.463  19.875  0.00  0.00    +0.000 A 
ATOM      2  C   UNL     1       1.920   5.453  20.800  0.00  0.00    +0.000 A 
ATOM      3  C   UNL     1       2.432   4.182  20.578  0.00  0.00    +0.000 A 
ATOM      4 CL   UNL     1       2.150   2.933  21.725  0.00  0.00    +0.000 Cl
ATOM      5  C   UNL     1       3.173   3.922  19.446  0.00  0.00    +0.000 A 
ATOM      6  C   UNL     1       3.375   4.962  18.555  0.00  0.00    +0.000 A 
ATOM      7  N   UNL     1       2.906   6.231  18.745  0.00  0.00    +0.000 NA
ENDROOT
BRANCH   6   8
ATOM      8  C   UNL     1       4.158   4.677  17.316  0.00  0.00    +0.000 C 
ATOM      9  O   UNL     1       3.810   3.735  16.610  0.00  0.00    +0.000 OA
ATOM     10  N   UNL     1       5.241   5.491  17.096  0.00  0.00    +0.000 N 
ATOM     11  C   UNL     1       6.083   5.310  16.031  0.00  0.00    +0.000 A 
ATOM     12  N   UNL     1       5.820   4.492  14.963  0.00  0.00    +0.000 NA
ATOM     13  N   UNL     1       6.881   4.537  14.171  0.00  0.00    +0.000 NA
ATOM     14  N   UNL     1       7.728   5.355  14.804  0.00  0.00    +0.000 N 
ATOM     15  N   UNL     1       7.275   5.915  15.939  0.00  0.00    +0.000 NA
ATOM     16  H   UNL     1       5.515   6.172  17.791  0.00  0.00    +0.000 HD
ATOM     17  H   UNL     1       8.664   5.519  14.447  0.00  0.00    +0.000 HD
ENDBRANCH   6   8
BRANCH   1  21
ATOM     18  C   UNL     1       0.753  10.513  20.485  0.00  0.00    +0.000 A 
ATOM     19  C   UNL     1       0.886   9.636  21.556  0.00  0.00    +0.000 A 
ATOM     20  C   UNL     1       1.332   8.323  21.359  0.00  0.00    +0.000 A 
ATOM     21  C   UNL     1       1.696   7.849  20.084  0.00  0.00    +0.000 A 
ATOM     22  C   UNL     1       1.603   8.760  19.020  0.00  0.00    +0.000 A 
ATOM     23  C   UNL     1       1.160  10.076  19.222  0.00  0.00    +0.000 A 
BRANCH  18  24
ATOM     24  N   UNL     1       0.460  11.859  20.708  0.00  0.00    +0.000 N 
ATOM     25  H   UNL     1       1.267  12.423  20.953  0.00  0.00    +0.000 HD
ATOM     26  H   UNL     1      -0.315  12.013  21.340  0.00  0.00    +0.000 HD
ENDBRANCH  18  24
ENDBRANCH   1  21
TORSDOF 3
ENDMDL
MODEL 7
REMARK VINA RESULT:      -8.1      2.013      7.377
REMARK  Name = 
REMARK  3 active torsions:
REMARK  status: ('A' for Active; 'I' for Inactive)
REMARK    1  A    between atoms: N_1  and  C_2
REMARK    2  A    between atoms: C_5  and  C_6
REMARK    3  A    between atoms: C_11  and  C_12
REMARK                            x       y       z     vdW  Elec       q    Type
REMARK                         _______ _______ _______ _____ _____    ______ ____
ROOT
ATOM      1  C   UNL     1       3.759   5.371  18.844  0.00  0.00    +0.000 A 
ATOM      2  C   UNL     1       3.437   4.251  19.608  0.00  0.00    +0.000 A 
ATOM      3  C   UNL     1       2.443   4.350  20.571  0.00  0.00    +0.000 A 
ATOM      4 CL   UNL     1       2.009   2.970  21.500  0.00  0.00    +0.000 Cl
ATOM      5  C   UNL     1       1.797   5.549  20.779  0.00  0.00    +0.000 A 
ATOM      6  C   UNL     1       2.181   6.630  20.004  0.00  0.00    +0.000 A 
ATOM      7  N   UNL     1       3.139   6.570  19.033  0.00  0.00    +0.000 NA
ENDROOT
BRANCH   6   8
ATOM      8  C   UNL     1       1.498   7.937  20.244  0.00  0.00    +0.000 C 
ATOM      9  O   UNL     1       1.598   8.812  19.389  0.00  0.00    +0.000 OA
ATOM     10  N   UNL     1       0.839   8.053  21.442  0.00  0.00    +0.000 N 
ATOM     11  C   UNL     1       0.217   9.213  21.821  0.00  0.00    +0.000 A 
ATOM     12  N   UNL     1      -0.029  10.271  20.986  0.00  0.00    +0.000 NA
ATOM     13  N   UNL     1      -0.592  11.220  21.720  0.00  0.00    +0.000 NA
ATOM     14  N   UNL     1      -0.637  10.699  22.950  0.00  0.00    +0.000 N 
ATOM     15  N   UNL     1      -0.202   9.434  23.075  0.00  0.00    +0.000 NA
ATOM     16  H   UNL     1       0.904   7.317  22.132  0.00  0.00    +0.000 HD
ATOM     17  H   UNL     1      -0.966  11.247  23.739  0.00  0.00    +0.000 HD
ENDBRANCH   6   8
BRANCH   1  21
ATOM     18  C   UNL     1       6.753   5.185  15.711  0.00  0.00    +0.000 A 
ATOM     19  C   UNL     1       5.600   4.410  15.641  0.00  0.00    +0.000 A 
ATOM     20  C   UNL     1       4.639   4.458  16.658  0.00  0.00    +0.000 A 
ATOM     21  C   UNL     1       4.780   5.311  17.771  0.00  0.00    +0.000 A 
ATOM     22  C   UNL     1       5.926   6.122  17.804  0.00  0.00    +0.000 A 
ATOM     23  C   UNL     1       6.884   6.075  16.779  0.00  0.00    +0.000 A 
BRANCH  18  24
ATOM     24  N   UNL     1       7.625   5.250  14.624  0.00  0.00    +0.000 N 
ATOM     25  H   UNL     1       7.161   5.333  13.725  0.00  0.00    +0.000 HD
ATOM     26  H   UNL     1       8.333   4.527  14.619  0.00  0.00    +0.000 HD
ENDBRANCH  18  24
ENDBRANCH   1  21
TORSDOF 3
ENDMDL
MODEL 8
REMARK VINA RESULT:      -8.1      4.258      5.999
REMARK  Name = 
REMARK  3 active torsions:
REMARK  status: ('A' for Active; 'I' for Inactive)
REMARK    1  A    between atoms: N_1  and  C_2
REMARK    2  A    between atoms: C_5  and  C_6
REMARK    3  A    between atoms: C_11  and  C_12
REMARK                            x       y       z     vdW  Elec       q    Type
REMARK                         _______ _______ _______ _____ _____    ______ ____
ROOT
ATOM      1  C   UNL     1       4.837   4.920  17.319  0.00  0.00    +0.000 A 
ATOM      2  C   UNL     1       5.135   4.463  16.037  0.00  0.00    +0.000 A 
ATOM      3  C   UNL     1       6.287   4.913  15.407  0.00  0.00    +0.000 A 
ATOM      4 CL   UNL     1       6.689   4.333  13.839  0.00  0.00    +0.000 Cl
ATOM      5  C   UNL     1       7.113   5.817  16.038  0.00  0.00    +0.000 A 
ATOM      6  C   UNL     1       6.747   6.251  17.301  0.00  0.00    +0.000 A 
ATOM      7  N   UNL     1       5.634   5.818  17.964  0.00  0.00    +0.000 NA
ENDROOT
BRANCH   6   8
ATOM      8  C   UNL     1       7.629   7.249  17.977  0.00  0.00    +0.000 C 
ATOM      9  O   UNL     1       8.258   6.893  18.970  0.00  0.00    +0.000 OA
ATOM     10  N   UNL     1       7.626   8.510  17.436  0.00  0.00    +0.000 N 
ATOM     11  C   UNL     1       8.342   9.540  17.985  0.00  0.00    +0.000 A 
ATOM     12  N   UNL     1       9.303   9.390  18.951  0.00  0.00    +0.000 NA
ATOM     13  N   UNL     1       9.728  10.604  19.265  0.00  0.00    +0.000 NA
ATOM     14  N   UNL     1       8.997  11.417  18.497  0.00  0.00    +0.000 N 
ATOM     15  N   UNL     1       8.153  10.820  17.637  0.00  0.00    +0.000 NA
ATOM     16  H   UNL     1       6.991   8.739  16.683  0.00  0.00    +0.000 HD
ATOM     17  H   UNL     1       9.069  12.426  18.583  0.00  0.00    +0.000 HD
ENDBRANCH   6   8
BRANCH   1  21
ATOM     18  C   UNL     1       1.342   3.520  19.472  0.00  0.00    +0.000 A 
ATOM     19  C   UNL     1       1.591   3.101  18.169  0.00  0.00    +0.000 A 
ATOM     20  C   UNL     1       2.711   3.563  17.467  0.00  0.00    +0.000 A 
ATOM     21  C   UNL     1       3.644   4.438  18.056  0.00  0.00    +0.000 A 
ATOM     22  C   UNL     1       3.405   4.815  19.388  0.00  0.00    +0.000 A 
ATOM     23  C   UNL     1       2.284   4.345  20.090  0.00  0.00    +0.000 A 
BRANCH  18  24
ATOM     24  N   UNL     1       0.316   2.936  20.216  0.00  0.00    +0.000 N 
ATOM     25  H   UNL     1       0.244   3.282  21.166  0.00  0.00    +0.000 HD
ATOM     26  H   UNL     1       0.303   1.924  20.180  0.00  0.00    +0.000 HD
ENDBRANCH  18  24
ENDBRANCH   1  21
TORSDOF 3
ENDMDL
MODEL 9
REMARK VINA RESULT:      -8.0      1.121      1.240
REMARK  Name = 
REMARK  3 active torsions:
REMARK  status: ('A' for Active; 'I' for Inactive)
REMARK    1  A    between atoms: N_1  and  C_2
REMARK    2  A    between atoms: C_5  and  C_6
REMARK    3  A    between atoms: C_11  and  C_12
REMARK                            x       y       z     vdW  Elec       q    Type
REMARK                         _______ _______ _______ _____ _____    ______ ____
ROOT
ATOM      1  C   UNL     1       2.440   6.671  19.692  0.00  0.00    +0.000 A 
ATOM      2  C   UNL     1       2.170   5.463  20.333  0.00  0.00    +0.000 A 
ATOM      3  C   UNL     1       2.939   4.348  20.032  0.00  0.00    +0.000 A 
ATOM      4 CL   UNL     1       2.642   2.859  20.838  0.00  0.00    +0.000 Cl
ATOM      5  C   UNL     1       3.946   4.434  19.096  0.00  0.00    +0.000 A 
ATOM      6  C   UNL     1       4.148   5.656  18.477  0.00  0.00    +0.000 A 
ATOM      7  N   UNL     1       3.427   6.782  18.758  0.00  0.00    +0.000 NA
ENDROOT
BRANCH   6   8
ATOM      8  C   UNL     1       5.224   5.746  17.445  0.00  0.00    +0.000 C 
ATOM      9  O   UNL     1       6.056   6.642  17.546  0.00  0.00    +0.000 OA
ATOM     10  N   UNL     1       5.159   4.818  16.435  0.00  0.00    +0.000 N 
ATOM     11  C   UNL     1       6.045   4.816  15.391  0.00  0.00    +0.000 A 
ATOM     12  N   UNL     1       7.203   5.547  15.353  0.00  0.00    +0.000 NA
ATOM     13  N   UNL     1       7.761   5.327  14.172  0.00  0.00    +0.000 NA
ATOM     14  N   UNL     1       6.910   4.500  13.557  0.00  0.00    +0.000 N 
ATOM     15  N   UNL     1       5.849   4.098  14.276  0.00  0.00    +0.000 NA
ATOM     16  H   UNL     1       4.372   4.186  16.376  0.00  0.00    +0.000 HD
ATOM     17  H   UNL     1       7.058   4.217  12.593  0.00  0.00    +0.000 HD
ENDBRANCH   6   8
BRANCH   1  21
ATOM     18  C   UNL     1       0.226  10.283  20.619  0.00  0.00    +0.000 A 
ATOM     19  C   UNL     1       0.761  10.082  19.351  0.00  0.00    +0.000 A 
ATOM     20  C   UNL     1       1.489   8.923  19.054  0.00  0.00    +0.000 A 
ATOM     21  C   UNL     1       1.680   7.904  20.008  0.00  0.00    +0.000 A 
ATOM     22  C   UNL     1       1.093   8.100  21.268  0.00  0.00    +0.000 A 
ATOM     23  C   UNL     1       0.359   9.260  21.560  0.00  0.00    +0.000 A 
BRANCH  18  24
ATOM     24  N   UNL     1      -0.627  11.361  20.860  0.00  0.00    +0.000 N 
ATOM     25  H   UNL     1      -0.197  12.121  21.375  0.00  0.00    +0.000 HD
ATOM     26  H   UNL     1      -1.524  11.099  21.249  0.00  0.00    +0.000 HD
ENDBRANCH  18  24
ENDBRANCH   1  21
TORSDOF 3
ENDMDL
