MODEL 1
REMARK VINA RESULT:      -9.8      0.000      0.000
REMARK  Name = 
REMARK  4 active torsions:
REMARK  status: ('A' for Active; 'I' for Inactive)
REMARK    1  A    between atoms: C_6  and  C_7
REMARK    2  A    between atoms: N_15  and  C_16
REMARK    3  A    between atoms: C_16  and  C_17
REMARK    4  A    between atoms: N_19  and  C_20
REMARK                            x       y       z     vdW  Elec       q    Type
REMARK                         _______ _______ _______ _____ _____    ______ ____
ROOT
ATOM      1  C   UNL     1       4.260   4.721  18.884  0.00  0.00    +0.000 A 
ATOM      2  N   UNL     1       5.481   4.437  19.301  0.00  0.00    +0.000 NA
ATOM      3  C   UNL     1       6.302   5.422  18.826  0.00  0.00    +0.000 A 
ATOM      4  C   UNL     1       7.695   5.545  18.958  0.00  0.00    +0.000 A 
ATOM      5  C   UNL     1       8.340   6.652  18.397  0.00  0.00    +0.000 A 
ATOM      6  C   UNL     1       7.606   7.627  17.731  0.00  0.00    +0.000 A 
ATOM      7  C   UNL     1       6.218   7.516  17.588  0.00  0.00    +0.000 A 
ATOM      8  C   UNL     1       5.579   6.389  18.133  0.00  0.00    +0.000 A 
ATOM      9  N   UNL     1       4.278   5.918  18.156  0.00  0.00    +0.000 N 
ENDROOT
BRANCH   1  15
ATOM     10  F   UNL     1       0.981   2.883  22.023  0.00  0.00    +0.000 F 
ATOM     11  C   UNL     1       1.449   2.971  20.770  0.00  0.00    +0.000 A 
ATOM     12  C   UNL     1       0.848   2.236  19.762  0.00  0.00    +0.000 A 
ATOM     13  C   UNL     1       1.339   2.347  18.465  0.00  0.00    +0.000 A 
ATOM     14  C   UNL     1       2.449   3.161  18.204  0.00  0.00    +0.000 A 
ATOM     15  C   UNL     1       3.084   3.889  19.227  0.00  0.00    +0.000 A 
ATOM     16  C   UNL     1       2.530   3.810  20.510  0.00  0.00    +0.000 A 
ENDBRANCH   1  15
BRANCH   9  17
ATOM     17  C   UNL     1       3.077   6.491  17.554  0.00  0.00    +0.000 C 
BRANCH  17  18
ATOM     18  C   UNL     1       2.453   7.659  18.202  0.00  0.00    +0.000 A 
ATOM     19  C   UNL     1       2.008   7.829  19.495  0.00  0.00    +0.000 A 
ATOM     20  N   UNL     1       1.360   9.042  19.484  0.00  0.00    +0.000 N 
ATOM     21  N   UNL     1       1.463   9.598  18.256  0.00  0.00    +0.000 NA
ATOM     22  N   UNL     1       2.111   8.759  17.467  0.00  0.00    +0.000 NA
BRANCH  20  23
ATOM     23  C   UNL     1       0.633   9.663  20.525  0.00  0.00    +0.000 A 
ATOM     24  C   UNL     1      -0.189  10.769  20.236  0.00  0.00    +0.000 A 
ATOM     25  C   UNL     1      -0.945  11.362  21.250  0.00  0.00    +0.000 A 
ATOM     26  C   UNL     1      -0.873  10.859  22.543  0.00  0.00    +0.000 A 
ATOM     27  F   UNL     1      -1.605  11.428  23.511  0.00  0.00    +0.000 F 
ATOM     28  C   UNL     1      -0.053   9.775  22.832  0.00  0.00    +0.000 A 
ATOM     29  F   UNL     1       0.014   9.293  24.080  0.00  0.00    +0.000 F 
ATOM     30  C   UNL     1       0.701   9.167  21.836  0.00  0.00    +0.000 A 
ENDBRANCH  20  23
ENDBRANCH  17  18
ENDBRANCH   9  17
TORSDOF 4
ENDMDL
MODEL 2
REMARK VINA RESULT:      -9.7      0.769      1.164
REMARK  Name = 
REMARK  4 active torsions:
REMARK  status: ('A' for Active; 'I' for Inactive)
REMARK    1  A    between atoms: C_6  and  C_7
REMARK    2  A    between atoms: N_15  and  C_16
REMARK    3  A    between atoms: C_16  and  C_17
REMARK    4  A    between atoms: N_19  and  C_20
REMARK                            x       y       z     vdW  Elec       q    Type
REMARK                         _______ _______ _______ _____ _____    ______ ____
ROOT
ATOM      1  C   UNL     1       4.241   4.870  19.109  0.00  0.00    +0.000 A 
ATOM      2  N   UNL     1       5.463   4.604  19.536  0.00  0.00    +0.000 NA
ATOM      3  C   UNL     1       6.296   5.515  18.948  0.00  0.00    +0.000 A 
ATOM      4  C   UNL     1       7.693   5.620  19.045  0.00  0.00    +0.000 A 
ATOM      5  C   UNL     1       8.351   6.647  18.361  0.00  0.00    +0.000 A 
ATOM      6  C   UNL     1       7.627   7.563  17.607  0.00  0.00    +0.000 A 
ATOM      7  C   UNL     1       6.234   7.469  17.497  0.00  0.00    +0.000 A 
ATOM      8  C   UNL     1       5.581   6.420  18.167  0.00  0.00    +0.000 A 
ATOM      9  N   UNL     1       4.271   5.983  18.259  0.00  0.00    +0.000 N 
ENDROOT
BRANCH   1  15
ATOM     10  F   UNL     1       0.444   1.871  18.353  0.00  0.00    +0.000 F 
ATOM     11  C   UNL     1       1.168   2.617  19.198  0.00  0.00    +0.000 A 
ATOM     12  C   UNL     1       0.785   2.716  20.525  0.00  0.00    +0.000 A 
ATOM     13  C   UNL     1       1.554   3.486  21.392  0.00  0.00    +0.000 A 
ATOM     14  C   UNL     1       2.673   4.177  20.908  0.00  0.00    +0.000 A 
ATOM     15  C   UNL     1       3.054   4.105  19.556  0.00  0.00    +0.000 A 
ATOM     16  C   UNL     1       2.301   3.272  18.720  0.00  0.00    +0.000 A 
ENDBRANCH   1  15
BRANCH   9  17
ATOM     17  C   UNL     1       3.072   6.517  17.618  0.00  0.00    +0.000 C 
BRANCH  17  18
ATOM     18  C   UNL     1       2.402   7.677  18.233  0.00  0.00    +0.000 A 
ATOM     19  C   UNL     1       2.019   7.897  19.538  0.00  0.00    +0.000 A 
ATOM     20  N   UNL     1       1.285   9.060  19.494  0.00  0.00    +0.000 N 
ATOM     21  N   UNL     1       1.280   9.544  18.232  0.00  0.00    +0.000 NA
ATOM     22  N   UNL     1       1.943   8.703  17.456  0.00  0.00    +0.000 NA
BRANCH  20  23
ATOM     23  C   UNL     1       0.573   9.694  20.538  0.00  0.00    +0.000 A 
ATOM     24  C   UNL     1      -0.232  10.812  20.251  0.00  0.00    +0.000 A 
ATOM     25  C   UNL     1      -0.973  11.419  21.269  0.00  0.00    +0.000 A 
ATOM     26  C   UNL     1      -0.902  10.916  22.563  0.00  0.00    +0.000 A 
ATOM     27  F   UNL     1      -1.620  11.498  23.533  0.00  0.00    +0.000 F 
ATOM     28  C   UNL     1      -0.099   9.819  22.848  0.00  0.00    +0.000 A 
ATOM     29  F   UNL     1      -0.033   9.338  24.097  0.00  0.00    +0.000 F 
ATOM     30  C   UNL     1       0.640   9.198  21.849  0.00  0.00    +0.000 A 
ENDBRANCH  20  23
ENDBRANCH  17  18
ENDBRANCH   9  17
TORSDOF 4
ENDMDL
MODEL 3
REMARK VINA RESULT:      -9.6      0.499      1.232
REMARK  Name = 
REMARK  4 active torsions:
REMARK  status: ('A' for Active; 'I' for Inactive)
REMARK    1  A    between atoms: C_6  and  C_7
REMARK    2  A    between atoms: N_15  and  C_16
REMARK    3  A    between atoms: C_16  and  C_17
REMARK    4  A    between atoms: N_19  and  C_20
REMARK                            x       y       z     vdW  Elec       q    Type
REMARK                         _______ _______ _______ _____ _____    ______ ____
ROOT
ATOM      1  C   UNL     1       4.251   4.740  18.937  0.00  0.00    +0.000 A 
ATOM      2  N   UNL     1       5.467   4.448  19.363  0.00  0.00    +0.000 NA
ATOM      3  C   UNL     1       6.301   5.419  18.880  0.00  0.00    +0.000 A 
ATOM      4  C   UNL     1       7.694   5.529  19.016  0.00  0.00    +0.000 A 
ATOM      5  C   UNL     1       8.353   6.621  18.445  0.00  0.00    +0.000 A 
ATOM      6  C   UNL     1       7.633   7.596  17.764  0.00  0.00    +0.000 A 
ATOM      7  C   UNL     1       6.244   7.499  17.616  0.00  0.00    +0.000 A 
ATOM      8  C   UNL     1       5.590   6.385  18.172  0.00  0.00    +0.000 A 
ATOM      9  N   UNL     1       4.284   5.928  18.195  0.00  0.00    +0.000 N 
ENDROOT
BRANCH   1  15
ATOM     10  F   UNL     1       1.125   2.720  22.120  0.00  0.00    +0.000 F 
ATOM     11  C   UNL     1       1.504   2.919  20.850  0.00  0.00    +0.000 A 
ATOM     12  C   UNL     1       0.797   2.316  19.822  0.00  0.00    +0.000 A 
ATOM     13  C   UNL     1       1.197   2.541  18.509  0.00  0.00    +0.000 A 
ATOM     14  C   UNL     1       2.323   3.332  18.246  0.00  0.00    +0.000 A 
ATOM     15  C   UNL     1       3.065   3.925  19.285  0.00  0.00    +0.000 A 
ATOM     16  C   UNL     1       2.602   3.736  20.593  0.00  0.00    +0.000 A 
ENDBRANCH   1  15
BRANCH   9  17
ATOM     17  C   UNL     1       3.092   6.507  17.581  0.00  0.00    +0.000 C 
BRANCH  17  18
ATOM     18  C   UNL     1       2.450   7.659  18.239  0.00  0.00    +0.000 A 
ATOM     19  C   UNL     1       1.955   7.794  19.518  0.00  0.00    +0.000 A 
ATOM     20  N   UNL     1       1.315   9.012  19.517  0.00  0.00    +0.000 N 
ATOM     21  N   UNL     1       1.472   9.604  18.312  0.00  0.00    +0.000 NA
ATOM     22  N   UNL     1       2.147   8.784  17.525  0.00  0.00    +0.000 NA
BRANCH  20  23
ATOM     23  C   UNL     1       0.551   9.608  20.547  0.00  0.00    +0.000 A 
ATOM     24  C   UNL     1       0.623   9.091  21.854  0.00  0.00    +0.000 A 
ATOM     25  C   UNL     1      -0.095   9.700  22.886  0.00  0.00    +0.000 A 
ATOM     26  C   UNL     1      -0.885  10.811  22.611  0.00  0.00    +0.000 A 
ATOM     27  F   UNL     1      -1.566  11.395  23.606  0.00  0.00    +0.000 F 
ATOM     28  C   UNL     1      -0.964  11.314  21.318  0.00  0.00    +0.000 A 
ATOM     29  F   UNL     1      -1.727  12.385  21.057  0.00  0.00    +0.000 F 
ATOM     30  C   UNL     1      -0.253  10.726  20.280  0.00  0.00    +0.000 A 
ENDBRANCH  20  23
ENDBRANCH  17  18
ENDBRANCH   9  17
TORSDOF 4
ENDMDL
MODEL 4
REMARK VINA RESULT:      -9.5      0.922      1.700
REMARK  Name = 
REMARK  4 active torsions:
REMARK  status: ('A' for Active; 'I' for Inactive)
REMARK    1  A    between atoms: C_6  and  C_7
REMARK    2  A    between atoms: N_15  and  C_16
REMARK    3  A    between atoms: C_16  and  C_17
REMARK    4  A    between atoms: N_19  and  C_20
REMARK                            x       y       z     vdW  Elec       q    Type
REMARK                         _______ _______ _______ _____ _____    ______ ____
ROOT
ATOM      1  C   UNL     1       4.245   4.867  19.100  0.00  0.00    +0.000 A 
ATOM      2  N   UNL     1       5.472   4.593  19.506  0.00  0.00    +0.000 NA
ATOM      3  C   UNL     1       6.298   5.513  18.922  0.00  0.00    +0.000 A 
ATOM      4  C   UNL     1       7.696   5.615  19.001  0.00  0.00    +0.000 A 
ATOM      5  C   UNL     1       8.346   6.652  18.325  0.00  0.00    +0.000 A 
ATOM      6  C   UNL     1       7.612   7.581  17.596  0.00  0.00    +0.000 A 
ATOM      7  C   UNL     1       6.218   7.489  17.503  0.00  0.00    +0.000 A 
ATOM      8  C   UNL     1       5.573   6.430  18.165  0.00  0.00    +0.000 A 
ATOM      9  N   UNL     1       4.264   5.993  18.268  0.00  0.00    +0.000 N 
ENDROOT
BRANCH   1  15
ATOM     10  F   UNL     1       0.470   1.835  18.359  0.00  0.00    +0.000 F 
ATOM     11  C   UNL     1       1.189   2.591  19.201  0.00  0.00    +0.000 A 
ATOM     12  C   UNL     1       0.804   2.695  20.527  0.00  0.00    +0.000 A 
ATOM     13  C   UNL     1       1.567   3.476  21.389  0.00  0.00    +0.000 A 
ATOM     14  C   UNL     1       2.681   4.172  20.902  0.00  0.00    +0.000 A 
ATOM     15  C   UNL     1       3.063   4.096  19.551  0.00  0.00    +0.000 A 
ATOM     16  C   UNL     1       2.317   3.252  18.719  0.00  0.00    +0.000 A 
ENDBRANCH   1  15
BRANCH   9  17
ATOM     17  C   UNL     1       3.057   6.538  17.651  0.00  0.00    +0.000 C 
BRANCH  17  18
ATOM     18  C   UNL     1       2.406   7.699  18.284  0.00  0.00    +0.000 A 
ATOM     19  C   UNL     1       1.917   7.859  19.562  0.00  0.00    +0.000 A 
ATOM     20  N   UNL     1       1.263   9.070  19.535  0.00  0.00    +0.000 N 
ATOM     21  N   UNL     1       1.406   9.633  18.315  0.00  0.00    +0.000 NA
ATOM     22  N   UNL     1       2.085   8.802  17.544  0.00  0.00    +0.000 NA
BRANCH  20  23
ATOM     23  C   UNL     1       0.498   9.682  20.554  0.00  0.00    +0.000 A 
ATOM     24  C   UNL     1       0.553   9.175  21.866  0.00  0.00    +0.000 A 
ATOM     25  C   UNL     1      -0.165   9.801  22.888  0.00  0.00    +0.000 A 
ATOM     26  C   UNL     1      -0.939  10.918  22.598  0.00  0.00    +0.000 A 
ATOM     27  F   UNL     1      -1.621  11.518  23.583  0.00  0.00    +0.000 F 
ATOM     28  C   UNL     1      -1.003  11.412  21.301  0.00  0.00    +0.000 A 
ATOM     29  F   UNL     1      -1.751  12.490  21.026  0.00  0.00    +0.000 F 
ATOM     30  C   UNL     1      -0.290  10.808  20.273  0.00  0.00    +0.000 A 
ENDBRANCH  20  23
ENDBRANCH  17  18
ENDBRANCH   9  17
TORSDOF 4
ENDMDL
MODEL 5
REMARK VINA RESULT:      -9.2      2.244      4.416
REMARK  Name = 
REMARK  4 active torsions:
REMARK  status: ('A' for Active; 'I' for Inactive)
REMARK    1  A    between atoms: C_6  and  C_7
REMARK    2  A    between atoms: N_15  and  C_16
REMARK    3  A    between atoms: C_16  and  C_17
REMARK    4  A    between atoms: N_19  and  C_20
REMARK                            x       y       z     vdW  Elec       q    Type
REMARK                         _______ _______ _______ _____ _____    ______ ____
ROOT
ATOM      1  C   UNL     1       4.518   4.237  18.526  0.00  0.00    +0.000 A 
ATOM      2  N   UNL     1       4.770   3.286  19.409  0.00  0.00    +0.000 NA
ATOM      3  C   UNL     1       3.619   3.094  20.123  0.00  0.00    +0.000 A 
ATOM      4  C   UNL     1       3.390   2.228  21.205  0.00  0.00    +0.000 A 
ATOM      5  C   UNL     1       2.120   2.182  21.787  0.00  0.00    +0.000 A 
ATOM      6  C   UNL     1       1.092   2.974  21.289  0.00  0.00    +0.000 A 
ATOM      7  C   UNL     1       1.306   3.846  20.214  0.00  0.00    +0.000 A 
ATOM      8  C   UNL     1       2.591   3.905  19.648  0.00  0.00    +0.000 A 
ATOM      9  N   UNL     1       3.184   4.648  18.643  0.00  0.00    +0.000 N 
ENDROOT
BRANCH   1  15
ATOM     10  F   UNL     1       8.034   7.282  16.991  0.00  0.00    +0.000 F 
ATOM     11  C   UNL     1       7.273   6.201  16.770  0.00  0.00    +0.000 A 
ATOM     12  C   UNL     1       7.392   5.512  15.575  0.00  0.00    +0.000 A 
ATOM     13  C   UNL     1       6.601   4.386  15.366  0.00  0.00    +0.000 A 
ATOM     14  C   UNL     1       5.674   3.991  16.340  0.00  0.00    +0.000 A 
ATOM     15  C   UNL     1       5.525   4.702  17.545  0.00  0.00    +0.000 A 
ATOM     16  C   UNL     1       6.379   5.792  17.757  0.00  0.00    +0.000 A 
ENDBRANCH   1  15
BRANCH   9  17
ATOM     17  C   UNL     1       2.607   5.696  17.806  0.00  0.00    +0.000 C 
BRANCH  17  18
ATOM     18  C   UNL     1       2.281   6.993  18.425  0.00  0.00    +0.000 A 
ATOM     19  C   UNL     1       1.739   7.280  19.659  0.00  0.00    +0.000 A 
ATOM     20  N   UNL     1       1.492   8.633  19.624  0.00  0.00    +0.000 N 
ATOM     21  N   UNL     1       1.920   9.141  18.447  0.00  0.00    +0.000 NA
ATOM     22  N   UNL     1       2.387   8.150  17.706  0.00  0.00    +0.000 NA
BRANCH  20  23
ATOM     23  C   UNL     1       0.852   9.439  20.595  0.00  0.00    +0.000 A 
ATOM     24  C   UNL     1       0.311  10.682  20.219  0.00  0.00    +0.000 A 
ATOM     25  C   UNL     1      -0.361  11.465  21.161  0.00  0.00    +0.000 A 
ATOM     26  C   UNL     1      -0.483  11.011  22.469  0.00  0.00    +0.000 A 
ATOM     27  F   UNL     1      -1.134  11.763  23.367  0.00  0.00    +0.000 F 
ATOM     28  C   UNL     1       0.062   9.789  22.843  0.00  0.00    +0.000 A 
ATOM     29  F   UNL     1      -0.057   9.356  24.105  0.00  0.00    +0.000 F 
ATOM     30  C   UNL     1       0.728   8.993  21.919  0.00  0.00    +0.000 A 
ENDBRANCH  20  23
ENDBRANCH  17  18
ENDBRANCH   9  17
TORSDOF 4
ENDMDL
MODEL 6
REMARK VINA RESULT:      -9.1      2.245      4.492
REMARK  Name = 
REMARK  4 active torsions:
REMARK  status: ('A' for Active; 'I' for Inactive)
REMARK    1  A    between atoms: C_6  and  C_7
REMARK    2  A    between atoms: N_15  and  C_16
REMARK    3  A    between atoms: C_16  and  C_17
REMARK    4  A    between atoms: N_19  and  C_20
REMARK                            x       y       z     vdW  Elec       q    Type
REMARK                         _______ _______ _______ _____ _____    ______ ____
ROOT
ATOM      1  C   UNL     1       4.506   4.235  18.506  0.00  0.00    +0.000 A 
ATOM      2  N   UNL     1       4.740   3.294  19.404  0.00  0.00    +0.000 NA
ATOM      3  C   UNL     1       3.589   3.137  20.124  0.00  0.00    +0.000 A 
ATOM      4  C   UNL     1       3.345   2.293  21.220  0.00  0.00    +0.000 A 
ATOM      5  C   UNL     1       2.076   2.283  21.806  0.00  0.00    +0.000 A 
ATOM      6  C   UNL     1       1.063   3.087  21.298  0.00  0.00    +0.000 A 
ATOM      7  C   UNL     1       1.291   3.938  20.209  0.00  0.00    +0.000 A 
ATOM      8  C   UNL     1       2.576   3.961  19.639  0.00  0.00    +0.000 A 
ATOM      9  N   UNL     1       3.181   4.676  18.620  0.00  0.00    +0.000 N 
ENDROOT
BRANCH   1  15
ATOM     10  F   UNL     1       6.863   3.855  14.230  0.00  0.00    +0.000 F 
ATOM     11  C   UNL     1       6.696   4.492  15.397  0.00  0.00    +0.000 A 
ATOM     12  C   UNL     1       7.516   5.561  15.718  0.00  0.00    +0.000 A 
ATOM     13  C   UNL     1       7.322   6.217  16.929  0.00  0.00    +0.000 A 
ATOM     14  C   UNL     1       6.338   5.768  17.819  0.00  0.00    +0.000 A 
ATOM     15  C   UNL     1       5.520   4.664  17.515  0.00  0.00    +0.000 A 
ATOM     16  C   UNL     1       5.692   4.064  16.262  0.00  0.00    +0.000 A 
ENDBRANCH   1  15
BRANCH   9  17
ATOM     17  C   UNL     1       2.623   5.722  17.768  0.00  0.00    +0.000 C 
BRANCH  17  18
ATOM     18  C   UNL     1       2.287   7.022  18.376  0.00  0.00    +0.000 A 
ATOM     19  C   UNL     1       1.794   7.319  19.628  0.00  0.00    +0.000 A 
ATOM     20  N   UNL     1       1.505   8.663  19.578  0.00  0.00    +0.000 N 
ATOM     21  N   UNL     1       1.863   9.158  18.372  0.00  0.00    +0.000 NA
ATOM     22  N   UNL     1       2.325   8.166  17.630  0.00  0.00    +0.000 NA
BRANCH  20  23
ATOM     23  C   UNL     1       0.887   9.470  20.561  0.00  0.00    +0.000 A 
ATOM     24  C   UNL     1       0.405  10.745  20.212  0.00  0.00    +0.000 A 
ATOM     25  C   UNL     1      -0.246  11.532  21.165  0.00  0.00    +0.000 A 
ATOM     26  C   UNL     1      -0.405  11.050  22.459  0.00  0.00    +0.000 A 
ATOM     27  F   UNL     1      -1.036  11.806  23.368  0.00  0.00    +0.000 F 
ATOM     28  C   UNL     1       0.080   9.796  22.808  0.00  0.00    +0.000 A 
ATOM     29  F   UNL     1      -0.075   9.335  24.056  0.00  0.00    +0.000 F 
ATOM     30  C   UNL     1       0.725   8.996  21.872  0.00  0.00    +0.000 A 
ENDBRANCH  20  23
ENDBRANCH  17  18
ENDBRANCH   9  17
TORSDOF 4
ENDMDL
MODEL 7
REMARK VINA RESULT:      -8.9      2.155      2.695
REMARK  Name = 
REMARK  4 active torsions:
REMARK  status: ('A' for Active; 'I' for Inactive)
REMARK    1  A    between atoms: C_6  and  C_7
REMARK    2  A    between atoms: N_15  and  C_16
REMARK    3  A    between atoms: C_16  and  C_17
REMARK    4  A    between atoms: N_19  and  C_20
REMARK                            x       y       z     vdW  Elec       q    Type
REMARK                         _______ _______ _______ _____ _____    ______ ____
ROOT
ATOM      1  C   UNL     1       4.278   4.852  19.198  0.00  0.00    +0.000 A 
ATOM      2  N   UNL     1       5.502   4.638  19.647  0.00  0.00    +0.000 NA
ATOM      3  C   UNL     1       6.314   5.553  19.036  0.00  0.00    +0.000 A 
ATOM      4  C   UNL     1       7.706   5.704  19.144  0.00  0.00    +0.000 A 
ATOM      5  C   UNL     1       8.341   6.726  18.431  0.00  0.00    +0.000 A 
ATOM      6  C   UNL     1       7.598   7.592  17.638  0.00  0.00    +0.000 A 
ATOM      7  C   UNL     1       6.210   7.452  17.516  0.00  0.00    +0.000 A 
ATOM      8  C   UNL     1       5.581   6.408  18.217  0.00  0.00    +0.000 A 
ATOM      9  N   UNL     1       4.284   5.935  18.310  0.00  0.00    +0.000 N 
ENDROOT
BRANCH   1  15
ATOM     10  F   UNL     1       0.482   1.842  18.476  0.00  0.00    +0.000 F 
ATOM     11  C   UNL     1       1.225   2.573  19.318  0.00  0.00    +0.000 A 
ATOM     12  C   UNL     1       0.879   2.637  20.658  0.00  0.00    +0.000 A 
ATOM     13  C   UNL     1       1.667   3.391  21.521  0.00  0.00    +0.000 A 
ATOM     14  C   UNL     1       2.767   4.103  21.023  0.00  0.00    +0.000 A 
ATOM     15  C   UNL     1       3.110   4.067  19.659  0.00  0.00    +0.000 A 
ATOM     16  C   UNL     1       2.339   3.248  18.825  0.00  0.00    +0.000 A 
ENDBRANCH   1  15
BRANCH   9  17
ATOM     17  C   UNL     1       3.077   6.409  17.638  0.00  0.00    +0.000 C 
BRANCH  17  18
ATOM     18  C   UNL     1       2.331   7.529  18.238  0.00  0.00    +0.000 A 
ATOM     19  C   UNL     1       1.867   8.696  17.672  0.00  0.00    +0.000 A 
ATOM     20  N   UNL     1       1.408   9.440  18.735  0.00  0.00    +0.000 N 
ATOM     21  N   UNL     1       1.538   8.727  19.875  0.00  0.00    +0.000 NA
ATOM     22  N   UNL     1       2.112   7.571  19.587  0.00  0.00    +0.000 NA
BRANCH  20  23
ATOM     23  C   UNL     1       0.911  10.764  18.736  0.00  0.00    +0.000 A 
ATOM     24  C   UNL     1       1.794  11.839  18.523  0.00  0.00    +0.000 A 
ATOM     25  C   UNL     1       1.305  13.147  18.479  0.00  0.00    +0.000 A 
ATOM     26  C   UNL     1      -0.054  13.378  18.655  0.00  0.00    +0.000 A 
ATOM     27  F   UNL     1      -0.519  14.633  18.605  0.00  0.00    +0.000 F 
ATOM     28  C   UNL     1      -0.925  12.318  18.876  0.00  0.00    +0.000 A 
ATOM     29  F   UNL     1      -2.234  12.545  19.045  0.00  0.00    +0.000 F 
ATOM     30  C   UNL     1      -0.459  11.010  18.916  0.00  0.00    +0.000 A 
ENDBRANCH  20  23
ENDBRANCH  17  18
ENDBRANCH   9  17
TORSDOF 4
ENDMDL
MODEL 8
REMARK VINA RESULT:      -8.8      2.311      4.586
REMARK  Name = 
REMARK  4 active torsions:
REMARK  status: ('A' for Active; 'I' for Inactive)
REMARK    1  A    between atoms: C_6  and  C_7
REMARK    2  A    between atoms: N_15  and  C_16
REMARK    3  A    between atoms: C_16  and  C_17
REMARK    4  A    between atoms: N_19  and  C_20
REMARK                            x       y       z     vdW  Elec       q    Type
REMARK                         _______ _______ _______ _____ _____    ______ ____
ROOT
ATOM      1  C   UNL     1       4.497   4.240  18.541  0.00  0.00    +0.000 A 
ATOM      2  N   UNL     1       4.736   3.283  19.421  0.00  0.00    +0.000 NA
ATOM      3  C   UNL     1       3.582   3.099  20.130  0.00  0.00    +0.000 A 
ATOM      4  C   UNL     1       3.340   2.230  21.206  0.00  0.00    +0.000 A 
ATOM      5  C   UNL     1       2.067   2.193  21.784  0.00  0.00    +0.000 A 
ATOM      6  C   UNL     1       1.049   2.997  21.285  0.00  0.00    +0.000 A 
ATOM      7  C   UNL     1       1.275   3.872  20.216  0.00  0.00    +0.000 A 
ATOM      8  C   UNL     1       2.563   3.921  19.655  0.00  0.00    +0.000 A 
ATOM      9  N   UNL     1       3.167   4.664  18.655  0.00  0.00    +0.000 N 
ENDROOT
BRANCH   1  15
ATOM     10  F   UNL     1       8.000   7.299  17.003  0.00  0.00    +0.000 F 
ATOM     11  C   UNL     1       7.253   6.206  16.790  0.00  0.00    +0.000 A 
ATOM     12  C   UNL     1       7.396   5.498  15.608  0.00  0.00    +0.000 A 
ATOM     13  C   UNL     1       6.621   4.361  15.407  0.00  0.00    +0.000 A 
ATOM     14  C   UNL     1       5.685   3.972  16.375  0.00  0.00    +0.000 A 
ATOM     15  C   UNL     1       5.512   4.701  17.566  0.00  0.00    +0.000 A 
ATOM     16  C   UNL     1       6.351   5.803  17.771  0.00  0.00    +0.000 A 
ENDBRANCH   1  15
BRANCH   9  17
ATOM     17  C   UNL     1       2.603   5.721  17.821  0.00  0.00    +0.000 C 
BRANCH  17  18
ATOM     18  C   UNL     1       2.280   7.016  18.447  0.00  0.00    +0.000 A 
ATOM     19  C   UNL     1       1.665   7.297  19.647  0.00  0.00    +0.000 A 
ATOM     20  N   UNL     1       1.468   8.658  19.627  0.00  0.00    +0.000 N 
ATOM     21  N   UNL     1       1.993   9.174  18.494  0.00  0.00    +0.000 NA
ATOM     22  N   UNL     1       2.475   8.183  17.764  0.00  0.00    +0.000 NA
BRANCH  20  23
ATOM     23  C   UNL     1       0.792   9.466  20.571  0.00  0.00    +0.000 A 
ATOM     24  C   UNL     1       0.564   8.975  21.870  0.00  0.00    +0.000 A 
ATOM     25  C   UNL     1      -0.064   9.783  22.822  0.00  0.00    +0.000 A 
ATOM     26  C   UNL     1      -0.469  11.066  22.473  0.00  0.00    +0.000 A 
ATOM     27  F   UNL     1      -1.065  11.839  23.391  0.00  0.00    +0.000 F 
ATOM     28  C   UNL     1      -0.254  11.546  21.187  0.00  0.00    +0.000 A 
ATOM     29  F   UNL     1      -0.646  12.784  20.856  0.00  0.00    +0.000 F 
ATOM     30  C   UNL     1       0.375  10.761  20.229  0.00  0.00    +0.000 A 
ENDBRANCH  20  23
ENDBRANCH  17  18
ENDBRANCH   9  17
TORSDOF 4
ENDMDL
MODEL 9
REMARK VINA RESULT:      -8.8      2.061      2.409
REMARK  Name = 
REMARK  4 active torsions:
REMARK  status: ('A' for Active; 'I' for Inactive)
REMARK    1  A    between atoms: C_6  and  C_7
REMARK    2  A    between atoms: N_15  and  C_16
REMARK    3  A    between atoms: C_16  and  C_17
REMARK    4  A    between atoms: N_19  and  C_20
REMARK                            x       y       z     vdW  Elec       q    Type
REMARK                         _______ _______ _______ _____ _____    ______ ____
ROOT
ATOM      1  C   UNL     1       4.259   4.714  18.974  0.00  0.00    +0.000 A 
ATOM      2  N   UNL     1       5.468   4.469  19.447  0.00  0.00    +0.000 NA
ATOM      3  C   UNL     1       6.295   5.433  18.941  0.00  0.00    +0.000 A 
ATOM      4  C   UNL     1       7.682   5.579  19.109  0.00  0.00    +0.000 A 
ATOM      5  C   UNL     1       8.335   6.656  18.504  0.00  0.00    +0.000 A 
ATOM      6  C   UNL     1       7.615   7.582  17.757  0.00  0.00    +0.000 A 
ATOM      7  C   UNL     1       6.233   7.447  17.576  0.00  0.00    +0.000 A 
ATOM      8  C   UNL     1       5.586   6.348  18.167  0.00  0.00    +0.000 A 
ATOM      9  N   UNL     1       4.289   5.865  18.176  0.00  0.00    +0.000 N 
ENDROOT
BRANCH   1  15
ATOM     10  F   UNL     1       1.131   2.719  22.172  0.00  0.00    +0.000 F 
ATOM     11  C   UNL     1       1.518   2.897  20.901  0.00  0.00    +0.000 A 
ATOM     12  C   UNL     1       0.827   2.266  19.880  0.00  0.00    +0.000 A 
ATOM     13  C   UNL     1       1.235   2.470  18.566  0.00  0.00    +0.000 A 
ATOM     14  C   UNL     1       2.354   3.270  18.296  0.00  0.00    +0.000 A 
ATOM     15  C   UNL     1       3.080   3.891  19.329  0.00  0.00    +0.000 A 
ATOM     16  C   UNL     1       2.608   3.722  20.636  0.00  0.00    +0.000 A 
ENDBRANCH   1  15
BRANCH   9  17
ATOM     17  C   UNL     1       3.104   6.389  17.502  0.00  0.00    +0.000 C 
BRANCH  17  18
ATOM     18  C   UNL     1       2.356   7.485  18.143  0.00  0.00    +0.000 A 
ATOM     19  C   UNL     1       1.852   8.651  17.610  0.00  0.00    +0.000 A 
ATOM     20  N   UNL     1       1.413   9.370  18.698  0.00  0.00    +0.000 N 
ATOM     21  N   UNL     1       1.592   8.642  19.823  0.00  0.00    +0.000 NA
ATOM     22  N   UNL     1       2.178   7.502  19.498  0.00  0.00    +0.000 NA
BRANCH  20  23
ATOM     23  C   UNL     1       0.891  10.683  18.736  0.00  0.00    +0.000 A 
ATOM     24  C   UNL     1       1.768  11.782  18.675  0.00  0.00    +0.000 A 
ATOM     25  C   UNL     1       1.259  13.083  18.668  0.00  0.00    +0.000 A 
ATOM     26  C   UNL     1      -0.115  13.283  18.729  0.00  0.00    +0.000 A 
ATOM     27  F   UNL     1      -0.598  14.532  18.714  0.00  0.00    +0.000 F 
ATOM     28  C   UNL     1      -0.981  12.199  18.799  0.00  0.00    +0.000 A 
ATOM     29  F   UNL     1      -2.305  12.395  18.858  0.00  0.00    +0.000 F 
ATOM     30  C   UNL     1      -0.494  10.897  18.801  0.00  0.00    +0.000 A 
ENDBRANCH  20  23
ENDBRANCH  17  18
ENDBRANCH   9  17
TORSDOF 4
ENDMDL
