MODEL 1
REMARK VINA RESULT:      -7.9      0.000      0.000
REMARK  Name = 
REMARK  10 active torsions:
REMARK  status: ('A' for Active; 'I' for Inactive)
REMARK    1  A    between atoms: C_1  and  O_2
REMARK    2  A    between atoms: O_2  and  C_3
REMARK    3  A    between atoms: C_4  and  N_5
REMARK    4  A    between atoms: C_8  and  C_9
REMARK    5  A    between atoms: C_9  and  C_10
REMARK    6  A    between atoms: C_9  and  C_11
REMARK    7  A    between atoms: C_9  and  N_12
REMARK    8  A    between atoms: N_12  and  C_13
REMARK    9  A    between atoms: C_13  and  C_14
REMARK   10  A    between atoms: N_29  and  C_30
REMARK                            x       y       z     vdW  Elec       q    Type
REMARK                         _______ _______ _______ _____ _____    ______ ____
ROOT
ATOM      1  C   UNL     1       1.575   8.105  19.773  0.00  0.00    +0.000 A 
ATOM      2  C   UNL     1       1.293   9.391  19.177  0.00  0.00    +0.000 A 
ATOM      3  C   UNL     1       2.034   9.679  18.009  0.00  0.00    +0.000 A 
ATOM      4  F   UNL     1       1.959  10.872  17.401  0.00  0.00    +0.000 F 
ATOM      5  C   UNL     1       2.945   8.796  17.459  0.00  0.00    +0.000 A 
ATOM      6  C   UNL     1       3.143   7.540  18.028  0.00  0.00    +0.000 A 
ATOM      7  C   UNL     1       4.148   6.679  17.383  0.00  0.00    +0.000 A 
ATOM      8  O   UNL     1       4.743   7.065  16.386  0.00  0.00    +0.000 OA
ATOM      9  C   UNL     1       4.414   5.393  18.009  0.00  0.00    +0.000 A 
ATOM     10  C   UNL     1       5.469   4.447  17.568  0.00  0.00    +0.000 A 
ATOM     11  O   UNL     1       6.233   4.582  16.637  0.00  0.00    +0.000 OA
ATOM     12  N   UNL     1       5.465   3.356  18.392  0.00  0.00    +0.000 N 
ATOM     13  S   UNL     1       4.329   3.405  19.618  0.00  0.00    +0.000 S 
ATOM     14  C   UNL     1       3.690   4.973  19.072  0.00  0.00    +0.000 A 
ATOM     15  N   UNL     1       2.644   5.741  19.641  0.00  0.00    +0.000 N 
ATOM     16  C   UNL     1       2.440   7.117  19.172  0.00  0.00    +0.000 A 
ATOM     17  H   UNL     1       6.117   2.597  18.238  0.00  0.00    +0.000 HD
ENDROOT
BRANCH   2  18
ATOM     18  N   UNL     1       0.400  10.338  19.678  0.00  0.00    +0.000 N 
ATOM     19  C   UNL     1      -1.044  10.267  19.454  0.00  0.00    +0.000 C 
ATOM     20  C   UNL     1      -1.534  11.672  19.772  0.00  0.00    +0.000 C 
ATOM     21  C   UNL     1      -0.611  12.182  20.882  0.00  0.00    +0.000 C 
ATOM     22  C   UNL     1       0.721  11.432  20.602  0.00  0.00    +0.000 C 
BRANCH  21  23
ATOM     23  C   UNL     1      -1.158  12.051  22.354  0.00  0.00    +0.000 C 
ATOM     24  C   UNL     1      -2.676  12.356  22.369  0.00  0.00    +0.000 C 
ATOM     25  C   UNL     1      -0.934  10.635  22.918  0.00  0.00    +0.000 C 
BRANCH  23  26
ATOM     26  N   UNL     1      -0.438  13.063  23.172  0.00  0.00    +0.000 NA
ATOM     27  H   UNL     1       0.564  12.851  23.180  0.00  0.00    +0.000 HD
BRANCH  26  28
ATOM     28  C   UNL     1      -0.589  14.467  22.755  0.00  0.00    +0.000 C 
BRANCH  28  29
ATOM     29  C   UNL     1      -1.024  15.357  23.919  0.00  0.00    +0.000 C 
ATOM     30  F   UNL     1      -1.687  14.602  24.840  0.00  0.00    +0.000 F 
ENDBRANCH  28  29
ENDBRANCH  26  28
ENDBRANCH  23  26
ENDBRANCH  21  23
ENDBRANCH   2  18
BRANCH  15  31
ATOM     31  C   UNL     1       1.647   5.113  20.584  0.00  0.00    +0.000 C 
ATOM     32  C   UNL     1       0.949   3.772  20.580  0.00  0.00    +0.000 C 
ATOM     33  C   UNL     1       2.096   3.987  21.505  0.00  0.00    +0.000 C 
ENDBRANCH  15  31
BRANCH   1  35
ATOM     34  C   UNL     1       1.573   8.438  22.069  0.00  0.00    +0.000 C 
ATOM     35  O   UNL     1       0.935   7.806  20.959  0.00  0.00    +0.000 OA
ENDBRANCH   1  35
TORSDOF 7
ENDMDL
MODEL 2
REMARK VINA RESULT:      -7.9      2.062      2.891
REMARK  Name = 
REMARK  10 active torsions:
REMARK  status: ('A' for Active; 'I' for Inactive)
REMARK    1  A    between atoms: C_1  and  O_2
REMARK    2  A    between atoms: O_2  and  C_3
REMARK    3  A    between atoms: C_4  and  N_5
REMARK    4  A    between atoms: C_8  and  C_9
REMARK    5  A    between atoms: C_9  and  C_10
REMARK    6  A    between atoms: C_9  and  C_11
REMARK    7  A    between atoms: C_9  and  N_12
REMARK    8  A    between atoms: N_12  and  C_13
REMARK    9  A    between atoms: C_13  and  C_14
REMARK   10  A    between atoms: N_29  and  C_30
REMARK                            x       y       z     vdW  Elec       q    Type
REMARK                         _______ _______ _______ _____ _____    ______ ____
ROOT
ATOM      1  C   UNL     1       1.638   8.041  19.865  0.00  0.00    +0.000 A 
ATOM      2  C   UNL     1       1.372   9.360  19.338  0.00  0.00    +0.000 A 
ATOM      3  C   UNL     1       2.055   9.670  18.140  0.00  0.00    +0.000 A 
ATOM      4  F   UNL     1       1.991  10.889  17.585  0.00  0.00    +0.000 F 
ATOM      5  C   UNL     1       2.898   8.778  17.503  0.00  0.00    +0.000 A 
ATOM      6  C   UNL     1       3.080   7.493  18.009  0.00  0.00    +0.000 A 
ATOM      7  C   UNL     1       4.013   6.624  17.273  0.00  0.00    +0.000 A 
ATOM      8  O   UNL     1       4.564   7.030  16.259  0.00  0.00    +0.000 OA
ATOM      9  C   UNL     1       4.265   5.304  17.831  0.00  0.00    +0.000 A 
ATOM     10  C   UNL     1       5.256   4.341  17.291  0.00  0.00    +0.000 A 
ATOM     11  O   UNL     1       5.969   4.486  16.323  0.00  0.00    +0.000 OA
ATOM     12  N   UNL     1       5.257   3.217  18.070  0.00  0.00    +0.000 N 
ATOM     13  S   UNL     1       4.196   3.255  19.362  0.00  0.00    +0.000 S 
ATOM     14  C   UNL     1       3.588   4.867  18.917  0.00  0.00    +0.000 A 
ATOM     15  N   UNL     1       2.606   5.648  19.577  0.00  0.00    +0.000 N 
ATOM     16  C   UNL     1       2.428   7.048  19.175  0.00  0.00    +0.000 A 
ATOM     17  H   UNL     1       5.869   2.442  17.849  0.00  0.00    +0.000 HD
ENDROOT
BRANCH   2  18
ATOM     18  N   UNL     1       0.546  10.317  19.928  0.00  0.00    +0.000 N 
ATOM     19  C   UNL     1       1.056  11.560  20.506  0.00  0.00    +0.000 C 
ATOM     20  C   UNL     1      -0.081  12.046  21.393  0.00  0.00    +0.000 C 
ATOM     21  C   UNL     1      -1.364  11.599  20.687  0.00  0.00    +0.000 C 
ATOM     22  C   UNL     1      -0.921  10.314  19.935  0.00  0.00    +0.000 C 
BRANCH  21  23
ATOM     23  C   UNL     1      -2.080  12.685  19.796  0.00  0.00    +0.000 C 
ATOM     24  C   UNL     1      -3.498  12.956  20.353  0.00  0.00    +0.000 C 
ATOM     25  C   UNL     1      -1.295  14.010  19.778  0.00  0.00    +0.000 C 
BRANCH  23  26
ATOM     26  N   UNL     1      -2.183  12.117  18.426  0.00  0.00    +0.000 NA
ATOM     27  H   UNL     1      -1.510  11.352  18.318  0.00  0.00    +0.000 HD
BRANCH  26  28
ATOM     28  C   UNL     1      -3.504  11.601  18.030  0.00  0.00    +0.000 C 
BRANCH  28  29
ATOM     29  C   UNL     1      -3.382  10.390  17.104  0.00  0.00    +0.000 C 
ATOM     30  F   UNL     1      -3.468   9.249  17.843  0.00  0.00    +0.000 F 
ENDBRANCH  28  29
ENDBRANCH  26  28
ENDBRANCH  23  26
ENDBRANCH  21  23
ENDBRANCH   2  18
BRANCH  15  31
ATOM     31  C   UNL     1       1.641   5.017  20.551  0.00  0.00    +0.000 C 
ATOM     32  C   UNL     1       1.057   3.626  20.647  0.00  0.00    +0.000 C 
ATOM     33  C   UNL     1       2.159   4.013  21.571  0.00  0.00    +0.000 C 
ENDBRANCH  15  31
BRANCH   1  35
ATOM     34  C   UNL     1       1.564   8.529  22.132  0.00  0.00    +0.000 C 
ATOM     35  O   UNL     1       1.056   7.716  21.074  0.00  0.00    +0.000 OA
ENDBRANCH   1  35
TORSDOF 7
ENDMDL
MODEL 3
REMARK VINA RESULT:      -7.8      0.916      1.364
REMARK  Name = 
REMARK  10 active torsions:
REMARK  status: ('A' for Active; 'I' for Inactive)
REMARK    1  A    between atoms: C_1  and  O_2
REMARK    2  A    between atoms: O_2  and  C_3
REMARK    3  A    between atoms: C_4  and  N_5
REMARK    4  A    between atoms: C_8  and  C_9
REMARK    5  A    between atoms: C_9  and  C_10
REMARK    6  A    between atoms: C_9  and  C_11
REMARK    7  A    between atoms: C_9  and  N_12
REMARK    8  A    between atoms: N_12  and  C_13
REMARK    9  A    between atoms: C_13  and  C_14
REMARK   10  A    between atoms: N_29  and  C_30
REMARK                            x       y       z     vdW  Elec       q    Type
REMARK                         _______ _______ _______ _____ _____    ______ ____
ROOT
ATOM      1  C   UNL     1       1.537   8.185  19.715  0.00  0.00    +0.000 A 
ATOM      2  C   UNL     1       1.259   9.461  19.096  0.00  0.00    +0.000 A 
ATOM      3  C   UNL     1       2.032   9.745  17.948  0.00  0.00    +0.000 A 
ATOM      4  F   UNL     1       1.962  10.930  17.325  0.00  0.00    +0.000 F 
ATOM      5  C   UNL     1       2.969   8.866  17.436  0.00  0.00    +0.000 A 
ATOM      6  C   UNL     1       3.163   7.618  18.025  0.00  0.00    +0.000 A 
ATOM      7  C   UNL     1       4.198   6.763  17.421  0.00  0.00    +0.000 A 
ATOM      8  O   UNL     1       4.819   7.145  16.438  0.00  0.00    +0.000 OA
ATOM      9  C   UNL     1       4.459   5.487  18.070  0.00  0.00    +0.000 A 
ATOM     10  C   UNL     1       5.537   4.548  17.671  0.00  0.00    +0.000 A 
ATOM     11  O   UNL     1       6.328   4.681  16.763  0.00  0.00    +0.000 OA
ATOM     12  N   UNL     1       5.520   3.466  18.507  0.00  0.00    +0.000 N 
ATOM     13  S   UNL     1       4.346   3.515  19.697  0.00  0.00    +0.000 S 
ATOM     14  C   UNL     1       3.707   5.070  19.114  0.00  0.00    +0.000 A 
ATOM     15  N   UNL     1       2.635   5.832  19.642  0.00  0.00    +0.000 N 
ATOM     16  C   UNL     1       2.431   7.200  19.151  0.00  0.00    +0.000 A 
ATOM     17  H   UNL     1       6.185   2.713  18.382  0.00  0.00    +0.000 HD
ENDROOT
BRANCH   2  18
ATOM     18  N   UNL     1       0.341  10.403  19.559  0.00  0.00    +0.000 N 
ATOM     19  C   UNL     1      -1.097  10.307  19.302  0.00  0.00    +0.000 C 
ATOM     20  C   UNL     1      -1.615  11.709  19.583  0.00  0.00    +0.000 C 
ATOM     21  C   UNL     1      -0.726  12.252  20.706  0.00  0.00    +0.000 C 
ATOM     22  C   UNL     1       0.623  11.517  20.471  0.00  0.00    +0.000 C 
BRANCH  21  23
ATOM     23  C   UNL     1      -1.307  12.138  22.166  0.00  0.00    +0.000 C 
ATOM     24  C   UNL     1      -0.828  10.815  22.811  0.00  0.00    +0.000 C 
ATOM     25  C   UNL     1      -0.850  13.313  23.052  0.00  0.00    +0.000 C 
BRANCH  23  26
ATOM     26  N   UNL     1      -2.788  12.121  22.039  0.00  0.00    +0.000 NA
ATOM     27  H   UNL     1      -3.163  11.272  22.472  0.00  0.00    +0.000 HD
BRANCH  26  28
ATOM     28  C   UNL     1      -3.507  13.266  22.621  0.00  0.00    +0.000 C 
BRANCH  28  29
ATOM     29  C   UNL     1      -4.562  12.816  23.632  0.00  0.00    +0.000 C 
ATOM     30  F   UNL     1      -3.949  12.182  24.670  0.00  0.00    +0.000 F 
ENDBRANCH  28  29
ENDBRANCH  26  28
ENDBRANCH  23  26
ENDBRANCH  21  23
ENDBRANCH   2  18
BRANCH  15  31
ATOM     31  C   UNL     1       1.617   5.202  20.561  0.00  0.00    +0.000 C 
ATOM     32  C   UNL     1       0.927   3.858  20.545  0.00  0.00    +0.000 C 
ATOM     33  C   UNL     1       2.048   4.084  21.500  0.00  0.00    +0.000 C 
ENDBRANCH  15  31
BRANCH   1  35
ATOM     34  C   UNL     1       1.510   8.472  22.017  0.00  0.00    +0.000 C 
ATOM     35  O   UNL     1       0.864   7.891  20.884  0.00  0.00    +0.000 OA
ENDBRANCH   1  35
TORSDOF 7
ENDMDL
MODEL 4
REMARK VINA RESULT:      -7.6      1.642      2.338
REMARK  Name = 
REMARK  10 active torsions:
REMARK  status: ('A' for Active; 'I' for Inactive)
REMARK    1  A    between atoms: C_1  and  O_2
REMARK    2  A    between atoms: O_2  and  C_3
REMARK    3  A    between atoms: C_4  and  N_5
REMARK    4  A    between atoms: C_8  and  C_9
REMARK    5  A    between atoms: C_9  and  C_10
REMARK    6  A    between atoms: C_9  and  C_11
REMARK    7  A    between atoms: C_9  and  N_12
REMARK    8  A    between atoms: N_12  and  C_13
REMARK    9  A    between atoms: C_13  and  C_14
REMARK   10  A    between atoms: N_29  and  C_30
REMARK                            x       y       z     vdW  Elec       q    Type
REMARK                         _______ _______ _______ _____ _____    ______ ____
ROOT
ATOM      1  C   UNL     1       1.644   7.978  19.834  0.00  0.00    +0.000 A 
ATOM      2  C   UNL     1       1.397   9.296  19.295  0.00  0.00    +0.000 A 
ATOM      3  C   UNL     1       2.106   9.595  18.110  0.00  0.00    +0.000 A 
ATOM      4  F   UNL     1       2.061  10.812  17.548  0.00  0.00    +0.000 F 
ATOM      5  C   UNL     1       2.957   8.695  17.495  0.00  0.00    +0.000 A 
ATOM      6  C   UNL     1       3.120   7.412  18.012  0.00  0.00    +0.000 A 
ATOM      7  C   UNL     1       4.063   6.534  17.299  0.00  0.00    +0.000 A 
ATOM      8  O   UNL     1       4.638   6.931  16.294  0.00  0.00    +0.000 OA
ATOM      9  C   UNL     1       4.296   5.215  17.869  0.00  0.00    +0.000 A 
ATOM     10  C   UNL     1       5.291   4.243  17.354  0.00  0.00    +0.000 A 
ATOM     11  O   UNL     1       6.025   4.379  16.400  0.00  0.00    +0.000 OA
ATOM     12  N   UNL     1       5.269   3.123  18.139  0.00  0.00    +0.000 N 
ATOM     13  S   UNL     1       4.182   3.174  19.409  0.00  0.00    +0.000 S 
ATOM     14  C   UNL     1       3.593   4.788  18.943  0.00  0.00    +0.000 A 
ATOM     15  N   UNL     1       2.603   5.578  19.578  0.00  0.00    +0.000 N 
ATOM     16  C   UNL     1       2.442   6.977  19.166  0.00  0.00    +0.000 A 
ATOM     17  H   UNL     1       5.881   2.343  17.934  0.00  0.00    +0.000 HD
ENDROOT
BRANCH   2  18
ATOM     18  N   UNL     1       0.566  10.261  19.864  0.00  0.00    +0.000 N 
ATOM     19  C   UNL     1       1.071  11.369  20.675  0.00  0.00    +0.000 C 
ATOM     20  C   UNL     1      -0.157  11.868  21.421  0.00  0.00    +0.000 C 
ATOM     21  C   UNL     1      -1.332  11.643  20.464  0.00  0.00    +0.000 C 
ATOM     22  C   UNL     1      -0.876  10.412  19.633  0.00  0.00    +0.000 C 
BRANCH  21  23
ATOM     23  C   UNL     1      -1.787  12.893  19.619  0.00  0.00    +0.000 C 
ATOM     24  C   UNL     1      -1.548  14.185  20.437  0.00  0.00    +0.000 C 
ATOM     25  C   UNL     1      -1.007  12.996  18.294  0.00  0.00    +0.000 C 
BRANCH  23  26
ATOM     26  N   UNL     1      -3.242  12.730  19.360  0.00  0.00    +0.000 NA
ATOM     27  H   UNL     1      -3.443  11.754  19.119  0.00  0.00    +0.000 HD
BRANCH  26  28
ATOM     28  C   UNL     1      -4.148  13.108  20.457  0.00  0.00    +0.000 C 
BRANCH  28  29
ATOM     29  C   UNL     1      -5.467  12.340  20.390  0.00  0.00    +0.000 C 
ATOM     30  F   UNL     1      -6.015  12.276  21.636  0.00  0.00    +0.000 F 
ENDBRANCH  28  29
ENDBRANCH  26  28
ENDBRANCH  23  26
ENDBRANCH  21  23
ENDBRANCH   2  18
BRANCH  15  31
ATOM     31  C   UNL     1       1.614   4.958  20.536  0.00  0.00    +0.000 C 
ATOM     32  C   UNL     1       1.021   3.571  20.627  0.00  0.00    +0.000 C 
ATOM     33  C   UNL     1       2.106   3.957  21.572  0.00  0.00    +0.000 C 
ENDBRANCH  15  31
BRANCH   1  35
ATOM     34  C   UNL     1       1.589   8.416  22.113  0.00  0.00    +0.000 C 
ATOM     35  O   UNL     1       1.036   7.663  21.033  0.00  0.00    +0.000 OA
ENDBRANCH   1  35
TORSDOF 7
ENDMDL
MODEL 5
REMARK VINA RESULT:      -7.5      1.828      2.313
REMARK  Name = 
REMARK  10 active torsions:
REMARK  status: ('A' for Active; 'I' for Inactive)
REMARK    1  A    between atoms: C_1  and  O_2
REMARK    2  A    between atoms: O_2  and  C_3
REMARK    3  A    between atoms: C_4  and  N_5
REMARK    4  A    between atoms: C_8  and  C_9
REMARK    5  A    between atoms: C_9  and  C_10
REMARK    6  A    between atoms: C_9  and  C_11
REMARK    7  A    between atoms: C_9  and  N_12
REMARK    8  A    between atoms: N_12  and  C_13
REMARK    9  A    between atoms: C_13  and  C_14
REMARK   10  A    between atoms: N_29  and  C_30
REMARK                            x       y       z     vdW  Elec       q    Type
REMARK                         _______ _______ _______ _____ _____    ______ ____
ROOT
ATOM      1  C   UNL     1       1.697   7.921  19.894  0.00  0.00    +0.000 A 
ATOM      2  C   UNL     1       1.437   9.231  19.341  0.00  0.00    +0.000 A 
ATOM      3  C   UNL     1       2.132   9.519  18.145  0.00  0.00    +0.000 A 
ATOM      4  F   UNL     1       2.075  10.728  17.568  0.00  0.00    +0.000 F 
ATOM      5  C   UNL     1       2.982   8.615  17.533  0.00  0.00    +0.000 A 
ATOM      6  C   UNL     1       3.157   7.339  18.063  0.00  0.00    +0.000 A 
ATOM      7  C   UNL     1       4.098   6.457  17.352  0.00  0.00    +0.000 A 
ATOM      8  O   UNL     1       4.659   6.844  16.336  0.00  0.00    +0.000 OA
ATOM      9  C   UNL     1       4.343   5.147  17.936  0.00  0.00    +0.000 A 
ATOM     10  C   UNL     1       5.338   4.174  17.424  0.00  0.00    +0.000 A 
ATOM     11  O   UNL     1       6.062   4.301  16.460  0.00  0.00    +0.000 OA
ATOM     12  N   UNL     1       5.331   3.064  18.222  0.00  0.00    +0.000 N 
ATOM     13  S   UNL     1       4.256   3.126  19.503  0.00  0.00    +0.000 S 
ATOM     14  C   UNL     1       3.654   4.730  19.023  0.00  0.00    +0.000 A 
ATOM     15  N   UNL     1       2.666   5.523  19.658  0.00  0.00    +0.000 N 
ATOM     16  C   UNL     1       2.493   6.916  19.230  0.00  0.00    +0.000 A 
ATOM     17  H   UNL     1       5.945   2.285  18.021  0.00  0.00    +0.000 HD
ENDROOT
BRANCH   2  18
ATOM     18  N   UNL     1       0.606  10.198  19.906  0.00  0.00    +0.000 N 
ATOM     19  C   UNL     1       1.118  11.398  20.569  0.00  0.00    +0.000 C 
ATOM     20  C   UNL     1      -0.063  11.897  21.387  0.00  0.00    +0.000 C 
ATOM     21  C   UNL     1      -1.306  11.529  20.571  0.00  0.00    +0.000 C 
ATOM     22  C   UNL     1      -0.857  10.254  19.804  0.00  0.00    +0.000 C 
BRANCH  21  23
ATOM     23  C   UNL     1      -1.911  12.674  19.673  0.00  0.00    +0.000 C 
ATOM     24  C   UNL     1      -1.730  12.310  18.180  0.00  0.00    +0.000 C 
ATOM     25  C   UNL     1      -3.412  12.880  19.952  0.00  0.00    +0.000 C 
BRANCH  23  26
ATOM     26  N   UNL     1      -1.145  13.911  19.980  0.00  0.00    +0.000 NA
ATOM     27  H   UNL     1      -0.393  13.696  20.642  0.00  0.00    +0.000 HD
BRANCH  26  28
ATOM     28  C   UNL     1      -0.537  14.605  18.833  0.00  0.00    +0.000 C 
BRANCH  28  29
ATOM     29  C   UNL     1       0.984  14.686  18.963  0.00  0.00    +0.000 C 
ATOM     30  F   UNL     1       1.552  13.688  18.229  0.00  0.00    +0.000 F 
ENDBRANCH  28  29
ENDBRANCH  26  28
ENDBRANCH  23  26
ENDBRANCH  21  23
ENDBRANCH   2  18
BRANCH  15  31
ATOM     31  C   UNL     1       1.691   4.909  20.634  0.00  0.00    +0.000 C 
ATOM     32  C   UNL     1       1.056   3.540  20.712  0.00  0.00    +0.000 C 
ATOM     33  C   UNL     1       2.184   3.867  21.628  0.00  0.00    +0.000 C 
ENDBRANCH  15  31
BRANCH   1  35
ATOM     34  C   UNL     1       1.591   8.458  22.149  0.00  0.00    +0.000 C 
ATOM     35  O   UNL     1       1.103   7.618  21.103  0.00  0.00    +0.000 OA
ENDBRANCH   1  35
TORSDOF 7
ENDMDL
MODEL 6
REMARK VINA RESULT:      -7.5      1.134      1.727
REMARK  Name = 
REMARK  10 active torsions:
REMARK  status: ('A' for Active; 'I' for Inactive)
REMARK    1  A    between atoms: C_1  and  O_2
REMARK    2  A    between atoms: O_2  and  C_3
REMARK    3  A    between atoms: C_4  and  N_5
REMARK    4  A    between atoms: C_8  and  C_9
REMARK    5  A    between atoms: C_9  and  C_10
REMARK    6  A    between atoms: C_9  and  C_11
REMARK    7  A    between atoms: C_9  and  N_12
REMARK    8  A    between atoms: N_12  and  C_13
REMARK    9  A    between atoms: C_13  and  C_14
REMARK   10  A    between atoms: N_29  and  C_30
REMARK                            x       y       z     vdW  Elec       q    Type
REMARK                         _______ _______ _______ _____ _____    ______ ____
ROOT
ATOM      1  C   UNL     1       1.675   7.993  19.860  0.00  0.00    +0.000 A 
ATOM      2  C   UNL     1       1.401   9.290  19.284  0.00  0.00    +0.000 A 
ATOM      3  C   UNL     1       2.103   9.569  18.090  0.00  0.00    +0.000 A 
ATOM      4  F   UNL     1       2.033  10.769  17.494  0.00  0.00    +0.000 F 
ATOM      5  C   UNL     1       2.972   8.669  17.500  0.00  0.00    +0.000 A 
ATOM      6  C   UNL     1       3.161   7.405  18.052  0.00  0.00    +0.000 A 
ATOM      7  C   UNL     1       4.121   6.526  17.364  0.00  0.00    +0.000 A 
ATOM      8  O   UNL     1       4.687   6.906  16.347  0.00  0.00    +0.000 OA
ATOM      9  C   UNL     1       4.380   5.229  17.971  0.00  0.00    +0.000 A 
ATOM     10  C   UNL     1       5.395   4.263  17.483  0.00  0.00    +0.000 A 
ATOM     11  O   UNL     1       6.126   4.386  16.525  0.00  0.00    +0.000 OA
ATOM     12  N   UNL     1       5.396   3.165  18.299  0.00  0.00    +0.000 N 
ATOM     13  S   UNL     1       4.309   3.231  19.568  0.00  0.00    +0.000 S 
ATOM     14  C   UNL     1       3.687   4.818  19.057  0.00  0.00    +0.000 A 
ATOM     15  N   UNL     1       2.682   5.606  19.671  0.00  0.00    +0.000 N 
ATOM     16  C   UNL     1       2.493   6.989  19.219  0.00  0.00    +0.000 A 
ATOM     17  H   UNL     1       6.024   2.392  18.116  0.00  0.00    +0.000 HD
ENDROOT
BRANCH   2  18
ATOM     18  N   UNL     1       0.551  10.253  19.825  0.00  0.00    +0.000 N 
ATOM     19  C   UNL     1       1.027  11.538  20.338  0.00  0.00    +0.000 C 
ATOM     20  C   UNL     1      -0.122  12.039  21.200  0.00  0.00    +0.000 C 
ATOM     21  C   UNL     1      -1.393  11.522  20.520  0.00  0.00    +0.000 C 
ATOM     22  C   UNL     1      -0.917  10.212  19.835  0.00  0.00    +0.000 C 
BRANCH  21  23
ATOM     23  C   UNL     1      -2.138  12.541  19.576  0.00  0.00    +0.000 C 
ATOM     24  C   UNL     1      -1.672  12.327  18.116  0.00  0.00    +0.000 C 
ATOM     25  C   UNL     1      -3.666  12.358  19.638  0.00  0.00    +0.000 C 
BRANCH  23  26
ATOM     26  N   UNL     1      -1.753  13.904  20.027  0.00  0.00    +0.000 NA
ATOM     27  H   UNL     1      -1.459  14.465  19.221  0.00  0.00    +0.000 HD
BRANCH  26  28
ATOM     28  C   UNL     1      -2.784  14.671  20.744  0.00  0.00    +0.000 C 
BRANCH  28  29
ATOM     29  C   UNL     1      -2.423  14.862  22.218  0.00  0.00    +0.000 C 
ATOM     30  F   UNL     1      -2.488  13.660  22.856  0.00  0.00    +0.000 F 
ENDBRANCH  28  29
ENDBRANCH  26  28
ENDBRANCH  23  26
ENDBRANCH  21  23
ENDBRANCH   2  18
BRANCH  15  31
ATOM     31  C   UNL     1       1.706   4.994  20.647  0.00  0.00    +0.000 C 
ATOM     32  C   UNL     1       1.025   3.645  20.693  0.00  0.00    +0.000 C 
ATOM     33  C   UNL     1       2.183   3.901  21.593  0.00  0.00    +0.000 C 
ENDBRANCH  15  31
BRANCH   1  35
ATOM     34  C   UNL     1       1.559   8.546  22.110  0.00  0.00    +0.000 C 
ATOM     35  O   UNL     1       1.074   7.700  21.067  0.00  0.00    +0.000 OA
ENDBRANCH   1  35
TORSDOF 7
ENDMDL
MODEL 7
REMARK VINA RESULT:      -7.3      3.487      8.760
REMARK  Name = 
REMARK  10 active torsions:
REMARK  status: ('A' for Active; 'I' for Inactive)
REMARK    1  A    between atoms: C_1  and  O_2
REMARK    2  A    between atoms: O_2  and  C_3
REMARK    3  A    between atoms: C_4  and  N_5
REMARK    4  A    between atoms: C_8  and  C_9
REMARK    5  A    between atoms: C_9  and  C_10
REMARK    6  A    between atoms: C_9  and  C_11
REMARK    7  A    between atoms: C_9  and  N_12
REMARK    8  A    between atoms: N_12  and  C_13
REMARK    9  A    between atoms: C_13  and  C_14
REMARK   10  A    between atoms: N_29  and  C_30
REMARK                            x       y       z     vdW  Elec       q    Type
REMARK                         _______ _______ _______ _____ _____    ______ ____
ROOT
ATOM      1  C   UNL     1       1.045   9.074  19.203  0.00  0.00    +0.000 A 
ATOM      2  C   UNL     1       1.669   7.863  19.685  0.00  0.00    +0.000 A 
ATOM      3  C   UNL     1       1.595   7.672  21.082  0.00  0.00    +0.000 A 
ATOM      4  F   UNL     1       2.216   6.650  21.690  0.00  0.00    +0.000 F 
ATOM      5  C   UNL     1       0.958   8.560  21.930  0.00  0.00    +0.000 A 
ATOM      6  C   UNL     1       0.313   9.685  21.419  0.00  0.00    +0.000 A 
ATOM      7  C   UNL     1      -0.319  10.581  22.403  0.00  0.00    +0.000 A 
ATOM      8  O   UNL     1      -0.285  10.311  23.595  0.00  0.00    +0.000 OA
ATOM      9  C   UNL     1      -0.934  11.795  21.888  0.00  0.00    +0.000 A 
ATOM     10  C   UNL     1      -1.516  12.864  22.735  0.00  0.00    +0.000 A 
ATOM     11  O   UNL     1      -1.588  12.885  23.945  0.00  0.00    +0.000 OA
ATOM     12  N   UNL     1      -1.979  13.869  21.933  0.00  0.00    +0.000 N 
ATOM     13  S   UNL     1      -1.754  13.621  20.294  0.00  0.00    +0.000 S 
ATOM     14  C   UNL     1      -1.010  12.026  20.557  0.00  0.00    +0.000 A 
ATOM     15  N   UNL     1      -0.504  11.123  19.589  0.00  0.00    +0.000 N 
ATOM     16  C   UNL     1       0.282   9.969  20.041  0.00  0.00    +0.000 A 
ATOM     17  H   UNL     1      -2.419  14.686  22.338  0.00  0.00    +0.000 HD
ENDROOT
BRANCH   2  18
ATOM     18  N   UNL     1       2.340   6.929  18.896  0.00  0.00    +0.000 N 
ATOM     19  C   UNL     1       3.707   7.130  18.412  0.00  0.00    +0.000 C 
ATOM     20  C   UNL     1       3.847   6.126  17.278  0.00  0.00    +0.000 C 
ATOM     21  C   UNL     1       2.983   4.929  17.688  0.00  0.00    +0.000 C 
ATOM     22  C   UNL     1       1.872   5.580  18.557  0.00  0.00    +0.000 C 
BRANCH  21  23
ATOM     23  C   UNL     1       3.743   3.724  18.362  0.00  0.00    +0.000 C 
ATOM     24  C   UNL     1       3.129   2.389  17.876  0.00  0.00    +0.000 C 
ATOM     25  C   UNL     1       5.243   3.733  18.012  0.00  0.00    +0.000 C 
BRANCH  23  26
ATOM     26  N   UNL     1       3.545   3.858  19.829  0.00  0.00    +0.000 NA
ATOM     27  H   UNL     1       2.894   4.626  20.021  0.00  0.00    +0.000 HD
BRANCH  26  28
ATOM     28  C   UNL     1       3.041   2.668  20.533  0.00  0.00    +0.000 C 
BRANCH  28  29
ATOM     29  C   UNL     1       1.993   3.034  21.584  0.00  0.00    +0.000 C 
ATOM     30  F   UNL     1       0.890   3.538  20.963  0.00  0.00    +0.000 F 
ENDBRANCH  28  29
ENDBRANCH  26  28
ENDBRANCH  23  26
ENDBRANCH  21  23
ENDBRANCH   2  18
BRANCH  15  31
ATOM     31  C   UNL     1      -0.903  11.239  18.138  0.00  0.00    +0.000 C 
ATOM     32  C   UNL     1      -1.694  10.331  17.226  0.00  0.00    +0.000 C 
ATOM     33  C   UNL     1      -2.352  11.544  17.785  0.00  0.00    +0.000 C 
ENDBRANCH  15  31
BRANCH   1  35
ATOM     34  C   UNL     1       2.267  10.202  17.585  0.00  0.00    +0.000 C 
ATOM     35  O   UNL     1       1.156   9.347  17.854  0.00  0.00    +0.000 OA
ENDBRANCH   1  35
TORSDOF 7
ENDMDL
MODEL 8
REMARK VINA RESULT:      -7.0      3.512      9.017
REMARK  Name = 
REMARK  10 active torsions:
REMARK  status: ('A' for Active; 'I' for Inactive)
REMARK    1  A    between atoms: C_1  and  O_2
REMARK    2  A    between atoms: O_2  and  C_3
REMARK    3  A    between atoms: C_4  and  N_5
REMARK    4  A    between atoms: C_8  and  C_9
REMARK    5  A    between atoms: C_9  and  C_10
REMARK    6  A    between atoms: C_9  and  C_11
REMARK    7  A    between atoms: C_9  and  N_12
REMARK    8  A    between atoms: N_12  and  C_13
REMARK    9  A    between atoms: C_13  and  C_14
REMARK   10  A    between atoms: N_29  and  C_30
REMARK                            x       y       z     vdW  Elec       q    Type
REMARK                         _______ _______ _______ _____ _____    ______ ____
ROOT
ATOM      1  C   UNL     1       1.116   8.965  19.137  0.00  0.00    +0.000 A 
ATOM      2  C   UNL     1       1.747   7.752  19.603  0.00  0.00    +0.000 A 
ATOM      3  C   UNL     1       1.673   7.543  20.999  0.00  0.00    +0.000 A 
ATOM      4  F   UNL     1       2.299   6.517  21.594  0.00  0.00    +0.000 F 
ATOM      5  C   UNL     1       1.031   8.417  21.857  0.00  0.00    +0.000 A 
ATOM      6  C   UNL     1       0.380   9.544  21.360  0.00  0.00    +0.000 A 
ATOM      7  C   UNL     1      -0.257  10.424  22.354  0.00  0.00    +0.000 A 
ATOM      8  O   UNL     1      -0.221  10.140  23.544  0.00  0.00    +0.000 OA
ATOM      9  C   UNL     1      -0.879  11.641  21.854  0.00  0.00    +0.000 A 
ATOM     10  C   UNL     1      -1.467  12.697  22.715  0.00  0.00    +0.000 A 
ATOM     11  O   UNL     1      -1.539  12.703  23.925  0.00  0.00    +0.000 OA
ATOM     12  N   UNL     1      -1.935  13.710  21.925  0.00  0.00    +0.000 N 
ATOM     13  S   UNL     1      -1.708  13.483  20.283  0.00  0.00    +0.000 S 
ATOM     14  C   UNL     1      -0.956  11.889  20.527  0.00  0.00    +0.000 A 
ATOM     15  N   UNL     1      -0.444  11.001  19.548  0.00  0.00    +0.000 N 
ATOM     16  C   UNL     1       0.348   9.846  19.986  0.00  0.00    +0.000 A 
ATOM     17  H   UNL     1      -2.379  14.519  22.340  0.00  0.00    +0.000 HD
ENDROOT
BRANCH   2  18
ATOM     18  N   UNL     1       2.423   6.831  18.803  0.00  0.00    +0.000 N 
ATOM     19  C   UNL     1       3.769   7.069  18.280  0.00  0.00    +0.000 C 
ATOM     20  C   UNL     1       3.907   6.060  17.150  0.00  0.00    +0.000 C 
ATOM     21  C   UNL     1       3.092   4.841  17.593  0.00  0.00    +0.000 C 
ATOM     22  C   UNL     1       1.985   5.466  18.487  0.00  0.00    +0.000 C 
BRANCH  21  23
ATOM     23  C   UNL     1       3.905   3.665  18.255  0.00  0.00    +0.000 C 
ATOM     24  C   UNL     1       3.808   3.773  19.796  0.00  0.00    +0.000 C 
ATOM     25  C   UNL     1       3.365   2.289  17.822  0.00  0.00    +0.000 C 
BRANCH  23  26
ATOM     26  N   UNL     1       5.321   3.831  17.832  0.00  0.00    +0.000 NA
ATOM     27  H   UNL     1       5.363   4.397  16.980  0.00  0.00    +0.000 HD
BRANCH  26  28
ATOM     28  C   UNL     1       6.229   4.445  18.814  0.00  0.00    +0.000 C 
BRANCH  28  29
ATOM     29  C   UNL     1       7.446   5.077  18.140  0.00  0.00    +0.000 C 
ATOM     30  F   UNL     1       7.853   4.283  17.109  0.00  0.00    +0.000 F 
ENDBRANCH  28  29
ENDBRANCH  26  28
ENDBRANCH  23  26
ENDBRANCH  21  23
ENDBRANCH   2  18
BRANCH  15  31
ATOM     31  C   UNL     1      -0.844  11.133  18.098  0.00  0.00    +0.000 C 
ATOM     32  C   UNL     1      -1.654  10.245  17.182  0.00  0.00    +0.000 C 
ATOM     33  C   UNL     1      -2.287  11.468  17.749  0.00  0.00    +0.000 C 
ENDBRANCH  15  31
BRANCH   1  35
ATOM     34  C   UNL     1       2.309  10.151  17.538  0.00  0.00    +0.000 C 
ATOM     35  O   UNL     1       1.226   9.256  17.791  0.00  0.00    +0.000 OA
ENDBRANCH   1  35
TORSDOF 7
ENDMDL
MODEL 9
REMARK VINA RESULT:      -7.0      3.571      9.011
REMARK  Name = 
REMARK  10 active torsions:
REMARK  status: ('A' for Active; 'I' for Inactive)
REMARK    1  A    between atoms: C_1  and  O_2
REMARK    2  A    between atoms: O_2  and  C_3
REMARK    3  A    between atoms: C_4  and  N_5
REMARK    4  A    between atoms: C_8  and  C_9
REMARK    5  A    between atoms: C_9  and  C_10
REMARK    6  A    between atoms: C_9  and  C_11
REMARK    7  A    between atoms: C_9  and  N_12
REMARK    8  A    between atoms: N_12  and  C_13
REMARK    9  A    between atoms: C_13  and  C_14
REMARK   10  A    between atoms: N_29  and  C_30
REMARK                            x       y       z     vdW  Elec       q    Type
REMARK                         _______ _______ _______ _____ _____    ______ ____
ROOT
ATOM      1  C   UNL     1       1.078   9.125  19.097  0.00  0.00    +0.000 A 
ATOM      2  C   UNL     1       1.783   7.938  19.525  0.00  0.00    +0.000 A 
ATOM      3  C   UNL     1       1.665   7.643  20.902  0.00  0.00    +0.000 A 
ATOM      4  F   UNL     1       2.344   6.634  21.468  0.00  0.00    +0.000 F 
ATOM      5  C   UNL     1       0.919   8.412  21.775  0.00  0.00    +0.000 A 
ATOM      6  C   UNL     1       0.203   9.513  21.311  0.00  0.00    +0.000 A 
ATOM      7  C   UNL     1      -0.544  10.282  22.321  0.00  0.00    +0.000 A 
ATOM      8  O   UNL     1      -0.538   9.931  23.493  0.00  0.00    +0.000 OA
ATOM      9  C   UNL     1      -1.239  11.475  21.860  0.00  0.00    +0.000 A 
ATOM     10  C   UNL     1      -1.945  12.429  22.749  0.00  0.00    +0.000 A 
ATOM     11  O   UNL     1      -2.070  12.358  23.952  0.00  0.00    +0.000 OA
ATOM     12  N   UNL     1      -2.458  13.448  21.995  0.00  0.00    +0.000 N 
ATOM     13  S   UNL     1      -2.142  13.337  20.356  0.00  0.00    +0.000 S 
ATOM     14  C   UNL     1      -1.277  11.794  20.546  0.00  0.00    +0.000 A 
ATOM     15  N   UNL     1      -0.655  11.007  19.545  0.00  0.00    +0.000 N 
ATOM     16  C   UNL     1       0.206   9.892  19.956  0.00  0.00    +0.000 A 
ATOM     17  H   UNL     1      -2.982  14.195  22.433  0.00  0.00    +0.000 HD
ENDROOT
BRANCH   2  18
ATOM     18  N   UNL     1       2.564   7.121  18.708  0.00  0.00    +0.000 N 
ATOM     19  C   UNL     1       3.841   7.553  18.139  0.00  0.00    +0.000 C 
ATOM     20  C   UNL     1       4.094   6.563  17.011  0.00  0.00    +0.000 C 
ATOM     21  C   UNL     1       3.486   5.241  17.489  0.00  0.00    +0.000 C 
ATOM     22  C   UNL     1       2.328   5.702  18.416  0.00  0.00    +0.000 C 
BRANCH  21  23
ATOM     23  C   UNL     1       4.489   4.209  18.130  0.00  0.00    +0.000 C 
ATOM     24  C   UNL     1       5.935   4.560  17.703  0.00  0.00    +0.000 C 
ATOM     25  C   UNL     1       4.411   4.224  19.668  0.00  0.00    +0.000 C 
BRANCH  23  26
ATOM     26  N   UNL     1       4.124   2.869  17.599  0.00  0.00    +0.000 NA
ATOM     27  H   UNL     1       4.964   2.392  17.257  0.00  0.00    +0.000 HD
BRANCH  26  28
ATOM     28  C   UNL     1       3.449   1.955  18.535  0.00  0.00    +0.000 C 
BRANCH  28  29
ATOM     29  C   UNL     1       1.928   2.027  18.396  0.00  0.00    +0.000 C 
ATOM     30  F   UNL     1       1.361   1.976  19.634  0.00  0.00    +0.000 F 
ENDBRANCH  28  29
ENDBRANCH  26  28
ENDBRANCH  23  26
ENDBRANCH  21  23
ENDBRANCH   2  18
BRANCH  15  31
ATOM     31  C   UNL     1      -1.001  11.193  18.088  0.00  0.00    +0.000 C 
ATOM     32  C   UNL     1      -1.735  10.319  17.097  0.00  0.00    +0.000 C 
ATOM     33  C   UNL     1      -2.441  11.486  17.694  0.00  0.00    +0.000 C 
ENDBRANCH  15  31
BRANCH   1  35
ATOM     34  C   UNL     1       2.208  10.526  17.631  0.00  0.00    +0.000 C 
ATOM     35  O   UNL     1       1.223   9.502  17.776  0.00  0.00    +0.000 OA
ENDBRANCH   1  35
TORSDOF 7
ENDMDL
