MODEL 1
REMARK VINA RESULT:      -8.0      0.000      0.000
REMARK  Name = 
REMARK  9 active torsions:
REMARK  status: ('A' for Active; 'I' for Inactive)
REMARK    1  A    between atoms: C_1  and  N_2
REMARK    2  A    between atoms: N_2  and  C_3
REMARK    3  A    between atoms: C_3  and  C_4
REMARK    4  A    between atoms: C_4  and  C_5
REMARK    5  A    between atoms: C_5  and  C_6
REMARK    6  A    between atoms: C_5  and  N_12
REMARK    7  A    between atoms: N_15  and  C_16
REMARK    8  A    between atoms: C_16  and  C_17
REMARK    9  A    between atoms: C_16  and  C_18
REMARK                            x       y       z     vdW  Elec       q    Type
REMARK                         _______ _______ _______ _____ _____    ______ ____
ROOT
ATOM      1  N   UNL     1       5.098   5.001  18.071  0.00  0.00    +0.000 N 
ATOM      2  C   UNL     1       4.729   4.190  19.170  0.00  0.00    +0.000 A 
ATOM      3  O   UNL     1       5.398   3.299  19.688  0.00  0.00    +0.000 OA
ATOM      4  N   UNL     1       3.405   4.546  19.550  0.00  0.00    +0.000 N 
ATOM      5  C   UNL     1       3.210   5.832  19.010  0.00  0.00    +0.000 A 
ATOM      6  C   UNL     1       2.188   6.697  19.380  0.00  0.00    +0.000 A 
ATOM      7  C   UNL     1       2.141   7.917  18.712  0.00  0.00    +0.000 A 
ATOM      8  C   UNL     1       3.066   8.188  17.685  0.00  0.00    +0.000 A 
ATOM      9  C   UNL     1       4.096   7.271  17.339  0.00  0.00    +0.000 A 
ATOM     10  C   UNL     1       4.199   6.097  18.040  0.00  0.00    +0.000 A 
ENDROOT
BRANCH   4  11
ATOM     11  C   UNL     1       2.405   3.540  19.183  0.00  0.00    +0.000 C 
ATOM     12  C   UNL     1       1.281   3.421  20.242  0.00  0.00    +0.000 C 
ATOM     13  C   UNL     1       1.764   3.847  17.830  0.00  0.00    +0.000 C 
ENDBRANCH   4  11
BRANCH   1  14
ATOM     14  C   UNL     1       6.277   4.597  17.329  0.00  0.00    +0.000 C 
BRANCH  14  15
ATOM     15  C   UNL     1       6.233   4.600  15.796  0.00  0.00    +0.000 A 
ATOM     16  C   UNL     1       7.315   4.972  14.991  0.00  0.00    +0.000 A 
ATOM     17  C   UNL     1       7.299   4.705  13.612  0.00  0.00    +0.000 A 
ATOM     18  C   UNL     1       6.208   4.068  13.015  0.00  0.00    +0.000 A 
ATOM     19  C   UNL     1       5.105   3.731  13.789  0.00  0.00    +0.000 A 
ATOM     20  C   UNL     1       5.116   4.002  15.160  0.00  0.00    +0.000 A 
ENDBRANCH  14  15
BRANCH  14  21
ATOM     21  C   UNL     1       7.648   5.003  17.856  0.00  0.00    +0.000 C 
BRANCH  21  22
ATOM     22  C   UNL     1       7.585   6.428  18.387  0.00  0.00    +0.000 C 
BRANCH  22  24
ATOM     23  C   UNL     1       7.952   8.715  17.838  0.00  0.00    +0.000 C 
ATOM     24  N   UNL     1       7.708   7.386  17.292  0.00  0.00    +0.000 NA
ATOM     25  H   UNL     1       8.499   7.119  16.703  0.00  0.00    +0.000 HD
ENDBRANCH  22  24
ENDBRANCH  21  22
ENDBRANCH  14  21
ENDBRANCH   1  14
TORSDOF 6
ENDMDL
MODEL 2
REMARK VINA RESULT:      -7.8      0.502      1.099
REMARK  Name = 
REMARK  9 active torsions:
REMARK  status: ('A' for Active; 'I' for Inactive)
REMARK    1  A    between atoms: C_1  and  N_2
REMARK    2  A    between atoms: N_2  and  C_3
REMARK    3  A    between atoms: C_3  and  C_4
REMARK    4  A    between atoms: C_4  and  C_5
REMARK    5  A    between atoms: C_5  and  C_6
REMARK    6  A    between atoms: C_5  and  N_12
REMARK    7  A    between atoms: N_15  and  C_16
REMARK    8  A    between atoms: C_16  and  C_17
REMARK    9  A    between atoms: C_16  and  C_18
REMARK                            x       y       z     vdW  Elec       q    Type
REMARK                         _______ _______ _______ _____ _____    ______ ____
ROOT
ATOM      1  N   UNL     1       5.142   4.804  18.198  0.00  0.00    +0.000 N 
ATOM      2  C   UNL     1       4.674   4.016  19.276  0.00  0.00    +0.000 A 
ATOM      3  O   UNL     1       5.279   3.114  19.849  0.00  0.00    +0.000 OA
ATOM      4  N   UNL     1       3.336   4.412  19.556  0.00  0.00    +0.000 N 
ATOM      5  C   UNL     1       3.215   5.696  18.991  0.00  0.00    +0.000 A 
ATOM      6  C   UNL     1       2.194   6.593  19.277  0.00  0.00    +0.000 A 
ATOM      7  C   UNL     1       2.229   7.805  18.595  0.00  0.00    +0.000 A 
ATOM      8  C   UNL     1       3.231   8.038  17.634  0.00  0.00    +0.000 A 
ATOM      9  C   UNL     1       4.257   7.090  17.372  0.00  0.00    +0.000 A 
ATOM     10  C   UNL     1       4.278   5.922  18.091  0.00  0.00    +0.000 A 
ENDROOT
BRANCH   4  11
ATOM     11  C   UNL     1       2.338   3.429  19.129  0.00  0.00    +0.000 C 
ATOM     12  C   UNL     1       1.122   3.378  20.087  0.00  0.00    +0.000 C 
ATOM     13  C   UNL     1       1.828   3.716  17.717  0.00  0.00    +0.000 C 
ENDBRANCH   4  11
BRANCH   1  14
ATOM     14  C   UNL     1       6.359   4.359  17.546  0.00  0.00    +0.000 C 
BRANCH  14  15
ATOM     15  C   UNL     1       6.383   4.225  16.018  0.00  0.00    +0.000 A 
ATOM     16  C   UNL     1       5.340   3.662  15.274  0.00  0.00    +0.000 A 
ATOM     17  C   UNL     1       5.308   3.805  13.877  0.00  0.00    +0.000 A 
ATOM     18  C   UNL     1       6.309   4.507  13.201  0.00  0.00    +0.000 A 
ATOM     19  C   UNL     1       7.376   5.035  13.917  0.00  0.00    +0.000 A 
ATOM     20  C   UNL     1       7.414   4.887  15.306  0.00  0.00    +0.000 A 
ENDBRANCH  14  15
BRANCH  14  21
ATOM     21  C   UNL     1       7.699   4.838  18.092  0.00  0.00    +0.000 C 
BRANCH  21  22
ATOM     22  C   UNL     1       7.465   5.957  19.097  0.00  0.00    +0.000 C 
BRANCH  22  24
ATOM     23  C   UNL     1       7.783   7.832  17.667  0.00  0.00    +0.000 C 
ATOM     24  N   UNL     1       8.328   7.096  18.801  0.00  0.00    +0.000 NA
ATOM     25  H   UNL     1       8.356   7.713  19.614  0.00  0.00    +0.000 HD
ENDBRANCH  22  24
ENDBRANCH  21  22
ENDBRANCH  14  21
ENDBRANCH   1  14
TORSDOF 6
ENDMDL
MODEL 3
REMARK VINA RESULT:      -7.5      1.995      4.466
REMARK  Name = 
REMARK  9 active torsions:
REMARK  status: ('A' for Active; 'I' for Inactive)
REMARK    1  A    between atoms: C_1  and  N_2
REMARK    2  A    between atoms: N_2  and  C_3
REMARK    3  A    between atoms: C_3  and  C_4
REMARK    4  A    between atoms: C_4  and  C_5
REMARK    5  A    between atoms: C_5  and  C_6
REMARK    6  A    between atoms: C_5  and  N_12
REMARK    7  A    between atoms: N_15  and  C_16
REMARK    8  A    between atoms: C_16  and  C_17
REMARK    9  A    between atoms: C_16  and  C_18
REMARK                            x       y       z     vdW  Elec       q    Type
REMARK                         _______ _______ _______ _____ _____    ______ ____
ROOT
ATOM      1  N   UNL     1       4.034   4.877  17.287  0.00  0.00    +0.000 N 
ATOM      2  C   UNL     1       3.330   6.069  17.582  0.00  0.00    +0.000 A 
ATOM      3  O   UNL     1       3.550   7.189  17.128  0.00  0.00    +0.000 OA
ATOM      4  N   UNL     1       2.341   5.761  18.557  0.00  0.00    +0.000 N 
ATOM      5  C   UNL     1       2.163   4.366  18.461  0.00  0.00    +0.000 A 
ATOM      6  C   UNL     1       1.090   3.667  18.998  0.00  0.00    +0.000 A 
ATOM      7  C   UNL     1       1.105   2.287  18.824  0.00  0.00    +0.000 A 
ATOM      8  C   UNL     1       2.199   1.674  18.185  0.00  0.00    +0.000 A 
ATOM      9  C   UNL     1       3.278   2.431  17.650  0.00  0.00    +0.000 A 
ATOM     10  C   UNL     1       3.240   3.798  17.748  0.00  0.00    +0.000 A 
ENDROOT
BRANCH   4  11
ATOM     11  C   UNL     1       2.659   6.273  19.891  0.00  0.00    +0.000 C 
ATOM     12  C   UNL     1       1.899   7.585  20.210  0.00  0.00    +0.000 C 
ATOM     13  C   UNL     1       2.338   5.252  20.982  0.00  0.00    +0.000 C 
ENDBRANCH   4  11
BRANCH   1  14
ATOM     14  C   UNL     1       5.281   5.020  16.560  0.00  0.00    +0.000 C 
BRANCH  14  15
ATOM     15  C   UNL     1       6.460   5.735  17.230  0.00  0.00    +0.000 A 
ATOM     16  C   UNL     1       6.894   7.016  16.870  0.00  0.00    +0.000 A 
ATOM     17  C   UNL     1       7.799   7.713  17.687  0.00  0.00    +0.000 A 
ATOM     18  C   UNL     1       8.285   7.150  18.870  0.00  0.00    +0.000 A 
ATOM     19  C   UNL     1       7.901   5.862  19.221  0.00  0.00    +0.000 A 
ATOM     20  C   UNL     1       7.006   5.163  18.406  0.00  0.00    +0.000 A 
ENDBRANCH  14  15
BRANCH  14  21
ATOM     21  C   UNL     1       5.747   3.870  15.674  0.00  0.00    +0.000 C 
BRANCH  21  22
ATOM     22  C   UNL     1       5.753   4.323  14.220  0.00  0.00    +0.000 C 
BRANCH  22  24
ATOM     23  C   UNL     1       5.629   3.220  12.115  0.00  0.00    +0.000 C 
ATOM     24  N   UNL     1       6.362   3.302  13.373  0.00  0.00    +0.000 NA
ATOM     25  H   UNL     1       7.329   3.565  13.176  0.00  0.00    +0.000 HD
ENDBRANCH  22  24
ENDBRANCH  21  22
ENDBRANCH  14  21
ENDBRANCH   1  14
TORSDOF 6
ENDMDL
MODEL 4
REMARK VINA RESULT:      -7.4      1.410      5.996
REMARK  Name = 
REMARK  9 active torsions:
REMARK  status: ('A' for Active; 'I' for Inactive)
REMARK    1  A    between atoms: C_1  and  N_2
REMARK    2  A    between atoms: N_2  and  C_3
REMARK    3  A    between atoms: C_3  and  C_4
REMARK    4  A    between atoms: C_4  and  C_5
REMARK    5  A    between atoms: C_5  and  C_6
REMARK    6  A    between atoms: C_5  and  N_12
REMARK    7  A    between atoms: N_15  and  C_16
REMARK    8  A    between atoms: C_16  and  C_17
REMARK    9  A    between atoms: C_16  and  C_18
REMARK                            x       y       z     vdW  Elec       q    Type
REMARK                         _______ _______ _______ _____ _____    ______ ____
ROOT
ATOM      1  N   UNL     1       4.228   5.060  18.062  0.00  0.00    +0.000 N 
ATOM      2  C   UNL     1       5.100   4.681  19.109  0.00  0.00    +0.000 A 
ATOM      3  O   UNL     1       4.788   4.385  20.259  0.00  0.00    +0.000 OA
ATOM      4  N   UNL     1       6.433   4.757  18.615  0.00  0.00    +0.000 N 
ATOM      5  C   UNL     1       6.300   4.707  17.214  0.00  0.00    +0.000 A 
ATOM      6  C   UNL     1       7.339   4.445  16.330  0.00  0.00    +0.000 A 
ATOM      7  C   UNL     1       7.018   4.467  14.977  0.00  0.00    +0.000 A 
ATOM      8  C   UNL     1       5.711   4.800  14.573  0.00  0.00    +0.000 A 
ATOM      9  C   UNL     1       4.677   5.061  15.514  0.00  0.00    +0.000 A 
ATOM     10  C   UNL     1       4.962   4.970  16.853  0.00  0.00    +0.000 A 
ENDROOT
BRANCH   4  11
ATOM     11  C   UNL     1       7.185   5.895  19.146  0.00  0.00    +0.000 C 
ATOM     12  C   UNL     1       8.446   5.449  19.927  0.00  0.00    +0.000 C 
ATOM     13  C   UNL     1       7.619   6.854  18.037  0.00  0.00    +0.000 C 
ENDBRANCH   4  11
BRANCH   1  14
ATOM     14  C   UNL     1       2.856   5.356  18.430  0.00  0.00    +0.000 C 
BRANCH  14  15
ATOM     15  C   UNL     1       2.462   6.805  18.743  0.00  0.00    +0.000 A 
ATOM     16  C   UNL     1       2.294   7.790  17.763  0.00  0.00    +0.000 A 
ATOM     17  C   UNL     1       1.685   9.013  18.085  0.00  0.00    +0.000 A 
ATOM     18  C   UNL     1       1.235   9.276  19.382  0.00  0.00    +0.000 A 
ATOM     19  C   UNL     1       1.433   8.328  20.378  0.00  0.00    +0.000 A 
ATOM     20  C   UNL     1       2.046   7.113  20.062  0.00  0.00    +0.000 A 
ENDBRANCH  14  15
BRANCH  14  21
ATOM     21  C   UNL     1       1.731   4.602  17.730  0.00  0.00    +0.000 C 
BRANCH  21  22
ATOM     22  C   UNL     1       1.550   3.241  18.386  0.00  0.00    +0.000 C 
BRANCH  22  24
ATOM     23  C   UNL     1       3.260   1.586  18.370  0.00  0.00    +0.000 C 
ATOM     24  N   UNL     1       2.195   2.202  17.589  0.00  0.00    +0.000 NA
ATOM     25  H   UNL     1       1.504   1.489  17.349  0.00  0.00    +0.000 HD
ENDBRANCH  22  24
ENDBRANCH  21  22
ENDBRANCH  14  21
ENDBRANCH   1  14
TORSDOF 6
ENDMDL
MODEL 5
REMARK VINA RESULT:      -7.4      1.374      6.138
REMARK  Name = 
REMARK  9 active torsions:
REMARK  status: ('A' for Active; 'I' for Inactive)
REMARK    1  A    between atoms: C_1  and  N_2
REMARK    2  A    between atoms: N_2  and  C_3
REMARK    3  A    between atoms: C_3  and  C_4
REMARK    4  A    between atoms: C_4  and  C_5
REMARK    5  A    between atoms: C_5  and  C_6
REMARK    6  A    between atoms: C_5  and  N_12
REMARK    7  A    between atoms: N_15  and  C_16
REMARK    8  A    between atoms: C_16  and  C_17
REMARK    9  A    between atoms: C_16  and  C_18
REMARK                            x       y       z     vdW  Elec       q    Type
REMARK                         _______ _______ _______ _____ _____    ______ ____
ROOT
ATOM      1  N   UNL     1       4.890   4.499  17.318  0.00  0.00    +0.000 N 
ATOM      2  C   UNL     1       6.071   4.618  18.089  0.00  0.00    +0.000 A 
ATOM      3  O   UNL     1       6.185   4.437  19.298  0.00  0.00    +0.000 OA
ATOM      4  N   UNL     1       7.115   5.045  17.222  0.00  0.00    +0.000 N 
ATOM      5  C   UNL     1       6.667   4.714  15.928  0.00  0.00    +0.000 A 
ATOM      6  C   UNL     1       7.476   4.665  14.800  0.00  0.00    +0.000 A 
ATOM      7  C   UNL     1       6.844   4.346  13.602  0.00  0.00    +0.000 A 
ATOM      8  C   UNL     1       5.450   4.151  13.577  0.00  0.00    +0.000 A 
ATOM      9  C   UNL     1       4.660   4.212  14.758  0.00  0.00    +0.000 A 
ATOM     10  C   UNL     1       5.281   4.452  15.957  0.00  0.00    +0.000 A 
ENDROOT
BRANCH   4  11
ATOM     11  C   UNL     1       7.504   6.442  17.425  0.00  0.00    +0.000 C 
ATOM     12  C   UNL     1       6.307   7.412  17.258  0.00  0.00    +0.000 C 
ATOM     13  C   UNL     1       8.115   6.665  18.808  0.00  0.00    +0.000 C 
ENDBRANCH   4  11
BRANCH   1  14
ATOM     14  C   UNL     1       3.643   4.382  18.050  0.00  0.00    +0.000 C 
BRANCH  14  15
ATOM     15  C   UNL     1       3.104   5.600  18.810  0.00  0.00    +0.000 A 
ATOM     16  C   UNL     1       3.013   6.881  18.254  0.00  0.00    +0.000 A 
ATOM     17  C   UNL     1       2.277   7.885  18.903  0.00  0.00    +0.000 A 
ATOM     18  C   UNL     1       1.623   7.632  20.112  0.00  0.00    +0.000 A 
ATOM     19  C   UNL     1       1.739   6.380  20.702  0.00  0.00    +0.000 A 
ATOM     20  C   UNL     1       2.477   5.382  20.062  0.00  0.00    +0.000 A 
ENDBRANCH  14  15
BRANCH  14  21
ATOM     21  C   UNL     1       2.518   3.547  17.451  0.00  0.00    +0.000 C 
BRANCH  21  22
ATOM     22  C   UNL     1       2.757   2.077  17.764  0.00  0.00    +0.000 C 
BRANCH  22  24
ATOM     23  C   UNL     1       0.650   2.330  18.841  0.00  0.00    +0.000 C 
ATOM     24  N   UNL     1       1.943   1.660  18.902  0.00  0.00    +0.000 NA
ATOM     25  H   UNL     1       1.796   0.650  18.854  0.00  0.00    +0.000 HD
ENDBRANCH  22  24
ENDBRANCH  21  22
ENDBRANCH  14  21
ENDBRANCH   1  14
TORSDOF 6
ENDMDL
MODEL 6
REMARK VINA RESULT:      -7.4      1.321      5.950
REMARK  Name = 
REMARK  9 active torsions:
REMARK  status: ('A' for Active; 'I' for Inactive)
REMARK    1  A    between atoms: C_1  and  N_2
REMARK    2  A    between atoms: N_2  and  C_3
REMARK    3  A    between atoms: C_3  and  C_4
REMARK    4  A    between atoms: C_4  and  C_5
REMARK    5  A    between atoms: C_5  and  C_6
REMARK    6  A    between atoms: C_5  and  N_12
REMARK    7  A    between atoms: N_15  and  C_16
REMARK    8  A    between atoms: C_16  and  C_17
REMARK    9  A    between atoms: C_16  and  C_18
REMARK                            x       y       z     vdW  Elec       q    Type
REMARK                         _______ _______ _______ _____ _____    ______ ____
ROOT
ATOM      1  N   UNL     1       4.551   4.781  17.585  0.00  0.00    +0.000 N 
ATOM      2  C   UNL     1       5.619   4.495  18.468  0.00  0.00    +0.000 A 
ATOM      3  O   UNL     1       5.539   4.245  19.667  0.00  0.00    +0.000 OA
ATOM      4  N   UNL     1       6.833   4.602  17.732  0.00  0.00    +0.000 N 
ATOM      5  C   UNL     1       6.448   4.475  16.383  0.00  0.00    +0.000 A 
ATOM      6  C   UNL     1       7.320   4.213  15.334  0.00  0.00    +0.000 A 
ATOM      7  C   UNL     1       6.755   4.152  14.064  0.00  0.00    +0.000 A 
ATOM      8  C   UNL     1       5.381   4.406  13.897  0.00  0.00    +0.000 A 
ATOM      9  C   UNL     1       4.525   4.671  15.001  0.00  0.00    +0.000 A 
ATOM     10  C   UNL     1       5.055   4.661  16.266  0.00  0.00    +0.000 A 
ENDROOT
BRANCH   4  11
ATOM     11  C   UNL     1       7.610   5.798  18.065  0.00  0.00    +0.000 C 
ATOM     12  C   UNL     1       6.880   7.101  17.656  0.00  0.00    +0.000 C 
ATOM     13  C   UNL     1       7.927   5.870  19.558  0.00  0.00    +0.000 C 
ENDBRANCH   4  11
BRANCH   1  14
ATOM     14  C   UNL     1       3.257   5.036  18.189  0.00  0.00    +0.000 C 
BRANCH  14  15
ATOM     15  C   UNL     1       2.869   6.477  18.546  0.00  0.00    +0.000 A 
ATOM     16  C   UNL     1       2.835   7.522  17.617  0.00  0.00    +0.000 A 
ATOM     17  C   UNL     1       2.227   8.744  17.946  0.00  0.00    +0.000 A 
ATOM     18  C   UNL     1       1.645   8.945  19.201  0.00  0.00    +0.000 A 
ATOM     19  C   UNL     1       1.709   7.935  20.153  0.00  0.00    +0.000 A 
ATOM     20  C   UNL     1       2.321   6.720  19.830  0.00  0.00    +0.000 A 
ENDBRANCH  14  15
BRANCH  14  21
ATOM     21  C   UNL     1       2.055   4.229  17.712  0.00  0.00    +0.000 C 
BRANCH  21  22
ATOM     22  C   UNL     1       1.939   2.958  18.542  0.00  0.00    +0.000 C 
BRANCH  22  24
ATOM     23  C   UNL     1       3.669   1.324  18.524  0.00  0.00    +0.000 C 
ATOM     24  N   UNL     1       2.497   1.823  17.815  0.00  0.00    +0.000 NA
ATOM     25  H   UNL     1       1.798   1.080  17.767  0.00  0.00    +0.000 HD
ENDBRANCH  22  24
ENDBRANCH  21  22
ENDBRANCH  14  21
ENDBRANCH   1  14
TORSDOF 6
ENDMDL
MODEL 7
REMARK VINA RESULT:      -7.4      1.352      6.071
REMARK  Name = 
REMARK  9 active torsions:
REMARK  status: ('A' for Active; 'I' for Inactive)
REMARK    1  A    between atoms: C_1  and  N_2
REMARK    2  A    between atoms: N_2  and  C_3
REMARK    3  A    between atoms: C_3  and  C_4
REMARK    4  A    between atoms: C_4  and  C_5
REMARK    5  A    between atoms: C_5  and  C_6
REMARK    6  A    between atoms: C_5  and  N_12
REMARK    7  A    between atoms: N_15  and  C_16
REMARK    8  A    between atoms: C_16  and  C_17
REMARK    9  A    between atoms: C_16  and  C_18
REMARK                            x       y       z     vdW  Elec       q    Type
REMARK                         _______ _______ _______ _____ _____    ______ ____
ROOT
ATOM      1  N   UNL     1       5.035   4.392  17.280  0.00  0.00    +0.000 N 
ATOM      2  C   UNL     1       6.208   4.636  18.034  0.00  0.00    +0.000 A 
ATOM      3  O   UNL     1       6.356   4.474  19.242  0.00  0.00    +0.000 OA
ATOM      4  N   UNL     1       7.192   5.164  17.152  0.00  0.00    +0.000 N 
ATOM      5  C   UNL     1       6.763   4.782  15.865  0.00  0.00    +0.000 A 
ATOM      6  C   UNL     1       7.558   4.810  14.727  0.00  0.00    +0.000 A 
ATOM      7  C   UNL     1       6.947   4.422  13.539  0.00  0.00    +0.000 A 
ATOM      8  C   UNL     1       5.580   4.085  13.533  0.00  0.00    +0.000 A 
ATOM      9  C   UNL     1       4.804   4.070  14.724  0.00  0.00    +0.000 A 
ATOM     10  C   UNL     1       5.412   4.378  15.914  0.00  0.00    +0.000 A 
ENDROOT
BRANCH   4  11
ATOM     11  C   UNL     1       7.437   6.595  17.345  0.00  0.00    +0.000 C 
ATOM     12  C   UNL     1       6.131   7.425  17.277  0.00  0.00    +0.000 C 
ATOM     13  C   UNL     1       8.120   6.877  18.683  0.00  0.00    +0.000 C 
ENDBRANCH   4  11
BRANCH   1  14
ATOM     14  C   UNL     1       3.817   4.151  18.029  0.00  0.00    +0.000 C 
BRANCH  14  15
ATOM     15  C   UNL     1       3.010   5.347  18.550  0.00  0.00    +0.000 A 
ATOM     16  C   UNL     1       2.575   5.468  19.875  0.00  0.00    +0.000 A 
ATOM     17  C   UNL     1       2.075   6.693  20.347  0.00  0.00    +0.000 A 
ATOM     18  C   UNL     1       1.998   7.811  19.512  0.00  0.00    +0.000 A 
ATOM     19  C   UNL     1       2.382   7.697  18.182  0.00  0.00    +0.000 A 
ATOM     20  C   UNL     1       2.874   6.478  17.707  0.00  0.00    +0.000 A 
ENDBRANCH  14  15
BRANCH  14  21
ATOM     21  C   UNL     1       2.912   3.001  17.603  0.00  0.00    +0.000 C 
BRANCH  21  22
ATOM     22  C   UNL     1       3.002   1.880  18.630  0.00  0.00    +0.000 C 
BRANCH  22  24
ATOM     23  C   UNL     1       0.684   2.389  18.810  0.00  0.00    +0.000 C 
ATOM     24  N   UNL     1       1.860   1.929  19.538  0.00  0.00    +0.000 NA
ATOM     25  H   UNL     1       1.681   0.990  19.898  0.00  0.00    +0.000 HD
ENDBRANCH  22  24
ENDBRANCH  21  22
ENDBRANCH  14  21
ENDBRANCH   1  14
TORSDOF 6
ENDMDL
MODEL 8
REMARK VINA RESULT:      -7.4      1.444      5.922
REMARK  Name = 
REMARK  9 active torsions:
REMARK  status: ('A' for Active; 'I' for Inactive)
REMARK    1  A    between atoms: C_1  and  N_2
REMARK    2  A    between atoms: N_2  and  C_3
REMARK    3  A    between atoms: C_3  and  C_4
REMARK    4  A    between atoms: C_4  and  C_5
REMARK    5  A    between atoms: C_5  and  C_6
REMARK    6  A    between atoms: C_5  and  N_12
REMARK    7  A    between atoms: N_15  and  C_16
REMARK    8  A    between atoms: C_16  and  C_17
REMARK    9  A    between atoms: C_16  and  C_18
REMARK                            x       y       z     vdW  Elec       q    Type
REMARK                         _______ _______ _______ _____ _____    ______ ____
ROOT
ATOM      1  N   UNL     1       5.157   5.075  18.193  0.00  0.00    +0.000 N 
ATOM      2  C   UNL     1       6.429   5.371  18.739  0.00  0.00    +0.000 A 
ATOM      3  O   UNL     1       6.725   5.433  19.929  0.00  0.00    +0.000 OA
ATOM      4  N   UNL     1       7.312   5.648  17.659  0.00  0.00    +0.000 N 
ATOM      5  C   UNL     1       6.701   5.060  16.534  0.00  0.00    +0.000 A 
ATOM      6  C   UNL     1       7.341   4.812  15.327  0.00  0.00    +0.000 A 
ATOM      7  C   UNL     1       6.561   4.250  14.320  0.00  0.00    +0.000 A 
ATOM      8  C   UNL     1       5.190   4.019  14.544  0.00  0.00    +0.000 A 
ATOM      9  C   UNL     1       4.577   4.289  15.799  0.00  0.00    +0.000 A 
ATOM     10  C   UNL     1       5.350   4.773  16.822  0.00  0.00    +0.000 A 
ENDROOT
BRANCH   4  11
ATOM     11  C   UNL     1       7.650   7.068  17.533  0.00  0.00    +0.000 C 
ATOM     12  C   UNL     1       6.393   7.952  17.345  0.00  0.00    +0.000 C 
ATOM     13  C   UNL     1       8.420   7.577  18.751  0.00  0.00    +0.000 C 
ENDBRANCH   4  11
BRANCH   1  14
ATOM     14  C   UNL     1       4.037   5.071  19.115  0.00  0.00    +0.000 C 
BRANCH  14  15
ATOM     15  C   UNL     1       3.052   6.247  19.100  0.00  0.00    +0.000 A 
ATOM     16  C   UNL     1       2.337   6.672  20.226  0.00  0.00    +0.000 A 
ATOM     17  C   UNL     1       1.660   7.902  20.213  0.00  0.00    +0.000 A 
ATOM     18  C   UNL     1       1.681   8.725  19.084  0.00  0.00    +0.000 A 
ATOM     19  C   UNL     1       2.347   8.299  17.941  0.00  0.00    +0.000 A 
ATOM     20  C   UNL     1       3.016   7.072  17.949  0.00  0.00    +0.000 A 
ENDBRANCH  14  15
BRANCH  14  21
ATOM     21  C   UNL     1       3.336   3.750  19.409  0.00  0.00    +0.000 C 
BRANCH  21  22
ATOM     22  C   UNL     1       4.367   2.712  19.827  0.00  0.00    +0.000 C 
BRANCH  22  24
ATOM     23  C   UNL     1       3.167   1.668  18.057  0.00  0.00    +0.000 C 
ATOM     24  N   UNL     1       4.341   1.572  18.916  0.00  0.00    +0.000 NA
ATOM     25  H   UNL     1       5.180   1.591  18.335  0.00  0.00    +0.000 HD
ENDBRANCH  22  24
ENDBRANCH  21  22
ENDBRANCH  14  21
ENDBRANCH   1  14
TORSDOF 6
ENDMDL
MODEL 9
REMARK VINA RESULT:      -7.3      1.336      6.004
REMARK  Name = 
REMARK  9 active torsions:
REMARK  status: ('A' for Active; 'I' for Inactive)
REMARK    1  A    between atoms: C_1  and  N_2
REMARK    2  A    between atoms: N_2  and  C_3
REMARK    3  A    between atoms: C_3  and  C_4
REMARK    4  A    between atoms: C_4  and  C_5
REMARK    5  A    between atoms: C_5  and  C_6
REMARK    6  A    between atoms: C_5  and  N_12
REMARK    7  A    between atoms: N_15  and  C_16
REMARK    8  A    between atoms: C_16  and  C_17
REMARK    9  A    between atoms: C_16  and  C_18
REMARK                            x       y       z     vdW  Elec       q    Type
REMARK                         _______ _______ _______ _____ _____    ______ ____
ROOT
ATOM      1  N   UNL     1       4.342   4.541  17.927  0.00  0.00    +0.000 N 
ATOM      2  C   UNL     1       5.337   4.305  18.906  0.00  0.00    +0.000 A 
ATOM      3  O   UNL     1       5.160   3.941  20.065  0.00  0.00    +0.000 OA
ATOM      4  N   UNL     1       6.599   4.620  18.329  0.00  0.00    +0.000 N 
ATOM      5  C   UNL     1       6.382   4.569  16.938  0.00  0.00    +0.000 A 
ATOM      6  C   UNL     1       7.388   4.506  15.983  0.00  0.00    +0.000 A 
ATOM      7  C   UNL     1       6.976   4.492  14.654  0.00  0.00    +0.000 A 
ATOM      8  C   UNL     1       5.607   4.598  14.345  0.00  0.00    +0.000 A 
ATOM      9  C   UNL     1       4.610   4.660  15.357  0.00  0.00    +0.000 A 
ATOM     10  C   UNL     1       4.997   4.599  16.671  0.00  0.00    +0.000 A 
ENDROOT
BRANCH   4  11
ATOM     11  C   UNL     1       7.177   5.864  18.841  0.00  0.00    +0.000 C 
ATOM     12  C   UNL     1       8.433   5.610  19.710  0.00  0.00    +0.000 C 
ATOM     13  C   UNL     1       7.558   6.818  17.709  0.00  0.00    +0.000 C 
ENDBRANCH   4  11
BRANCH   1  14
ATOM     14  C   UNL     1       2.969   4.587  18.391  0.00  0.00    +0.000 C 
BRANCH  14  15
ATOM     15  C   UNL     1       2.358   5.937  18.788  0.00  0.00    +0.000 A 
ATOM     16  C   UNL     1       2.005   6.271  20.100  0.00  0.00    +0.000 A 
ATOM     17  C   UNL     1       1.699   7.600  20.436  0.00  0.00    +0.000 A 
ATOM     18  C   UNL     1       1.739   8.614  19.476  0.00  0.00    +0.000 A 
ATOM     19  C   UNL     1       2.043   8.295  18.158  0.00  0.00    +0.000 A 
ATOM     20  C   UNL     1       2.341   6.972  17.820  0.00  0.00    +0.000 A 
ENDBRANCH  14  15
BRANCH  14  21
ATOM     21  C   UNL     1       1.942   3.675  17.730  0.00  0.00    +0.000 C 
BRANCH  21  22
ATOM     22  C   UNL     1       1.832   2.380  18.522  0.00  0.00    +0.000 C 
BRANCH  22  24
ATOM     23  C   UNL     1       1.266   2.692  20.813  0.00  0.00    +0.000 C 
ATOM     24  N   UNL     1       2.368   2.559  19.868  0.00  0.00    +0.000 NA
ATOM     25  H   UNL     1       2.923   1.739  20.118  0.00  0.00    +0.000 HD
ENDBRANCH  22  24
ENDBRANCH  21  22
ENDBRANCH  14  21
ENDBRANCH   1  14
TORSDOF 6
ENDMDL
