MODEL 1
REMARK VINA RESULT:      -8.2      0.000      0.000
REMARK  Name = 
REMARK  9 active torsions:
REMARK  status: ('A' for Active; 'I' for Inactive)
REMARK    1  A    between atoms: C_1  and  O_2
REMARK    2  A    between atoms: O_2  and  C_3
REMARK    3  A    between atoms: C_3  and  C_5
REMARK    4  A    between atoms: C_11  and  C_12
REMARK    5  A    between atoms: C_12  and  C_13
REMARK    6  A    between atoms: C_13  and  C_14
REMARK    7  A    between atoms: C_14  and  C_15
REMARK    8  A    between atoms: C_15  and  N_16
REMARK    9  A    between atoms: C_19  and  C_20
REMARK                            x       y       z     vdW  Elec       q    Type
REMARK                         _______ _______ _______ _____ _____    ______ ____
ROOT
ATOM      1  C   UNL     1       2.659   6.175  19.776  0.00  0.00    +0.000 C 
ENDROOT
BRANCH   1   8
ATOM      2  C   UNL     1       0.329   9.899  21.447  0.00  0.00    +0.000 A 
ATOM      3  C   UNL     1       0.174  10.897  20.478  0.00  0.00    +0.000 A 
ATOM      4  C   UNL     1       0.686  10.738  19.183  0.00  0.00    +0.000 A 
ATOM      5  C   UNL     1       1.363   9.548  18.892  0.00  0.00    +0.000 A 
ATOM      6  N   UNL     1       1.965   9.132  17.728  0.00  0.00    +0.000 N 
ATOM      7  C   UNL     1       2.512   7.892  17.892  0.00  0.00    +0.000 A 
ATOM      8  C   UNL     1       2.259   7.480  19.184  0.00  0.00    +0.000 A 
ATOM      9  C   UNL     1       1.536   8.531  19.830  0.00  0.00    +0.000 A 
ATOM     10  C   UNL     1       1.008   8.708  21.125  0.00  0.00    +0.000 A 
ATOM     11  H   UNL     1       1.995   9.671  16.872  0.00  0.00    +0.000 HD
BRANCH   2  12
ATOM     12  C   UNL     1      -0.191  10.037  22.835  0.00  0.00    +0.000 C 
ATOM     13  O   UNL     1       0.450   9.714  23.821  0.00  0.00    +0.000 OA
BRANCH  12  15
ATOM     14  C   UNL     1      -1.474  11.945  23.192  0.00  0.00    +0.000 C 
ATOM     15  O   UNL     1      -1.445  10.558  22.847  0.00  0.00    +0.000 OA
ENDBRANCH  12  15
ENDBRANCH   2  12
ENDBRANCH   1   8
BRANCH   1  16
ATOM     16  C   UNL     1       1.644   5.702  20.821  0.00  0.00    +0.000 C 
BRANCH  16  17
ATOM     17  C   UNL     1       0.771   4.567  20.305  0.00  0.00    +0.000 C 
BRANCH  17  18
ATOM     18  C   UNL     1       1.165   3.209  20.893  0.00  0.00    +0.000 C 
BRANCH  18  19
ATOM     19  N   UNL     1       1.989   2.418  19.964  0.00  0.00    +0.000 NA
ATOM     20  C   UNL     1       1.766   2.863  18.582  0.00  0.00    +0.000 C 
ATOM     21  C   UNL     1       2.684   2.173  17.578  0.00  0.00    +0.000 C 
ATOM     22  C   UNL     1       4.165   2.326  17.946  0.00  0.00    +0.000 C 
ATOM     23  C   UNL     1       4.337   1.824  19.392  0.00  0.00    +0.000 C 
ATOM     24  C   UNL     1       3.401   2.538  20.364  0.00  0.00    +0.000 C 
BRANCH  22  25
ATOM     25  C   UNL     1       4.764   3.710  17.690  0.00  0.00    +0.000 A 
ATOM     26  C   UNL     1       5.570   4.382  18.624  0.00  0.00    +0.000 A 
ATOM     27  C   UNL     1       6.070   5.660  18.378  0.00  0.00    +0.000 A 
ATOM     28  C   UNL     1       5.748   6.315  17.199  0.00  0.00    +0.000 A 
ATOM     29  C   UNL     1       4.935   5.683  16.261  0.00  0.00    +0.000 A 
ATOM     30  C   UNL     1       4.449   4.393  16.503  0.00  0.00    +0.000 A 
ENDBRANCH  22  25
ENDBRANCH  18  19
ENDBRANCH  17  18
ENDBRANCH  16  17
ENDBRANCH   1  16
TORSDOF 8
ENDMDL
MODEL 2
REMARK VINA RESULT:      -7.9      4.805      8.226
REMARK  Name = 
REMARK  9 active torsions:
REMARK  status: ('A' for Active; 'I' for Inactive)
REMARK    1  A    between atoms: C_1  and  O_2
REMARK    2  A    between atoms: O_2  and  C_3
REMARK    3  A    between atoms: C_3  and  C_5
REMARK    4  A    between atoms: C_11  and  C_12
REMARK    5  A    between atoms: C_12  and  C_13
REMARK    6  A    between atoms: C_13  and  C_14
REMARK    7  A    between atoms: C_14  and  C_15
REMARK    8  A    between atoms: C_15  and  N_16
REMARK    9  A    between atoms: C_19  and  C_20
REMARK                            x       y       z     vdW  Elec       q    Type
REMARK                         _______ _______ _______ _____ _____    ______ ____
ROOT
ATOM      1  C   UNL     1       4.605   4.738  16.980  0.00  0.00    +0.000 C 
ENDROOT
BRANCH   1   8
ATOM      2  C   UNL     1       5.753   3.653  12.554  0.00  0.00    +0.000 A 
ATOM      3  C   UNL     1       7.002   4.170  12.195  0.00  0.00    +0.000 A 
ATOM      4  C   UNL     1       7.764   4.921  13.101  0.00  0.00    +0.000 A 
ATOM      5  C   UNL     1       7.230   5.141  14.376  0.00  0.00    +0.000 A 
ATOM      6  N   UNL     1       7.745   5.835  15.445  0.00  0.00    +0.000 N 
ATOM      7  C   UNL     1       6.879   5.794  16.500  0.00  0.00    +0.000 A 
ATOM      8  C   UNL     1       5.779   5.053  16.123  0.00  0.00    +0.000 A 
ATOM      9  C   UNL     1       5.991   4.640  14.769  0.00  0.00    +0.000 A 
ATOM     10  C   UNL     1       5.243   3.882  13.846  0.00  0.00    +0.000 A 
ATOM     11  H   UNL     1       8.639   6.308  15.447  0.00  0.00    +0.000 HD
BRANCH   2  12
ATOM     12  C   UNL     1       4.911   2.861  11.616  0.00  0.00    +0.000 C 
ATOM     13  O   UNL     1       5.257   1.786  11.156  0.00  0.00    +0.000 OA
BRANCH  12  15
ATOM     14  C   UNL     1       3.319   3.352   9.990  0.00  0.00    +0.000 C 
ATOM     15  O   UNL     1       3.736   3.488  11.351  0.00  0.00    +0.000 OA
ENDBRANCH  12  15
ENDBRANCH   2  12
ENDBRANCH   1   8
BRANCH   1  16
ATOM     16  C   UNL     1       4.855   3.492  17.834  0.00  0.00    +0.000 C 
BRANCH  16  17
ATOM     17  C   UNL     1       3.940   2.337  17.453  0.00  0.00    +0.000 C 
BRANCH  17  18
ATOM     18  C   UNL     1       3.710   1.363  18.612  0.00  0.00    +0.000 C 
BRANCH  18  19
ATOM     19  N   UNL     1       2.648   1.822  19.523  0.00  0.00    +0.000 NA
ATOM     20  C   UNL     1       3.203   2.731  20.534  0.00  0.00    +0.000 C 
ATOM     21  C   UNL     1       2.135   3.347  21.433  0.00  0.00    +0.000 C 
ATOM     22  C   UNL     1       1.042   4.061  20.628  0.00  0.00    +0.000 C 
ATOM     23  C   UNL     1       0.487   3.053  19.605  0.00  0.00    +0.000 C 
ATOM     24  C   UNL     1       1.586   2.459  18.727  0.00  0.00    +0.000 C 
BRANCH  22  25
ATOM     25  C   UNL     1       1.448   5.407  20.024  0.00  0.00    +0.000 A 
ATOM     26  C   UNL     1       1.875   5.551  18.693  0.00  0.00    +0.000 A 
ATOM     27  C   UNL     1       2.276   6.784  18.180  0.00  0.00    +0.000 A 
ATOM     28  C   UNL     1       2.290   7.903  18.999  0.00  0.00    +0.000 A 
ATOM     29  C   UNL     1       1.891   7.789  20.328  0.00  0.00    +0.000 A 
ATOM     30  C   UNL     1       1.472   6.553  20.835  0.00  0.00    +0.000 A 
ENDBRANCH  22  25
ENDBRANCH  18  19
ENDBRANCH  17  18
ENDBRANCH  16  17
ENDBRANCH   1  16
TORSDOF 8
ENDMDL
MODEL 3
REMARK VINA RESULT:      -7.6      4.988      8.525
REMARK  Name = 
REMARK  9 active torsions:
REMARK  status: ('A' for Active; 'I' for Inactive)
REMARK    1  A    between atoms: C_1  and  O_2
REMARK    2  A    between atoms: O_2  and  C_3
REMARK    3  A    between atoms: C_3  and  C_5
REMARK    4  A    between atoms: C_11  and  C_12
REMARK    5  A    between atoms: C_12  and  C_13
REMARK    6  A    between atoms: C_13  and  C_14
REMARK    7  A    between atoms: C_14  and  C_15
REMARK    8  A    between atoms: C_15  and  N_16
REMARK    9  A    between atoms: C_19  and  C_20
REMARK                            x       y       z     vdW  Elec       q    Type
REMARK                         _______ _______ _______ _____ _____    ______ ____
ROOT
ATOM      1  C   UNL     1       4.681   4.506  16.687  0.00  0.00    +0.000 C 
ENDROOT
BRANCH   1   8
ATOM      2  C   UNL     1       5.856   3.472  12.256  0.00  0.00    +0.000 A 
ATOM      3  C   UNL     1       7.070   4.061  11.885  0.00  0.00    +0.000 A 
ATOM      4  C   UNL     1       7.793   4.859  12.782  0.00  0.00    +0.000 A 
ATOM      5  C   UNL     1       7.257   5.053  14.060  0.00  0.00    +0.000 A 
ATOM      6  N   UNL     1       7.738   5.782  15.122  0.00  0.00    +0.000 N 
ATOM      7  C   UNL     1       6.884   5.694  16.184  0.00  0.00    +0.000 A 
ATOM      8  C   UNL     1       5.828   4.887  15.819  0.00  0.00    +0.000 A 
ATOM      9  C   UNL     1       6.052   4.481  14.466  0.00  0.00    +0.000 A 
ATOM     10  C   UNL     1       5.343   3.676  13.552  0.00  0.00    +0.000 A 
ATOM     11  H   UNL     1       8.603   6.307  15.115  0.00  0.00    +0.000 HD
BRANCH   2  12
ATOM     12  C   UNL     1       5.055   2.627  11.328  0.00  0.00    +0.000 C 
ATOM     13  O   UNL     1       3.850   2.755  11.184  0.00  0.00    +0.000 OA
BRANCH  12  15
ATOM     14  C   UNL     1       6.228   0.626  11.519  0.00  0.00    +0.000 C 
ATOM     15  O   UNL     1       5.833   1.719  10.685  0.00  0.00    +0.000 OA
ENDBRANCH  12  15
ENDBRANCH   2  12
ENDBRANCH   1   8
BRANCH   1  16
ATOM     16  C   UNL     1       4.813   3.065  17.187  0.00  0.00    +0.000 C 
BRANCH  16  17
ATOM     17  C   UNL     1       3.472   2.348  17.244  0.00  0.00    +0.000 C 
BRANCH  17  18
ATOM     18  C   UNL     1       3.377   1.373  18.421  0.00  0.00    +0.000 C 
BRANCH  18  19
ATOM     19  N   UNL     1       2.500   1.875  19.492  0.00  0.00    +0.000 NA
ATOM     20  C   UNL     1       3.263   2.720  20.419  0.00  0.00    +0.000 C 
ATOM     21  C   UNL     1       2.390   3.381  21.481  0.00  0.00    +0.000 C 
ATOM     22  C   UNL     1       1.237   4.184  20.866  0.00  0.00    +0.000 C 
ATOM     23  C   UNL     1       0.465   3.240  19.926  0.00  0.00    +0.000 C 
ATOM     24  C   UNL     1       1.374   2.600  18.879  0.00  0.00    +0.000 C 
BRANCH  22  25
ATOM     25  C   UNL     1       1.636   5.516  20.227  0.00  0.00    +0.000 A 
ATOM     26  C   UNL     1       1.411   6.759  20.843  0.00  0.00    +0.000 A 
ATOM     27  C   UNL     1       1.750   7.959  20.220  0.00  0.00    +0.000 A 
ATOM     28  C   UNL     1       2.296   7.947  18.944  0.00  0.00    +0.000 A 
ATOM     29  C   UNL     1       2.513   6.732  18.300  0.00  0.00    +0.000 A 
ATOM     30  C   UNL     1       2.187   5.528  18.936  0.00  0.00    +0.000 A 
ENDBRANCH  22  25
ENDBRANCH  18  19
ENDBRANCH  17  18
ENDBRANCH  16  17
ENDBRANCH   1  16
TORSDOF 8
ENDMDL
MODEL 4
REMARK VINA RESULT:      -7.6      5.852      9.001
REMARK  Name = 
REMARK  9 active torsions:
REMARK  status: ('A' for Active; 'I' for Inactive)
REMARK    1  A    between atoms: C_1  and  O_2
REMARK    2  A    between atoms: O_2  and  C_3
REMARK    3  A    between atoms: C_3  and  C_5
REMARK    4  A    between atoms: C_11  and  C_12
REMARK    5  A    between atoms: C_12  and  C_13
REMARK    6  A    between atoms: C_13  and  C_14
REMARK    7  A    between atoms: C_14  and  C_15
REMARK    8  A    between atoms: C_15  and  N_16
REMARK    9  A    between atoms: C_19  and  C_20
REMARK                            x       y       z     vdW  Elec       q    Type
REMARK                         _______ _______ _______ _____ _____    ______ ____
ROOT
ATOM      1  C   UNL     1       7.632   6.161  18.268  0.00  0.00    +0.000 C 
ENDROOT
BRANCH   1   8
ATOM      2  C   UNL     1       3.063   5.247  18.880  0.00  0.00    +0.000 A 
ATOM      3  C   UNL     1       2.603   4.263  17.997  0.00  0.00    +0.000 A 
ATOM      4  C   UNL     1       3.461   3.669  17.062  0.00  0.00    +0.000 A 
ATOM      5  C   UNL     1       4.794   4.096  17.036  0.00  0.00    +0.000 A 
ATOM      6  N   UNL     1       5.837   3.701  16.233  0.00  0.00    +0.000 N 
ATOM      7  C   UNL     1       6.972   4.387  16.555  0.00  0.00    +0.000 A 
ATOM      8  C   UNL     1       6.674   5.244  17.593  0.00  0.00    +0.000 A 
ATOM      9  C   UNL     1       5.288   5.072  17.901  0.00  0.00    +0.000 A 
ATOM     10  C   UNL     1       4.410   5.653  18.839  0.00  0.00    +0.000 A 
ATOM     11  H   UNL     1       5.769   2.998  15.507  0.00  0.00    +0.000 HD
BRANCH   2  12
ATOM     12  C   UNL     1       2.179   5.908  19.879  0.00  0.00    +0.000 C 
ATOM     13  O   UNL     1       1.432   5.290  20.619  0.00  0.00    +0.000 OA
BRANCH  12  15
ATOM     14  C   UNL     1       1.526   7.928  20.833  0.00  0.00    +0.000 C 
ATOM     15  O   UNL     1       2.317   7.259  19.848  0.00  0.00    +0.000 OA
ENDBRANCH  12  15
ENDBRANCH   2  12
ENDBRANCH   1   8
BRANCH   1  16
ATOM     16  C   UNL     1       7.588   7.563  17.654  0.00  0.00    +0.000 C 
BRANCH  16  17
ATOM     17  C   UNL     1       8.493   8.543  18.388  0.00  0.00    +0.000 C 
BRANCH  17  18
ATOM     18  C   UNL     1       8.253   9.995  17.963  0.00  0.00    +0.000 C 
BRANCH  18  19
ATOM     19  N   UNL     1       9.412  10.857  18.245  0.00  0.00    +0.000 NA
ATOM     20  C   UNL     1       9.141  12.233  17.808  0.00  0.00    +0.000 C 
ATOM     21  C   UNL     1      10.250  13.209  18.187  0.00  0.00    +0.000 C 
ATOM     22  C   UNL     1      10.554  13.186  19.691  0.00  0.00    +0.000 C 
ATOM     23  C   UNL     1      10.851  11.726  20.080  0.00  0.00    +0.000 C 
ATOM     24  C   UNL     1       9.718  10.782  19.683  0.00  0.00    +0.000 C 
BRANCH  22  25
ATOM     25  C   UNL     1       9.513  13.871  20.579  0.00  0.00    +0.000 A 
ATOM     26  C   UNL     1       8.618  14.843  20.100  0.00  0.00    +0.000 A 
ATOM     27  C   UNL     1       7.706  15.480  20.942  0.00  0.00    +0.000 A 
ATOM     28  C   UNL     1       7.688  15.181  22.296  0.00  0.00    +0.000 A 
ATOM     29  C   UNL     1       8.576  14.235  22.804  0.00  0.00    +0.000 A 
ATOM     30  C   UNL     1       9.478  13.586  21.953  0.00  0.00    +0.000 A 
ENDBRANCH  22  25
ENDBRANCH  18  19
ENDBRANCH  17  18
ENDBRANCH  16  17
ENDBRANCH   1  16
TORSDOF 8
ENDMDL
MODEL 5
REMARK VINA RESULT:      -7.5      3.216      7.974
REMARK  Name = 
REMARK  9 active torsions:
REMARK  status: ('A' for Active; 'I' for Inactive)
REMARK    1  A    between atoms: C_1  and  O_2
REMARK    2  A    between atoms: O_2  and  C_3
REMARK    3  A    between atoms: C_3  and  C_5
REMARK    4  A    between atoms: C_11  and  C_12
REMARK    5  A    between atoms: C_12  and  C_13
REMARK    6  A    between atoms: C_13  and  C_14
REMARK    7  A    between atoms: C_14  and  C_15
REMARK    8  A    between atoms: C_15  and  N_16
REMARK    9  A    between atoms: C_19  and  C_20
REMARK                            x       y       z     vdW  Elec       q    Type
REMARK                         _______ _______ _______ _____ _____    ______ ____
ROOT
ATOM      1  C   UNL     1       2.393   3.915  20.618  0.00  0.00    +0.000 C 
ENDROOT
BRANCH   1   8
ATOM      2  C   UNL     1       6.184   4.897  18.019  0.00  0.00    +0.000 A 
ATOM      3  C   UNL     1       6.070   4.397  16.717  0.00  0.00    +0.000 A 
ATOM      4  C   UNL     1       4.931   3.691  16.308  0.00  0.00    +0.000 A 
ATOM      5  C   UNL     1       3.912   3.496  17.248  0.00  0.00    +0.000 A 
ATOM      6  N   UNL     1       2.708   2.844  17.129  0.00  0.00    +0.000 N 
ATOM      7  C   UNL     1       2.020   2.897  18.307  0.00  0.00    +0.000 A 
ATOM      8  C   UNL     1       2.780   3.602  19.215  0.00  0.00    +0.000 A 
ATOM      9  C   UNL     1       3.990   3.980  18.553  0.00  0.00    +0.000 A 
ATOM     10  C   UNL     1       5.141   4.694  18.943  0.00  0.00    +0.000 A 
ATOM     11  H   UNL     1       2.380   2.392  16.285  0.00  0.00    +0.000 HD
BRANCH   2  12
ATOM     12  C   UNL     1       7.382   5.642  18.493  0.00  0.00    +0.000 C 
ATOM     13  O   UNL     1       7.843   5.518  19.615  0.00  0.00    +0.000 OA
BRANCH  12  15
ATOM     14  C   UNL     1       7.801   7.845  17.867  0.00  0.00    +0.000 C 
ATOM     15  O   UNL     1       7.875   6.458  17.525  0.00  0.00    +0.000 OA
ENDBRANCH  12  15
ENDBRANCH   2  12
ENDBRANCH   1   8
BRANCH   1  16
ATOM     16  C   UNL     1       1.417   5.093  20.677  0.00  0.00    +0.000 C 
BRANCH  16  17
ATOM     17  C   UNL     1       2.130   6.437  20.635  0.00  0.00    +0.000 C 
BRANCH  17  18
ATOM     18  C   UNL     1       2.006   7.125  19.272  0.00  0.00    +0.000 C 
BRANCH  18  19
ATOM     19  N   UNL     1       2.009   8.593  19.386  0.00  0.00    +0.000 NA
ATOM     20  C   UNL     1       1.830   9.206  18.064  0.00  0.00    +0.000 C 
ATOM     21  C   UNL     1       1.693  10.724  18.123  0.00  0.00    +0.000 C 
ATOM     22  C   UNL     1       0.567  11.168  19.065  0.00  0.00    +0.000 C 
ATOM     23  C   UNL     1       0.823  10.513  20.435  0.00  0.00    +0.000 C 
ATOM     24  C   UNL     1       0.954   8.995  20.332  0.00  0.00    +0.000 C 
BRANCH  22  25
ATOM     25  C   UNL     1      -0.852  10.964  18.530  0.00  0.00    +0.000 A 
ATOM     26  C   UNL     1      -1.967  11.659  19.029  0.00  0.00    +0.000 A 
ATOM     27  C   UNL     1      -3.255  11.424  18.548  0.00  0.00    +0.000 A 
ATOM     28  C   UNL     1      -3.465  10.460  17.573  0.00  0.00    +0.000 A 
ATOM     29  C   UNL     1      -2.383   9.741  17.072  0.00  0.00    +0.000 A 
ATOM     30  C   UNL     1      -1.089   9.992  17.544  0.00  0.00    +0.000 A 
ENDBRANCH  22  25
ENDBRANCH  18  19
ENDBRANCH  17  18
ENDBRANCH  16  17
ENDBRANCH   1  16
TORSDOF 8
ENDMDL
MODEL 6
REMARK VINA RESULT:      -7.5      4.752      8.184
REMARK  Name = 
REMARK  9 active torsions:
REMARK  status: ('A' for Active; 'I' for Inactive)
REMARK    1  A    between atoms: C_1  and  O_2
REMARK    2  A    between atoms: O_2  and  C_3
REMARK    3  A    between atoms: C_3  and  C_5
REMARK    4  A    between atoms: C_11  and  C_12
REMARK    5  A    between atoms: C_12  and  C_13
REMARK    6  A    between atoms: C_13  and  C_14
REMARK    7  A    between atoms: C_14  and  C_15
REMARK    8  A    between atoms: C_15  and  N_16
REMARK    9  A    between atoms: C_19  and  C_20
REMARK                            x       y       z     vdW  Elec       q    Type
REMARK                         _______ _______ _______ _____ _____    ______ ____
ROOT
ATOM      1  C   UNL     1       5.006   3.658  17.394  0.00  0.00    +0.000 C 
ENDROOT
BRANCH   1   8
ATOM      2  C   UNL     1       5.887   3.668  12.778  0.00  0.00    +0.000 A 
ATOM      3  C   UNL     1       6.956   4.510  12.450  0.00  0.00    +0.000 A 
ATOM      4  C   UNL     1       7.634   5.239  13.437  0.00  0.00    +0.000 A 
ATOM      5  C   UNL     1       7.202   5.102  14.761  0.00  0.00    +0.000 A 
ATOM      6  N   UNL     1       7.668   5.692  15.912  0.00  0.00    +0.000 N 
ATOM      7  C   UNL     1       6.945   5.269  16.990  0.00  0.00    +0.000 A 
ATOM      8  C   UNL     1       5.992   4.378  16.543  0.00  0.00    +0.000 A 
ATOM      9  C   UNL     1       6.143   4.272  15.125  0.00  0.00    +0.000 A 
ATOM     10  C   UNL     1       5.478   3.542  14.119  0.00  0.00    +0.000 A 
ATOM     11  H   UNL     1       8.439   6.347  15.950  0.00  0.00    +0.000 HD
BRANCH   2  12
ATOM     12  C   UNL     1       5.137   2.887  11.757  0.00  0.00    +0.000 C 
ATOM     13  O   UNL     1       5.494   1.789  11.363  0.00  0.00    +0.000 OA
BRANCH  12  15
ATOM     14  C   UNL     1       3.327   2.872  10.293  0.00  0.00    +0.000 C 
ATOM     15  O   UNL     1       4.030   3.552  11.336  0.00  0.00    +0.000 OA
ENDBRANCH  12  15
ENDBRANCH   2  12
ENDBRANCH   1   8
BRANCH   1  16
ATOM     16  C   UNL     1       3.636   3.580  16.715  0.00  0.00    +0.000 C 
BRANCH  16  17
ATOM     17  C   UNL     1       2.929   2.260  16.991  0.00  0.00    +0.000 C 
BRANCH  17  18
ATOM     18  C   UNL     1       3.387   1.612  18.301  0.00  0.00    +0.000 C 
BRANCH  18  19
ATOM     19  N   UNL     1       2.575   2.045  19.451  0.00  0.00    +0.000 NA
ATOM     20  C   UNL     1       3.378   2.878  20.356  0.00  0.00    +0.000 C 
ATOM     21  C   UNL     1       2.564   3.469  21.503  0.00  0.00    +0.000 C 
ATOM     22  C   UNL     1       1.348   4.258  21.004  0.00  0.00    +0.000 C 
ATOM     23  C   UNL     1       0.538   3.327  20.082  0.00  0.00    +0.000 C 
ATOM     24  C   UNL     1       1.388   2.757  18.949  0.00  0.00    +0.000 C 
BRANCH  22  25
ATOM     25  C   UNL     1       1.661   5.625  20.393  0.00  0.00    +0.000 A 
ATOM     26  C   UNL     1       1.353   6.839  21.031  0.00  0.00    +0.000 A 
ATOM     27  C   UNL     1       1.615   8.071  20.433  0.00  0.00    +0.000 A 
ATOM     28  C   UNL     1       2.167   8.120  19.161  0.00  0.00    +0.000 A 
ATOM     29  C   UNL     1       2.466   6.934  18.494  0.00  0.00    +0.000 A 
ATOM     30  C   UNL     1       2.217   5.699  19.105  0.00  0.00    +0.000 A 
ENDBRANCH  22  25
ENDBRANCH  18  19
ENDBRANCH  17  18
ENDBRANCH  16  17
ENDBRANCH   1  16
TORSDOF 8
ENDMDL
MODEL 7
REMARK VINA RESULT:      -7.5      6.100      9.302
REMARK  Name = 
REMARK  9 active torsions:
REMARK  status: ('A' for Active; 'I' for Inactive)
REMARK    1  A    between atoms: C_1  and  O_2
REMARK    2  A    between atoms: O_2  and  C_3
REMARK    3  A    between atoms: C_3  and  C_5
REMARK    4  A    between atoms: C_11  and  C_12
REMARK    5  A    between atoms: C_12  and  C_13
REMARK    6  A    between atoms: C_13  and  C_14
REMARK    7  A    between atoms: C_14  and  C_15
REMARK    8  A    between atoms: C_15  and  N_16
REMARK    9  A    between atoms: C_19  and  C_20
REMARK                            x       y       z     vdW  Elec       q    Type
REMARK                         _______ _______ _______ _____ _____    ______ ____
ROOT
ATOM      1  C   UNL     1       7.534   5.991  18.151  0.00  0.00    +0.000 C 
ENDROOT
BRANCH   1   8
ATOM      2  C   UNL     1       3.235   4.383  19.160  0.00  0.00    +0.000 A 
ATOM      3  C   UNL     1       2.658   3.713  18.075  0.00  0.00    +0.000 A 
ATOM      4  C   UNL     1       3.340   3.582  16.858  0.00  0.00    +0.000 A 
ATOM      5  C   UNL     1       4.616   4.148  16.761  0.00  0.00    +0.000 A 
ATOM      6  N   UNL     1       5.496   4.178  15.705  0.00  0.00    +0.000 N 
ATOM      7  C   UNL     1       6.635   4.844  16.054  0.00  0.00    +0.000 A 
ATOM      8  C   UNL     1       6.509   5.252  17.365  0.00  0.00    +0.000 A 
ATOM      9  C   UNL     1       5.223   4.820  17.820  0.00  0.00    +0.000 A 
ATOM     10  C   UNL     1       4.524   4.936  19.039  0.00  0.00    +0.000 A 
ATOM     11  H   UNL     1       5.320   3.764  14.798  0.00  0.00    +0.000 HD
BRANCH   2  12
ATOM     12  C   UNL     1       2.537   4.552  20.464  0.00  0.00    +0.000 C 
ATOM     13  O   UNL     1       1.918   5.559  20.762  0.00  0.00    +0.000 OA
BRANCH  12  15
ATOM     14  C   UNL     1       1.448   2.807  21.552  0.00  0.00    +0.000 C 
ATOM     15  O   UNL     1       2.686   3.457  21.254  0.00  0.00    +0.000 OA
ENDBRANCH  12  15
ENDBRANCH   2  12
ENDBRANCH   1   8
BRANCH   1  16
ATOM     16  C   UNL     1       7.609   7.460  17.727  0.00  0.00    +0.000 C 
BRANCH  16  17
ATOM     17  C   UNL     1       8.595   8.255  18.572  0.00  0.00    +0.000 C 
BRANCH  17  18
ATOM     18  C   UNL     1       8.539   9.757  18.282  0.00  0.00    +0.000 C 
BRANCH  18  19
ATOM     19  N   UNL     1       9.726  10.467  18.787  0.00  0.00    +0.000 NA
ATOM     20  C   UNL     1      10.158  11.487  17.823  0.00  0.00    +0.000 C 
ATOM     21  C   UNL     1      11.304  12.350  18.340  0.00  0.00    +0.000 C 
ATOM     22  C   UNL     1      10.974  13.007  19.686  0.00  0.00    +0.000 C 
ATOM     23  C   UNL     1      10.552  11.888  20.656  0.00  0.00    +0.000 C 
ATOM     24  C   UNL     1       9.403  11.048  20.102  0.00  0.00    +0.000 C 
BRANCH  22  25
ATOM     25  C   UNL     1       9.993  14.179  19.619  0.00  0.00    +0.000 A 
ATOM     26  C   UNL     1       9.764  14.920  18.447  0.00  0.00    +0.000 A 
ATOM     27  C   UNL     1       8.892  16.008  18.424  0.00  0.00    +0.000 A 
ATOM     28  C   UNL     1       8.250  16.405  19.588  0.00  0.00    +0.000 A 
ATOM     29  C   UNL     1       8.472  15.703  20.771  0.00  0.00    +0.000 A 
ATOM     30  C   UNL     1       9.334  14.600  20.785  0.00  0.00    +0.000 A 
ENDBRANCH  22  25
ENDBRANCH  18  19
ENDBRANCH  17  18
ENDBRANCH  16  17
ENDBRANCH   1  16
TORSDOF 8
ENDMDL
MODEL 8
REMARK VINA RESULT:      -7.4      1.244      1.769
REMARK  Name = 
REMARK  9 active torsions:
REMARK  status: ('A' for Active; 'I' for Inactive)
REMARK    1  A    between atoms: C_1  and  O_2
REMARK    2  A    between atoms: O_2  and  C_3
REMARK    3  A    between atoms: C_3  and  C_5
REMARK    4  A    between atoms: C_11  and  C_12
REMARK    5  A    between atoms: C_12  and  C_13
REMARK    6  A    between atoms: C_13  and  C_14
REMARK    7  A    between atoms: C_14  and  C_15
REMARK    8  A    between atoms: C_15  and  N_16
REMARK    9  A    between atoms: C_19  and  C_20
REMARK                            x       y       z     vdW  Elec       q    Type
REMARK                         _______ _______ _______ _____ _____    ______ ____
ROOT
ATOM      1  C   UNL     1       1.372   7.938  20.881  0.00  0.00    +0.000 C 
ENDROOT
BRANCH   1   8
ATOM      2  C   UNL     1      -0.845  12.050  21.389  0.00  0.00    +0.000 A 
ATOM      3  C   UNL     1      -0.844  12.795  20.204  0.00  0.00    +0.000 A 
ATOM      4  C   UNL     1      -0.229  12.310  19.043  0.00  0.00    +0.000 A 
ATOM      5  C   UNL     1       0.391  11.057  19.108  0.00  0.00    +0.000 A 
ATOM      6  N   UNL     1       1.067  10.350  18.141  0.00  0.00    +0.000 N 
ATOM      7  C   UNL     1       1.512   9.162  18.645  0.00  0.00    +0.000 A 
ATOM      8  C   UNL     1       1.116   9.081  19.963  0.00  0.00    +0.000 A 
ATOM      9  C   UNL     1       0.409  10.286  20.269  0.00  0.00    +0.000 A 
ATOM     10  C   UNL     1      -0.222  10.788  21.425  0.00  0.00    +0.000 A 
ATOM     11  H   UNL     1       1.211  10.669  17.192  0.00  0.00    +0.000 HD
BRANCH   2  12
ATOM     12  C   UNL     1      -1.479  12.537  22.645  0.00  0.00    +0.000 C 
ATOM     13  O   UNL     1      -0.879  13.189  23.484  0.00  0.00    +0.000 OA
BRANCH  12  15
ATOM     14  C   UNL     1      -3.430  12.622  23.911  0.00  0.00    +0.000 C 
ATOM     15  O   UNL     1      -2.782  12.161  22.723  0.00  0.00    +0.000 OA
ENDBRANCH  12  15
ENDBRANCH   2  12
ENDBRANCH   1   8
BRANCH   1  16
ATOM     16  C   UNL     1       2.002   6.756  20.139  0.00  0.00    +0.000 C 
BRANCH  16  17
ATOM     17  C   UNL     1       1.957   5.472  20.954  0.00  0.00    +0.000 C 
BRANCH  17  18
ATOM     18  C   UNL     1       1.037   4.415  20.335  0.00  0.00    +0.000 C 
BRANCH  18  19
ATOM     19  N   UNL     1       1.763   3.503  19.434  0.00  0.00    +0.000 NA
ATOM     20  C   UNL     1       1.782   4.046  18.070  0.00  0.00    +0.000 C 
ATOM     21  C   UNL     1       2.629   3.216  17.110  0.00  0.00    +0.000 C 
ATOM     22  C   UNL     1       4.063   3.024  17.620  0.00  0.00    +0.000 C 
ATOM     23  C   UNL     1       3.975   2.435  19.040  0.00  0.00    +0.000 C 
ATOM     24  C   UNL     1       3.119   3.294  19.968  0.00  0.00    +0.000 C 
BRANCH  22  25
ATOM     25  C   UNL     1       4.967   4.254  17.508  0.00  0.00    +0.000 A 
ATOM     26  C   UNL     1       5.911   4.603  18.488  0.00  0.00    +0.000 A 
ATOM     27  C   UNL     1       6.694   5.752  18.378  0.00  0.00    +0.000 A 
ATOM     28  C   UNL     1       6.529   6.600  17.293  0.00  0.00    +0.000 A 
ATOM     29  C   UNL     1       5.588   6.292  16.314  0.00  0.00    +0.000 A 
ATOM     30  C   UNL     1       4.816   5.129  16.420  0.00  0.00    +0.000 A 
ENDBRANCH  22  25
ENDBRANCH  18  19
ENDBRANCH  17  18
ENDBRANCH  16  17
ENDBRANCH   1  16
TORSDOF 8
ENDMDL
MODEL 9
REMARK VINA RESULT:      -7.4      3.623      8.714
REMARK  Name = 
REMARK  9 active torsions:
REMARK  status: ('A' for Active; 'I' for Inactive)
REMARK    1  A    between atoms: C_1  and  O_2
REMARK    2  A    between atoms: O_2  and  C_3
REMARK    3  A    between atoms: C_3  and  C_5
REMARK    4  A    between atoms: C_11  and  C_12
REMARK    5  A    between atoms: C_12  and  C_13
REMARK    6  A    between atoms: C_13  and  C_14
REMARK    7  A    between atoms: C_14  and  C_15
REMARK    8  A    between atoms: C_15  and  N_16
REMARK    9  A    between atoms: C_19  and  C_20
REMARK                            x       y       z     vdW  Elec       q    Type
REMARK                         _______ _______ _______ _____ _____    ______ ____
ROOT
ATOM      1  C   UNL     1       2.016   7.288  20.289  0.00  0.00    +0.000 C 
ENDROOT
BRANCH   1   8
ATOM      2  C   UNL     1       4.496   5.202  16.885  0.00  0.00    +0.000 A 
ATOM      3  C   UNL     1       4.271   3.821  16.845  0.00  0.00    +0.000 A 
ATOM      4  C   UNL     1       3.399   3.201  17.750  0.00  0.00    +0.000 A 
ATOM      5  C   UNL     1       2.764   4.008  18.700  0.00  0.00    +0.000 A 
ATOM      6  N   UNL     1       1.880   3.675  19.699  0.00  0.00    +0.000 N 
ATOM      7  C   UNL     1       1.510   4.787  20.398  0.00  0.00    +0.000 A 
ATOM      8  C   UNL     1       2.155   5.874  19.846  0.00  0.00    +0.000 A 
ATOM      9  C   UNL     1       2.962   5.386  18.770  0.00  0.00    +0.000 A 
ATOM     10  C   UNL     1       3.837   5.992  17.846  0.00  0.00    +0.000 A 
ATOM     11  H   UNL     1       1.550   2.736  19.885  0.00  0.00    +0.000 HD
BRANCH   2  12
ATOM     12  C   UNL     1       5.422   5.894  15.948  0.00  0.00    +0.000 C 
ATOM     13  O   UNL     1       5.922   6.980  16.187  0.00  0.00    +0.000 OA
BRANCH  12  15
ATOM     14  C   UNL     1       7.003   4.859  14.588  0.00  0.00    +0.000 C 
ATOM     15  O   UNL     1       5.625   5.165  14.820  0.00  0.00    +0.000 OA
ENDBRANCH  12  15
ENDBRANCH   2  12
ENDBRANCH   1   8
BRANCH   1  16
ATOM     16  C   UNL     1       1.053   7.409  21.472  0.00  0.00    +0.000 C 
BRANCH  16  17
ATOM     17  C   UNL     1       0.244   8.698  21.428  0.00  0.00    +0.000 C 
BRANCH  17  18
ATOM     18  C   UNL     1       1.010   9.891  22.008  0.00  0.00    +0.000 C 
BRANCH  18  19
ATOM     19  N   UNL     1       0.570  11.171  21.428  0.00  0.00    +0.000 NA
ATOM     20  C   UNL     1       0.947  11.243  20.011  0.00  0.00    +0.000 C 
ATOM     21  C   UNL     1       0.408  12.488  19.313  0.00  0.00    +0.000 C 
ATOM     22  C   UNL     1      -1.113  12.623  19.460  0.00  0.00    +0.000 C 
ATOM     23  C   UNL     1      -1.440  12.563  20.963  0.00  0.00    +0.000 C 
ATOM     24  C   UNL     1      -0.884  11.303  21.624  0.00  0.00    +0.000 C 
BRANCH  22  25
ATOM     25  C   UNL     1      -1.940  11.664  18.600  0.00  0.00    +0.000 A 
ATOM     26  C   UNL     1      -1.364  10.691  17.767  0.00  0.00    +0.000 A 
ATOM     27  C   UNL     1      -2.142   9.856  16.965  0.00  0.00    +0.000 A 
ATOM     28  C   UNL     1      -3.522   9.997  16.954  0.00  0.00    +0.000 A 
ATOM     29  C   UNL     1      -4.122  10.966  17.755  0.00  0.00    +0.000 A 
ATOM     30  C   UNL     1      -3.339  11.790  18.571  0.00  0.00    +0.000 A 
ENDBRANCH  22  25
ENDBRANCH  18  19
ENDBRANCH  17  18
ENDBRANCH  16  17
ENDBRANCH   1  16
TORSDOF 8
ENDMDL
