MODEL 1
REMARK VINA RESULT:      -8.2      0.000      0.000
REMARK  Name = 
REMARK  9 active torsions:
REMARK  status: ('A' for Active; 'I' for Inactive)
REMARK    1  A    between atoms: C_2  and  C_3
REMARK    2  A    between atoms: C_9  and  O_10
REMARK    3  A    between atoms: O_10  and  C_11
REMARK    4  A    between atoms: C_11  and  C_12
REMARK    5  A    between atoms: C_12  and  C_13
REMARK    6  A    between atoms: C_13  and  C_14
REMARK    7  A    between atoms: C_14  and  N_15
REMARK    8  A    between atoms: N_18  and  C_19
REMARK    9  A    between atoms: C_22  and  O_23
REMARK                            x       y       z     vdW  Elec       q    Type
REMARK                         _______ _______ _______ _____ _____    ______ ____
ROOT
ATOM      1  N   UNL     1       2.273   1.830  18.961  0.00  0.00    +0.000 NA
ATOM      2  C   UNL     1       2.122   2.093  17.504  0.00  0.00    +0.000 C 
ATOM      3  C   UNL     1       2.753   3.420  17.001  0.00  0.00    +0.000 C 
ATOM      4  N   UNL     1       4.162   3.449  17.405  0.00  0.00    +0.000 N 
ATOM      5  C   UNL     1       4.401   3.248  18.841  0.00  0.00    +0.000 C 
ATOM      6  C   UNL     1       3.717   1.937  19.297  0.00  0.00    +0.000 C 
ENDROOT
BRANCH   4   7
ATOM      7  C   UNL     1       5.151   4.008  16.612  0.00  0.00    +0.000 A 
ATOM      8  C   UNL     1       5.246   3.566  15.277  0.00  0.00    +0.000 A 
ATOM      9  C   UNL     1       6.178   4.090  14.381  0.00  0.00    +0.000 A 
ATOM     10  C   UNL     1       7.039   5.093  14.805  0.00  0.00    +0.000 A 
ATOM     11  C   UNL     1       6.971   5.576  16.113  0.00  0.00    +0.000 A 
ATOM     12  C   UNL     1       6.046   5.021  17.023  0.00  0.00    +0.000 A 
ATOM     13  O   UNL     1       6.004   5.428  18.343  0.00  0.00    +0.000 OA
ATOM     14  C   UNL     1       7.177   6.155  18.721  0.00  0.00    +0.000 C 
ATOM     15  C   UNL     1       7.496   7.208  17.681  0.00  0.00    +0.000 C 
ATOM     16  O   UNL     1       7.846   6.583  16.449  0.00  0.00    +0.000 OA
BRANCH  10  17
ATOM     17  O   UNL     1       7.945   5.623  13.930  0.00  0.00    +0.000 OA
ATOM     18  H   UNL     1       8.800   5.713  14.378  0.00  0.00    +0.000 HD
ENDBRANCH  10  17
ENDBRANCH   4   7
BRANCH   1  19
ATOM     19  C   UNL     1       1.466   2.747  19.777  0.00  0.00    +0.000 C 
BRANCH  19  20
ATOM     20  C   UNL     1       1.937   2.828  21.240  0.00  0.00    +0.000 C 
BRANCH  20  21
ATOM     21  C   UNL     1       2.378   4.225  21.692  0.00  0.00    +0.000 C 
BRANCH  21  22
ATOM     22  C   UNL     1       1.996   5.289  20.669  0.00  0.00    +0.000 C 
BRANCH  22  23
ATOM     23  O   UNL     1       1.810   6.546  21.319  0.00  0.00    +0.000 OA
BRANCH  23  30
ATOM     24  C   UNL     1       0.112  11.055  20.229  0.00  0.00    +0.000 A 
ATOM     25  C   UNL     1       0.325  11.691  18.993  0.00  0.00    +0.000 A 
ATOM     26  N   UNL     1       1.028  10.947  18.140  0.00  0.00    +0.000 NA
ATOM     27  N   UNL     1       1.293   9.802  18.814  0.00  0.00    +0.000 N 
ATOM     28  C   UNL     1       2.021   8.709  18.354  0.00  0.00    +0.000 A 
ATOM     29  C   UNL     1       2.208   7.637  19.142  0.00  0.00    +0.000 A 
ATOM     30  C   UNL     1       1.618   7.628  20.480  0.00  0.00    +0.000 A 
ATOM     31  C   UNL     1       0.928   8.693  20.933  0.00  0.00    +0.000 A 
ATOM     32  C   UNL     1       0.738   9.834  20.096  0.00  0.00    +0.000 A 
BRANCH  24  34
ATOM     33  O   UNL     1      -1.759  11.933  21.340  0.00  0.00    +0.000 OA
ATOM     34  C   UNL     1      -0.592  11.564  21.378  0.00  0.00    +0.000 C 
ENDBRANCH  24  34
ENDBRANCH  23  30
ENDBRANCH  22  23
ENDBRANCH  21  22
ENDBRANCH  20  21
ENDBRANCH  19  20
ENDBRANCH   1  19
TORSDOF 9
ENDMDL
MODEL 2
REMARK VINA RESULT:      -8.0      1.460      1.930
REMARK  Name = 
REMARK  9 active torsions:
REMARK  status: ('A' for Active; 'I' for Inactive)
REMARK    1  A    between atoms: C_2  and  C_3
REMARK    2  A    between atoms: C_9  and  O_10
REMARK    3  A    between atoms: O_10  and  C_11
REMARK    4  A    between atoms: C_11  and  C_12
REMARK    5  A    between atoms: C_12  and  C_13
REMARK    6  A    between atoms: C_13  and  C_14
REMARK    7  A    between atoms: C_14  and  N_15
REMARK    8  A    between atoms: N_18  and  C_19
REMARK    9  A    between atoms: C_22  and  O_23
REMARK                            x       y       z     vdW  Elec       q    Type
REMARK                         _______ _______ _______ _____ _____    ______ ____
ROOT
ATOM      1  N   UNL     1       2.333   2.061  19.460  0.00  0.00    +0.000 NA
ATOM      2  C   UNL     1       2.307   1.928  17.977  0.00  0.00    +0.000 C 
ATOM      3  C   UNL     1       2.776   3.181  17.191  0.00  0.00    +0.000 C 
ATOM      4  N   UNL     1       4.108   3.560  17.668  0.00  0.00    +0.000 N 
ATOM      5  C   UNL     1       4.215   3.763  19.119  0.00  0.00    +0.000 C 
ATOM      6  C   UNL     1       3.696   2.505  19.854  0.00  0.00    +0.000 C 
ENDROOT
BRANCH   4   7
ATOM      7  C   UNL     1       5.081   4.075  16.826  0.00  0.00    +0.000 A 
ATOM      8  C   UNL     1       5.093   3.626  15.490  0.00  0.00    +0.000 A 
ATOM      9  C   UNL     1       6.002   4.107  14.548  0.00  0.00    +0.000 A 
ATOM     10  C   UNL     1       6.923   5.075  14.925  0.00  0.00    +0.000 A 
ATOM     11  C   UNL     1       6.939   5.563  16.233  0.00  0.00    +0.000 A 
ATOM     12  C   UNL     1       6.037   5.051  17.188  0.00  0.00    +0.000 A 
ATOM     13  O   UNL     1       6.075   5.462  18.507  0.00  0.00    +0.000 OA
ATOM     14  C   UNL     1       7.294   6.140  18.825  0.00  0.00    +0.000 C 
ATOM     15  C   UNL     1       7.606   7.177  17.766  0.00  0.00    +0.000 C 
ATOM     16  O   UNL     1       7.871   6.534  16.521  0.00  0.00    +0.000 OA
BRANCH  10  17
ATOM     17  O   UNL     1       7.808   5.564  14.005  0.00  0.00    +0.000 OA
ATOM     18  H   UNL     1       7.329   6.121  13.373  0.00  0.00    +0.000 HD
ENDBRANCH  10  17
ENDBRANCH   4   7
BRANCH   1  19
ATOM     19  C   UNL     1       1.307   2.991  19.952  0.00  0.00    +0.000 C 
BRANCH  19  20
ATOM     20  C   UNL     1       1.892   4.173  20.745  0.00  0.00    +0.000 C 
BRANCH  20  21
ATOM     21  C   UNL     1       1.264   5.533  20.421  0.00  0.00    +0.000 C 
BRANCH  21  22
ATOM     22  C   UNL     1       2.181   6.682  20.822  0.00  0.00    +0.000 C 
BRANCH  22  23
ATOM     23  O   UNL     1       1.911   7.827  20.013  0.00  0.00    +0.000 OA
BRANCH  23  30
ATOM     24  C   UNL     1      -1.159  11.696  19.889  0.00  0.00    +0.000 A 
ATOM     25  C   UNL     1      -1.734  12.273  21.036  0.00  0.00    +0.000 A 
ATOM     26  N   UNL     1      -1.358  11.672  22.164  0.00  0.00    +0.000 NA
ATOM     27  N   UNL     1      -0.526  10.677  21.768  0.00  0.00    +0.000 N 
ATOM     28  C   UNL     1       0.116   9.749  22.582  0.00  0.00    +0.000 A 
ATOM     29  C   UNL     1       0.913   8.811  22.044  0.00  0.00    +0.000 A 
ATOM     30  C   UNL     1       1.110   8.793  20.595  0.00  0.00    +0.000 A 
ATOM     31  C   UNL     1       0.476   9.680  19.805  0.00  0.00    +0.000 A 
ATOM     32  C   UNL     1      -0.377  10.671  20.378  0.00  0.00    +0.000 A 
BRANCH  24  34
ATOM     33  O   UNL     1      -0.771  13.030  17.998  0.00  0.00    +0.000 OA
ATOM     34  C   UNL     1      -1.347  12.080  18.514  0.00  0.00    +0.000 C 
ENDBRANCH  24  34
ENDBRANCH  23  30
ENDBRANCH  22  23
ENDBRANCH  21  22
ENDBRANCH  20  21
ENDBRANCH  19  20
ENDBRANCH   1  19
TORSDOF 9
ENDMDL
MODEL 3
REMARK VINA RESULT:      -8.0      5.541      8.305
REMARK  Name = 
REMARK  9 active torsions:
REMARK  status: ('A' for Active; 'I' for Inactive)
REMARK    1  A    between atoms: C_2  and  C_3
REMARK    2  A    between atoms: C_9  and  O_10
REMARK    3  A    between atoms: O_10  and  C_11
REMARK    4  A    between atoms: C_11  and  C_12
REMARK    5  A    between atoms: C_12  and  C_13
REMARK    6  A    between atoms: C_13  and  C_14
REMARK    7  A    between atoms: C_14  and  N_15
REMARK    8  A    between atoms: N_18  and  C_19
REMARK    9  A    between atoms: C_22  and  O_23
REMARK                            x       y       z     vdW  Elec       q    Type
REMARK                         _______ _______ _______ _____ _____    ______ ____
ROOT
ATOM      1  N   UNL     1       7.377   6.801  16.844  0.00  0.00    +0.000 NA
ATOM      2  C   UNL     1       7.457   5.615  17.740  0.00  0.00    +0.000 C 
ATOM      3  C   UNL     1       6.191   5.343  18.595  0.00  0.00    +0.000 C 
ATOM      4  N   UNL     1       5.033   5.259  17.701  0.00  0.00    +0.000 N 
ATOM      5  C   UNL     1       4.847   6.415  16.814  0.00  0.00    +0.000 C 
ATOM      6  C   UNL     1       6.149   6.667  16.018  0.00  0.00    +0.000 C 
ENDROOT
BRANCH   4   7
ATOM      7  C   UNL     1       3.981   4.387  17.928  0.00  0.00    +0.000 A 
ATOM      8  C   UNL     1       3.879   3.254  17.095  0.00  0.00    +0.000 A 
ATOM      9  C   UNL     1       2.883   2.291  17.262  0.00  0.00    +0.000 A 
ATOM     10  C   UNL     1       1.962   2.436  18.290  0.00  0.00    +0.000 A 
ATOM     11  C   UNL     1       2.033   3.533  19.152  0.00  0.00    +0.000 A 
ATOM     12  C   UNL     1       3.024   4.518  18.960  0.00  0.00    +0.000 A 
ATOM     13  O   UNL     1       3.076   5.649  19.752  0.00  0.00    +0.000 OA
ATOM     14  C   UNL     1       1.864   5.851  20.484  0.00  0.00    +0.000 C 
ATOM     15  C   UNL     1       1.434   4.560  21.148  0.00  0.00    +0.000 C 
ATOM     16  O   UNL     1       1.095   3.594  20.157  0.00  0.00    +0.000 OA
BRANCH  10  17
ATOM     17  O   UNL     1       0.992   1.491  18.471  0.00  0.00    +0.000 OA
ATOM     18  H   UNL     1       0.294   1.626  17.812  0.00  0.00    +0.000 HD
ENDBRANCH  10  17
ENDBRANCH   4   7
BRANCH   1  19
ATOM     19  C   UNL     1       7.379   8.064  17.595  0.00  0.00    +0.000 C 
BRANCH  19  20
ATOM     20  C   UNL     1       8.704   8.327  18.334  0.00  0.00    +0.000 C 
BRANCH  20  21
ATOM     21  C   UNL     1       8.797   9.700  19.009  0.00  0.00    +0.000 C 
BRANCH  21  22
ATOM     22  C   UNL     1       8.888  10.822  17.981  0.00  0.00    +0.000 C 
BRANCH  22  23
ATOM     23  O   UNL     1      10.256  11.102  17.684  0.00  0.00    +0.000 OA
BRANCH  23  30
ATOM     24  C   UNL     1       9.230  15.931  17.850  0.00  0.00    +0.000 A 
ATOM     25  C   UNL     1      10.196  16.941  17.683  0.00  0.00    +0.000 A 
ATOM     26  N   UNL     1      11.419  16.458  17.468  0.00  0.00    +0.000 NA
ATOM     27  N   UNL     1      11.272  15.111  17.495  0.00  0.00    +0.000 N 
ATOM     28  C   UNL     1      12.272  14.157  17.339  0.00  0.00    +0.000 A 
ATOM     29  C   UNL     1      11.976  12.848  17.396  0.00  0.00    +0.000 A 
ATOM     30  C   UNL     1      10.586  12.442  17.604  0.00  0.00    +0.000 A 
ATOM     31  C   UNL     1       9.620  13.366  17.773  0.00  0.00    +0.000 A 
ATOM     32  C   UNL     1       9.939  14.756  17.720  0.00  0.00    +0.000 A 
BRANCH  24  34
ATOM     33  O   UNL     1       7.004  15.192  17.924  0.00  0.00    +0.000 OA
ATOM     34  C   UNL     1       7.821  16.086  18.106  0.00  0.00    +0.000 C 
ENDBRANCH  24  34
ENDBRANCH  23  30
ENDBRANCH  22  23
ENDBRANCH  21  22
ENDBRANCH  20  21
ENDBRANCH  19  20
ENDBRANCH   1  19
TORSDOF 9
ENDMDL
MODEL 4
REMARK VINA RESULT:      -7.9      0.937      1.100
REMARK  Name = 
REMARK  9 active torsions:
REMARK  status: ('A' for Active; 'I' for Inactive)
REMARK    1  A    between atoms: C_2  and  C_3
REMARK    2  A    between atoms: C_9  and  O_10
REMARK    3  A    between atoms: O_10  and  C_11
REMARK    4  A    between atoms: C_11  and  C_12
REMARK    5  A    between atoms: C_12  and  C_13
REMARK    6  A    between atoms: C_13  and  C_14
REMARK    7  A    between atoms: C_14  and  N_15
REMARK    8  A    between atoms: N_18  and  C_19
REMARK    9  A    between atoms: C_22  and  O_23
REMARK                            x       y       z     vdW  Elec       q    Type
REMARK                         _______ _______ _______ _____ _____    ______ ____
ROOT
ATOM      1  N   UNL     1       2.762   2.004  19.761  0.00  0.00    +0.000 NA
ATOM      2  C   UNL     1       2.775   1.693  18.305  0.00  0.00    +0.000 C 
ATOM      3  C   UNL     1       3.077   2.898  17.373  0.00  0.00    +0.000 C 
ATOM      4  N   UNL     1       4.338   3.512  17.798  0.00  0.00    +0.000 N 
ATOM      5  C   UNL     1       4.395   3.899  19.213  0.00  0.00    +0.000 C 
ATOM      6  C   UNL     1       4.045   2.676  20.095  0.00  0.00    +0.000 C 
ENDROOT
BRANCH   4   7
ATOM      7  C   UNL     1       5.240   4.054  16.897  0.00  0.00    +0.000 A 
ATOM      8  C   UNL     1       5.218   3.566  15.574  0.00  0.00    +0.000 A 
ATOM      9  C   UNL     1       6.055   4.068  14.578  0.00  0.00    +0.000 A 
ATOM     10  C   UNL     1       6.937   5.096  14.885  0.00  0.00    +0.000 A 
ATOM     11  C   UNL     1       6.984   5.623  16.177  0.00  0.00    +0.000 A 
ATOM     12  C   UNL     1       6.156   5.091  17.188  0.00  0.00    +0.000 A 
ATOM     13  O   UNL     1       6.231   5.543  18.491  0.00  0.00    +0.000 OA
ATOM     14  C   UNL     1       7.423   6.296  18.733  0.00  0.00    +0.000 C 
ATOM     15  C   UNL     1       7.629   7.316  17.633  0.00  0.00    +0.000 C 
ATOM     16  O   UNL     1       7.872   6.651  16.395  0.00  0.00    +0.000 OA
BRANCH  10  17
ATOM     17  O   UNL     1       7.750   5.604  13.912  0.00  0.00    +0.000 OA
ATOM     18  H   UNL     1       8.632   5.756  14.286  0.00  0.00    +0.000 HD
ENDBRANCH  10  17
ENDBRANCH   4   7
BRANCH   1  19
ATOM     19  C   UNL     1       1.611   2.834  20.141  0.00  0.00    +0.000 C 
BRANCH  19  20
ATOM     20  C   UNL     1       2.011   4.110  20.903  0.00  0.00    +0.000 C 
BRANCH  20  21
ATOM     21  C   UNL     1       1.183   5.351  20.549  0.00  0.00    +0.000 C 
BRANCH  21  22
ATOM     22  C   UNL     1       2.074   6.530  20.179  0.00  0.00    +0.000 C 
BRANCH  22  23
ATOM     23  O   UNL     1       1.804   7.635  21.041  0.00  0.00    +0.000 OA
BRANCH  23  30
ATOM     24  C   UNL     1      -0.290  12.109  21.012  0.00  0.00    +0.000 A 
ATOM     25  C   UNL     1      -0.522  12.855  19.842  0.00  0.00    +0.000 A 
ATOM     26  N   UNL     1      -0.124  12.225  18.737  0.00  0.00    +0.000 NA
ATOM     27  N   UNL     1       0.385  11.047  19.173  0.00  0.00    +0.000 N 
ATOM     28  C   UNL     1       0.948  10.040  18.395  0.00  0.00    +0.000 A 
ATOM     29  C   UNL     1       1.419   8.921  18.970  0.00  0.00    +0.000 A 
ATOM     30  C   UNL     1       1.312   8.769  20.421  0.00  0.00    +0.000 A 
ATOM     31  C   UNL     1       0.782   9.750  21.176  0.00  0.00    +0.000 A 
ATOM     32  C   UNL     1       0.290  10.942  20.563  0.00  0.00    +0.000 A 
BRANCH  24  34
ATOM     33  O   UNL     1      -1.082  11.711  23.185  0.00  0.00    +0.000 OA
ATOM     34  C   UNL     1      -0.583  12.481  22.372  0.00  0.00    +0.000 C 
ENDBRANCH  24  34
ENDBRANCH  23  30
ENDBRANCH  22  23
ENDBRANCH  21  22
ENDBRANCH  20  21
ENDBRANCH  19  20
ENDBRANCH   1  19
TORSDOF 9
ENDMDL
MODEL 5
REMARK VINA RESULT:      -7.9      1.191      2.162
REMARK  Name = 
REMARK  9 active torsions:
REMARK  status: ('A' for Active; 'I' for Inactive)
REMARK    1  A    between atoms: C_2  and  C_3
REMARK    2  A    between atoms: C_9  and  O_10
REMARK    3  A    between atoms: O_10  and  C_11
REMARK    4  A    between atoms: C_11  and  C_12
REMARK    5  A    between atoms: C_12  and  C_13
REMARK    6  A    between atoms: C_13  and  C_14
REMARK    7  A    between atoms: C_14  and  N_15
REMARK    8  A    between atoms: N_18  and  C_19
REMARK    9  A    between atoms: C_22  and  O_23
REMARK                            x       y       z     vdW  Elec       q    Type
REMARK                         _______ _______ _______ _____ _____    ______ ____
ROOT
ATOM      1  N   UNL     1       2.752   1.657  19.172  0.00  0.00    +0.000 NA
ATOM      2  C   UNL     1       2.909   1.998  17.731  0.00  0.00    +0.000 C 
ATOM      3  C   UNL     1       3.227   3.488  17.434  0.00  0.00    +0.000 C 
ATOM      4  N   UNL     1       4.412   3.875  18.205  0.00  0.00    +0.000 N 
ATOM      5  C   UNL     1       4.324   3.621  19.649  0.00  0.00    +0.000 C 
ATOM      6  C   UNL     1       3.963   2.135  19.889  0.00  0.00    +0.000 C 
ENDROOT
BRANCH   4   7
ATOM      7  C   UNL     1       5.361   4.758  17.716  0.00  0.00    +0.000 A 
ATOM      8  C   UNL     1       5.883   5.717  18.608  0.00  0.00    +0.000 A 
ATOM      9  C   UNL     1       6.870   6.628  18.232  0.00  0.00    +0.000 A 
ATOM     10  C   UNL     1       7.375   6.588  16.940  0.00  0.00    +0.000 A 
ATOM     11  C   UNL     1       6.902   5.645  16.026  0.00  0.00    +0.000 A 
ATOM     12  C   UNL     1       5.882   4.746  16.403  0.00  0.00    +0.000 A 
ATOM     13  O   UNL     1       5.344   3.850  15.500  0.00  0.00    +0.000 OA
ATOM     14  C   UNL     1       5.670   4.184  14.148  0.00  0.00    +0.000 C 
ATOM     15  C   UNL     1       7.149   4.486  14.027  0.00  0.00    +0.000 C 
ATOM     16  O   UNL     1       7.467   5.660  14.771  0.00  0.00    +0.000 OA
BRANCH  10  17
ATOM     17  O   UNL     1       8.353   7.466  16.567  0.00  0.00    +0.000 OA
ATOM     18  H   UNL     1       9.031   6.988  16.065  0.00  0.00    +0.000 HD
ENDBRANCH  10  17
ENDBRANCH   4   7
BRANCH   1  19
ATOM     19  C   UNL     1       1.529   2.233  19.749  0.00  0.00    +0.000 C 
BRANCH  19  20
ATOM     20  C   UNL     1       1.811   3.300  20.822  0.00  0.00    +0.000 C 
BRANCH  20  21
ATOM     21  C   UNL     1       1.139   4.654  20.568  0.00  0.00    +0.000 C 
BRANCH  21  22
ATOM     22  C   UNL     1       2.128   5.804  20.716  0.00  0.00    +0.000 C 
BRANCH  22  23
ATOM     23  O   UNL     1       2.363   6.411  19.446  0.00  0.00    +0.000 OA
BRANCH  23  30
ATOM     24  C   UNL     1       0.305  10.573  21.133  0.00  0.00    +0.000 A 
ATOM     25  C   UNL     1       0.202  11.755  20.377  0.00  0.00    +0.000 A 
ATOM     26  N   UNL     1       0.710  11.634  19.152  0.00  0.00    +0.000 NA
ATOM     27  N   UNL     1       1.165  10.358  19.088  0.00  0.00    +0.000 N 
ATOM     28  C   UNL     1       1.802   9.750  18.012  0.00  0.00    +0.000 A 
ATOM     29  C   UNL     1       2.204   8.471  18.096  0.00  0.00    +0.000 A 
ATOM     30  C   UNL     1       1.944   7.724  19.325  0.00  0.00    +0.000 A 
ATOM     31  C   UNL     1       1.342   8.317  20.375  0.00  0.00    +0.000 A 
ATOM     32  C   UNL     1       0.923   9.679  20.285  0.00  0.00    +0.000 A 
BRANCH  24  34
ATOM     33  O   UNL     1      -0.836   9.403  22.817  0.00  0.00    +0.000 OA
ATOM     34  C   UNL     1      -0.128  10.347  22.488  0.00  0.00    +0.000 C 
ENDBRANCH  24  34
ENDBRANCH  23  30
ENDBRANCH  22  23
ENDBRANCH  21  22
ENDBRANCH  20  21
ENDBRANCH  19  20
ENDBRANCH   1  19
TORSDOF 9
ENDMDL
MODEL 6
REMARK VINA RESULT:      -7.8      1.884      8.402
REMARK  Name = 
REMARK  9 active torsions:
REMARK  status: ('A' for Active; 'I' for Inactive)
REMARK    1  A    between atoms: C_2  and  C_3
REMARK    2  A    between atoms: C_9  and  O_10
REMARK    3  A    between atoms: O_10  and  C_11
REMARK    4  A    between atoms: C_11  and  C_12
REMARK    5  A    between atoms: C_12  and  C_13
REMARK    6  A    between atoms: C_13  and  C_14
REMARK    7  A    between atoms: C_14  and  N_15
REMARK    8  A    between atoms: N_18  and  C_19
REMARK    9  A    between atoms: C_22  and  O_23
REMARK                            x       y       z     vdW  Elec       q    Type
REMARK                         _______ _______ _______ _____ _____    ______ ____
ROOT
ATOM      1  N   UNL     1       3.053   7.015  17.846  0.00  0.00    +0.000 NA
ATOM      2  C   UNL     1       2.282   6.419  18.972  0.00  0.00    +0.000 C 
ATOM      3  C   UNL     1       2.139   7.320  20.228  0.00  0.00    +0.000 C 
ATOM      4  N   UNL     1       1.573   8.607  19.817  0.00  0.00    +0.000 N 
ATOM      5  C   UNL     1       2.302   9.293  18.742  0.00  0.00    +0.000 C 
ATOM      6  C   UNL     1       2.453   8.339  17.534  0.00  0.00    +0.000 C 
ENDROOT
BRANCH   4   7
ATOM      7  C   UNL     1       0.687   9.317  20.611  0.00  0.00    +0.000 A 
ATOM      8  C   UNL     1       0.733   9.093  22.003  0.00  0.00    +0.000 A 
ATOM      9  C   UNL     1      -0.085   9.783  22.898  0.00  0.00    +0.000 A 
ATOM     10  C   UNL     1      -0.971  10.736  22.414  0.00  0.00    +0.000 A 
ATOM     11  C   UNL     1      -1.040  11.005  21.045  0.00  0.00    +0.000 A 
ATOM     12  C   UNL     1      -0.231  10.283  20.142  0.00  0.00    +0.000 A 
ATOM     13  O   UNL     1      -0.329  10.476  18.778  0.00  0.00    +0.000 OA
ATOM     14  C   UNL     1      -1.524  11.174  18.416  0.00  0.00    +0.000 C 
ATOM     15  C   UNL     1      -1.708  12.388  19.302  0.00  0.00    +0.000 C 
ATOM     16  O   UNL     1      -1.930  11.976  20.649  0.00  0.00    +0.000 OA
BRANCH  10  17
ATOM     17  O   UNL     1      -1.766  11.427  23.284  0.00  0.00    +0.000 OA
ATOM     18  H   UNL     1      -1.523  11.186  24.191  0.00  0.00    +0.000 HD
ENDBRANCH  10  17
ENDBRANCH   4   7
BRANCH   1  19
ATOM     19  C   UNL     1       4.483   7.138  18.157  0.00  0.00    +0.000 C 
BRANCH  19  20
ATOM     20  C   UNL     1       5.392   6.841  16.951  0.00  0.00    +0.000 C 
BRANCH  20  21
ATOM     21  C   UNL     1       6.713   6.147  17.302  0.00  0.00    +0.000 C 
BRANCH  21  22
ATOM     22  C   UNL     1       6.612   4.636  17.133  0.00  0.00    +0.000 C 
BRANCH  22  23
ATOM     23  O   UNL     1       6.098   4.046  18.327  0.00  0.00    +0.000 OA
BRANCH  23  30
ATOM     24  C   UNL     1       1.839   2.532  20.322  0.00  0.00    +0.000 A 
ATOM     25  C   UNL     1       0.677   2.269  19.574  0.00  0.00    +0.000 A 
ATOM     26  N   UNL     1       0.846   2.463  18.266  0.00  0.00    +0.000 NA
ATOM     27  N   UNL     1       2.133   2.866  18.138  0.00  0.00    +0.000 N 
ATOM     28  C   UNL     1       2.788   3.213  16.960  0.00  0.00    +0.000 A 
ATOM     29  C   UNL     1       4.074   3.600  16.987  0.00  0.00    +0.000 A 
ATOM     30  C   UNL     1       4.779   3.633  18.267  0.00  0.00    +0.000 A 
ATOM     31  C   UNL     1       4.141   3.315  19.410  0.00  0.00    +0.000 A 
ATOM     32  C   UNL     1       2.772   2.911  19.380  0.00  0.00    +0.000 A 
BRANCH  24  34
ATOM     33  O   UNL     1       2.317   3.394  22.452  0.00  0.00    +0.000 OA
ATOM     34  C   UNL     1       2.016   2.437  21.748  0.00  0.00    +0.000 C 
ENDBRANCH  24  34
ENDBRANCH  23  30
ENDBRANCH  22  23
ENDBRANCH  21  22
ENDBRANCH  20  21
ENDBRANCH  19  20
ENDBRANCH   1  19
TORSDOF 9
ENDMDL
MODEL 7
REMARK VINA RESULT:      -7.8      5.304      7.989
REMARK  Name = 
REMARK  9 active torsions:
REMARK  status: ('A' for Active; 'I' for Inactive)
REMARK    1  A    between atoms: C_2  and  C_3
REMARK    2  A    between atoms: C_9  and  O_10
REMARK    3  A    between atoms: O_10  and  C_11
REMARK    4  A    between atoms: C_11  and  C_12
REMARK    5  A    between atoms: C_12  and  C_13
REMARK    6  A    between atoms: C_13  and  C_14
REMARK    7  A    between atoms: C_14  and  N_15
REMARK    8  A    between atoms: N_18  and  C_19
REMARK    9  A    between atoms: C_22  and  O_23
REMARK                            x       y       z     vdW  Elec       q    Type
REMARK                         _______ _______ _______ _____ _____    ______ ____
ROOT
ATOM      1  N   UNL     1       7.441   5.904  16.346  0.00  0.00    +0.000 NA
ATOM      2  C   UNL     1       7.367   4.901  17.443  0.00  0.00    +0.000 C 
ATOM      3  C   UNL     1       6.102   4.992  18.339  0.00  0.00    +0.000 C 
ATOM      4  N   UNL     1       4.917   4.930  17.480  0.00  0.00    +0.000 N 
ATOM      5  C   UNL     1       4.882   5.921  16.396  0.00  0.00    +0.000 C 
ATOM      6  C   UNL     1       6.181   5.817  15.563  0.00  0.00    +0.000 C 
ENDROOT
BRANCH   4   7
ATOM      7  C   UNL     1       3.751   4.290  17.867  0.00  0.00    +0.000 A 
ATOM      8  C   UNL     1       3.446   3.057  17.254  0.00  0.00    +0.000 A 
ATOM      9  C   UNL     1       2.320   2.309  17.598  0.00  0.00    +0.000 A 
ATOM     10  C   UNL     1       1.469   2.779  18.589  0.00  0.00    +0.000 A 
ATOM     11  C   UNL     1       1.738   3.986  19.237  0.00  0.00    +0.000 A 
ATOM     12  C   UNL     1       2.862   4.752  18.864  0.00  0.00    +0.000 A 
ATOM     13  O   UNL     1       3.115   5.984  19.437  0.00  0.00    +0.000 OA
ATOM     14  C   UNL     1       1.974   6.502  20.127  0.00  0.00    +0.000 C 
ATOM     15  C   UNL     1       1.373   5.434  21.017  0.00  0.00    +0.000 C 
ATOM     16  O   UNL     1       0.855   4.373  20.219  0.00  0.00    +0.000 OA
BRANCH  10  17
ATOM     17  O   UNL     1       0.371   2.046  18.943  0.00  0.00    +0.000 OA
ATOM     18  H   UNL     1       0.255   1.325  18.306  0.00  0.00    +0.000 HD
ENDBRANCH  10  17
ENDBRANCH   4   7
BRANCH   1  19
ATOM     19  C   UNL     1       7.662   7.266  16.851  0.00  0.00    +0.000 C 
BRANCH  19  20
ATOM     20  C   UNL     1       7.944   7.311  18.364  0.00  0.00    +0.000 C 
BRANCH  20  21
ATOM     21  C   UNL     1       8.798   8.500  18.819  0.00  0.00    +0.000 C 
BRANCH  21  22
ATOM     22  C   UNL     1       8.473   9.757  18.022  0.00  0.00    +0.000 C 
BRANCH  22  23
ATOM     23  O   UNL     1       8.603  10.909  18.855  0.00  0.00    +0.000 OA
BRANCH  23  30
ATOM     24  C   UNL     1       9.480  15.648  17.767  0.00  0.00    +0.000 A 
ATOM     25  C   UNL     1      10.663  16.102  17.154  0.00  0.00    +0.000 A 
ATOM     26  N   UNL     1      11.521  15.118  16.889  0.00  0.00    +0.000 NA
ATOM     27  N   UNL     1      10.910  13.993  17.334  0.00  0.00    +0.000 N 
ATOM     28  C   UNL     1      11.415  12.697  17.301  0.00  0.00    +0.000 A 
ATOM     29  C   UNL     1      10.692  11.674  17.787  0.00  0.00    +0.000 A 
ATOM     30  C   UNL     1       9.361  11.941  18.332  0.00  0.00    +0.000 A 
ATOM     31  C   UNL     1       8.879  13.198  18.380  0.00  0.00    +0.000 A 
ATOM     32  C   UNL     1       9.652  14.284  17.871  0.00  0.00    +0.000 A 
BRANCH  24  34
ATOM     33  O   UNL     1       8.390  17.643  18.345  0.00  0.00    +0.000 OA
ATOM     34  C   UNL     1       8.349  16.428  18.196  0.00  0.00    +0.000 C 
ENDBRANCH  24  34
ENDBRANCH  23  30
ENDBRANCH  22  23
ENDBRANCH  21  22
ENDBRANCH  20  21
ENDBRANCH  19  20
ENDBRANCH   1  19
TORSDOF 9
ENDMDL
MODEL 8
REMARK VINA RESULT:      -7.8      1.459      1.859
REMARK  Name = 
REMARK  9 active torsions:
REMARK  status: ('A' for Active; 'I' for Inactive)
REMARK    1  A    between atoms: C_2  and  C_3
REMARK    2  A    between atoms: C_9  and  O_10
REMARK    3  A    between atoms: O_10  and  C_11
REMARK    4  A    between atoms: C_11  and  C_12
REMARK    5  A    between atoms: C_12  and  C_13
REMARK    6  A    between atoms: C_13  and  C_14
REMARK    7  A    between atoms: C_14  and  N_15
REMARK    8  A    between atoms: N_18  and  C_19
REMARK    9  A    between atoms: C_22  and  O_23
REMARK                            x       y       z     vdW  Elec       q    Type
REMARK                         _______ _______ _______ _____ _____    ______ ____
ROOT
ATOM      1  N   UNL     1       1.668   3.014  19.156  0.00  0.00    +0.000 NA
ATOM      2  C   UNL     1       1.539   4.000  18.047  0.00  0.00    +0.000 C 
ATOM      3  C   UNL     1       2.777   4.909  17.822  0.00  0.00    +0.000 C 
ATOM      4  N   UNL     1       3.956   4.056  17.643  0.00  0.00    +0.000 N 
ATOM      5  C   UNL     1       4.190   3.085  18.719  0.00  0.00    +0.000 C 
ATOM      6  C   UNL     1       2.914   2.235  18.931  0.00  0.00    +0.000 C 
ENDROOT
BRANCH   4   7
ATOM      7  C   UNL     1       4.983   4.382  16.772  0.00  0.00    +0.000 A 
ATOM      8  C   UNL     1       4.999   3.749  15.513  0.00  0.00    +0.000 A 
ATOM      9  C   UNL     1       5.963   4.032  14.546  0.00  0.00    +0.000 A 
ATOM     10  C   UNL     1       6.939   4.981  14.817  0.00  0.00    +0.000 A 
ATOM     11  C   UNL     1       6.955   5.647  16.044  0.00  0.00    +0.000 A 
ATOM     12  C   UNL     1       5.995   5.335  17.029  0.00  0.00    +0.000 A 
ATOM     13  O   UNL     1       6.028   5.925  18.278  0.00  0.00    +0.000 OA
ATOM     14  C   UNL     1       7.283   6.560  18.541  0.00  0.00    +0.000 C 
ATOM     15  C   UNL     1       7.694   7.414  17.360  0.00  0.00    +0.000 C 
ATOM     16  O   UNL     1       7.945   6.586  16.227  0.00  0.00    +0.000 OA
BRANCH  10  17
ATOM     17  O   UNL     1       7.879   5.276  13.870  0.00  0.00    +0.000 OA
ATOM     18  H   UNL     1       7.452   5.744  13.136  0.00  0.00    +0.000 HD
ENDBRANCH  10  17
ENDBRANCH   4   7
BRANCH   1  19
ATOM     19  C   UNL     1       1.673   3.660  20.475  0.00  0.00    +0.000 C 
BRANCH  19  20
ATOM     20  C   UNL     1       0.962   5.025  20.483  0.00  0.00    +0.000 C 
BRANCH  20  21
ATOM     21  C   UNL     1       1.828   6.192  20.973  0.00  0.00    +0.000 C 
BRANCH  21  22
ATOM     22  C   UNL     1       1.643   7.428  20.100  0.00  0.00    +0.000 C 
BRANCH  22  23
ATOM     23  O   UNL     1       1.374   8.567  20.918  0.00  0.00    +0.000 OA
BRANCH  23  30
ATOM     24  C   UNL     1       0.212  13.350  20.497  0.00  0.00    +0.000 A 
ATOM     25  C   UNL     1      -0.417  13.903  19.367  0.00  0.00    +0.000 A 
ATOM     26  N   UNL     1      -0.675  13.000  18.421  0.00  0.00    +0.000 NA
ATOM     27  N   UNL     1      -0.209  11.830  18.921  0.00  0.00    +0.000 N 
ATOM     28  C   UNL     1      -0.228  10.587  18.297  0.00  0.00    +0.000 A 
ATOM     29  C   UNL     1       0.278   9.508  18.918  0.00  0.00    +0.000 A 
ATOM     30  C   UNL     1       0.830   9.657  20.264  0.00  0.00    +0.000 A 
ATOM     31  C   UNL     1       0.865  10.864  20.861  0.00  0.00    +0.000 A 
ATOM     32  C   UNL     1       0.334  12.009  20.197  0.00  0.00    +0.000 A 
BRANCH  24  34
ATOM     33  O   UNL     1       1.814  14.107  22.035  0.00  0.00    +0.000 OA
ATOM     34  C   UNL     1       0.640  14.027  21.693  0.00  0.00    +0.000 C 
ENDBRANCH  24  34
ENDBRANCH  23  30
ENDBRANCH  22  23
ENDBRANCH  21  22
ENDBRANCH  20  21
ENDBRANCH  19  20
ENDBRANCH   1  19
TORSDOF 9
ENDMDL
MODEL 9
REMARK VINA RESULT:      -7.7      2.224      8.529
REMARK  Name = 
REMARK  9 active torsions:
REMARK  status: ('A' for Active; 'I' for Inactive)
REMARK    1  A    between atoms: C_2  and  C_3
REMARK    2  A    between atoms: C_9  and  O_10
REMARK    3  A    between atoms: O_10  and  C_11
REMARK    4  A    between atoms: C_11  and  C_12
REMARK    5  A    between atoms: C_12  and  C_13
REMARK    6  A    between atoms: C_13  and  C_14
REMARK    7  A    between atoms: C_14  and  N_15
REMARK    8  A    between atoms: N_18  and  C_19
REMARK    9  A    between atoms: C_22  and  O_23
REMARK                            x       y       z     vdW  Elec       q    Type
REMARK                         _______ _______ _______ _____ _____    ______ ____
ROOT
ATOM      1  N   UNL     1       2.595   7.184  19.285  0.00  0.00    +0.000 NA
ATOM      2  C   UNL     1       2.608   8.156  18.158  0.00  0.00    +0.000 C 
ATOM      3  C   UNL     1       1.281   8.931  17.936  0.00  0.00    +0.000 C 
ATOM      4  N   UNL     1       0.904   9.580  19.195  0.00  0.00    +0.000 N 
ATOM      5  C   UNL     1       0.817   8.684  20.355  0.00  0.00    +0.000 C 
ATOM      6  C   UNL     1       2.146   7.906  20.505  0.00  0.00    +0.000 C 
ENDROOT
BRANCH   4   7
ATOM      7  C   UNL     1       0.294  10.824  19.236  0.00  0.00    +0.000 A 
ATOM      8  C   UNL     1      -1.086  10.867  19.522  0.00  0.00    +0.000 A 
ATOM      9  C   UNL     1      -1.790  12.066  19.627  0.00  0.00    +0.000 A 
ATOM     10  C   UNL     1      -1.115  13.268  19.460  0.00  0.00    +0.000 A 
ATOM     11  C   UNL     1       0.255  13.277  19.193  0.00  0.00    +0.000 A 
ATOM     12  C   UNL     1       0.956  12.060  19.059  0.00  0.00    +0.000 A 
ATOM     13  O   UNL     1       2.296  12.035  18.724  0.00  0.00    +0.000 OA
ATOM     14  C   UNL     1       2.746  13.291  18.208  0.00  0.00    +0.000 C 
ATOM     15  C   UNL     1       2.275  14.421  19.099  0.00  0.00    +0.000 C 
ATOM     16  O   UNL     1       0.853  14.509  19.060  0.00  0.00    +0.000 OA
BRANCH  10  17
ATOM     17  O   UNL     1      -1.794  14.448  19.577  0.00  0.00    +0.000 OA
ATOM     18  H   UNL     1      -1.165  15.153  19.797  0.00  0.00    +0.000 HD
ENDBRANCH  10  17
ENDBRANCH   4   7
BRANCH   1  19
ATOM     19  C   UNL     1       1.738   6.023  19.008  0.00  0.00    +0.000 C 
BRANCH  19  20
ATOM     20  C   UNL     1       1.450   5.171  20.257  0.00  0.00    +0.000 C 
BRANCH  20  21
ATOM     21  C   UNL     1       1.248   3.677  19.978  0.00  0.00    +0.000 C 
BRANCH  21  22
ATOM     22  C   UNL     1       1.605   3.325  18.540  0.00  0.00    +0.000 C 
BRANCH  22  23
ATOM     23  O   UNL     1       2.798   2.541  18.512  0.00  0.00    +0.000 OA
BRANCH  23  30
ATOM     24  C   UNL     1       6.021   4.467  15.301  0.00  0.00    +0.000 A 
ATOM     25  C   UNL     1       7.168   5.186  15.683  0.00  0.00    +0.000 A 
ATOM     26  N   UNL     1       7.301   5.288  17.005  0.00  0.00    +0.000 NA
ATOM     27  N   UNL     1       6.228   4.634  17.514  0.00  0.00    +0.000 N 
ATOM     28  C   UNL     1       5.905   4.477  18.858  0.00  0.00    +0.000 A 
ATOM     29  C   UNL     1       4.798   3.804  19.215  0.00  0.00    +0.000 A 
ATOM     30  C   UNL     1       3.952   3.224  18.173  0.00  0.00    +0.000 A 
ATOM     31  C   UNL     1       4.256   3.390  16.871  0.00  0.00    +0.000 A 
ATOM     32  C   UNL     1       5.428   4.113  16.494  0.00  0.00    +0.000 A 
BRANCH  24  34
ATOM     33  O   UNL     1       6.178   3.454  13.190  0.00  0.00    +0.000 OA
ATOM     34  C   UNL     1       5.562   4.174  13.968  0.00  0.00    +0.000 C 
ENDBRANCH  24  34
ENDBRANCH  23  30
ENDBRANCH  22  23
ENDBRANCH  21  22
ENDBRANCH  20  21
ENDBRANCH  19  20
ENDBRANCH   1  19
TORSDOF 9
ENDMDL
