MODEL 1
REMARK VINA RESULT:      -7.9      0.000      0.000
REMARK  Name = 
REMARK  10 active torsions:
REMARK  status: ('A' for Active; 'I' for Inactive)
REMARK    1  A    between atoms: C_1  and  C_2
REMARK    2  A    between atoms: C_2  and  C_3
REMARK    3  A    between atoms: C_3  and  S_4
REMARK    4  A    between atoms: S_4  and  N_7
REMARK    5  A    between atoms: C_10  and  C_11
REMARK    6  A    between atoms: C_16  and  C_17
REMARK    7  A    between atoms: C_20  and  O_21
REMARK    8  A    between atoms: O_21  and  C_22
REMARK    9  A    between atoms: C_23  and  O_24
REMARK   10  A    between atoms: O_24  and  C_25
REMARK                            x       y       z     vdW  Elec       q    Type
REMARK                         _______ _______ _______ _____ _____    ______ ____
ROOT
ATOM      1  C   UNL     1       1.396   8.799  19.291  0.00  0.00    +0.000 A 
ATOM      2  C   UNL     1       0.727   9.554  18.222  0.00  0.00    +0.000 A 
ATOM      3  C   UNL     1      -0.151  10.543  18.473  0.00  0.00    +0.000 A 
ATOM      4  C   UNL     1      -0.444  10.905  19.813  0.00  0.00    +0.000 A 
ATOM      5  N   UNL     1      -1.247  11.818  20.314  0.00  0.00    +0.000 NA
ATOM      6  C   UNL     1      -1.098  11.734  21.683  0.00  0.00    +0.000 A 
ATOM      7  C   UNL     1      -0.208  10.728  22.006  0.00  0.00    +0.000 A 
ATOM      8  N   UNL     1       0.210  10.199  20.809  0.00  0.00    +0.000 N 
ATOM      9  C   UNL     1       1.111   9.163  20.562  0.00  0.00    +0.000 A 
ENDROOT
BRANCH   1  13
ATOM     10  N   UNL     1       4.221   5.561  18.637  0.00  0.00    +0.000 NA
ATOM     11  C   UNL     1       4.038   6.575  17.560  0.00  0.00    +0.000 C 
ATOM     12  C   UNL     1       3.057   7.650  17.909  0.00  0.00    +0.000 C 
ATOM     13  C   UNL     1       2.306   7.689  19.022  0.00  0.00    +0.000 C 
ATOM     14  C   UNL     1       2.424   6.588  20.042  0.00  0.00    +0.000 C 
ATOM     15  C   UNL     1       2.983   5.297  19.429  0.00  0.00    +0.000 C 
BRANCH  10  16
ATOM     16  S   UNL     1       4.986   4.155  18.017  0.00  0.00    +0.000 S 
ATOM     17  O   UNL     1       4.155   3.021  18.362  0.00  0.00    +0.000 OA
ATOM     18  O   UNL     1       6.381   4.204  18.405  0.00  0.00    +0.000 OA
BRANCH  16  19
ATOM     19  C   UNL     1       4.868   4.373  16.236  0.00  0.00    +0.000 C 
BRANCH  19  21
ATOM     20  C   UNL     1       6.181   3.962  14.102  0.00  0.00    +0.000 C 
ATOM     21  C   UNL     1       6.246   4.166  15.604  0.00  0.00    +0.000 C 
ENDBRANCH  19  21
ENDBRANCH  16  19
ENDBRANCH  10  16
ENDBRANCH   1  13
BRANCH   6  22
ATOM     22  C   UNL     1      -1.775  12.637  22.608  0.00  0.00    +0.000 A 
ATOM     23  C   UNL     1      -1.108  13.765  23.091  0.00  0.00    +0.000 A 
ATOM     24  C   UNL     1      -1.724  14.608  24.019  0.00  0.00    +0.000 A 
ATOM     25  C   UNL     1      -3.017  14.345  24.494  0.00  0.00    +0.000 A 
ATOM     26  C   UNL     1      -3.705  13.216  24.016  0.00  0.00    +0.000 A 
ATOM     27  C   UNL     1      -3.078  12.387  23.068  0.00  0.00    +0.000 A 
BRANCH  25  28
ATOM     28  O   UNL     1      -3.431  15.283  25.405  0.00  0.00    +0.000 OA
ATOM     29  C   UNL     1      -4.145  16.420  24.947  0.00  0.00    +0.000 C 
ENDBRANCH  25  28
BRANCH  26  30
ATOM     30  O   UNL     1      -4.959  12.959  24.508  0.00  0.00    +0.000 OA
ATOM     31  C   UNL     1      -6.050  12.922  23.599  0.00  0.00    +0.000 C 
ENDBRANCH  26  30
ENDBRANCH   6  22
TORSDOF 7
ENDMDL
MODEL 2
REMARK VINA RESULT:      -7.9      0.490      1.023
REMARK  Name = 
REMARK  10 active torsions:
REMARK  status: ('A' for Active; 'I' for Inactive)
REMARK    1  A    between atoms: C_1  and  C_2
REMARK    2  A    between atoms: C_2  and  C_3
REMARK    3  A    between atoms: C_3  and  S_4
REMARK    4  A    between atoms: S_4  and  N_7
REMARK    5  A    between atoms: C_10  and  C_11
REMARK    6  A    between atoms: C_16  and  C_17
REMARK    7  A    between atoms: C_20  and  O_21
REMARK    8  A    between atoms: O_21  and  C_22
REMARK    9  A    between atoms: C_23  and  O_24
REMARK   10  A    between atoms: O_24  and  C_25
REMARK                            x       y       z     vdW  Elec       q    Type
REMARK                         _______ _______ _______ _____ _____    ______ ____
ROOT
ATOM      1  C   UNL     1       1.418   8.775  19.161  0.00  0.00    +0.000 A 
ATOM      2  C   UNL     1       0.782   9.586  18.115  0.00  0.00    +0.000 A 
ATOM      3  C   UNL     1      -0.075  10.587  18.395  0.00  0.00    +0.000 A 
ATOM      4  C   UNL     1      -0.376  10.903  19.744  0.00  0.00    +0.000 A 
ATOM      5  N   UNL     1      -1.163  11.815  20.271  0.00  0.00    +0.000 NA
ATOM      6  C   UNL     1      -1.034  11.674  21.637  0.00  0.00    +0.000 A 
ATOM      7  C   UNL     1      -0.173  10.635  21.931  0.00  0.00    +0.000 A 
ATOM      8  N   UNL     1       0.248  10.143  20.719  0.00  0.00    +0.000 N 
ATOM      9  C   UNL     1       1.127   9.096  20.442  0.00  0.00    +0.000 A 
ENDROOT
BRANCH   1  13
ATOM     10  N   UNL     1       3.930   5.383  18.117  0.00  0.00    +0.000 NA
ATOM     11  C   UNL     1       3.276   5.400  19.457  0.00  0.00    +0.000 C 
ATOM     12  C   UNL     1       2.422   6.606  19.692  0.00  0.00    +0.000 C 
ATOM     13  C   UNL     1       2.305   7.654  18.859  0.00  0.00    +0.000 C 
ATOM     14  C   UNL     1       3.070   7.667  17.563  0.00  0.00    +0.000 C 
ATOM     15  C   UNL     1       4.293   6.741  17.611  0.00  0.00    +0.000 C 
BRANCH  10  16
ATOM     16  S   UNL     1       5.213   4.243  18.087  0.00  0.00    +0.000 S 
ATOM     17  O   UNL     1       4.694   3.021  17.511  0.00  0.00    +0.000 OA
ATOM     18  O   UNL     1       5.838   4.248  19.394  0.00  0.00    +0.000 OA
BRANCH  16  19
ATOM     19  C   UNL     1       6.359   4.945  16.891  0.00  0.00    +0.000 C 
BRANCH  19  21
ATOM     20  C   UNL     1       5.634   4.798  14.462  0.00  0.00    +0.000 C 
ATOM     21  C   UNL     1       6.340   4.105  15.613  0.00  0.00    +0.000 C 
ENDBRANCH  19  21
ENDBRANCH  16  19
ENDBRANCH  10  16
ENDBRANCH   1  13
BRANCH   6  22
ATOM     22  C   UNL     1      -1.701  12.557  22.589  0.00  0.00    +0.000 A 
ATOM     23  C   UNL     1      -1.037  13.687  23.071  0.00  0.00    +0.000 A 
ATOM     24  C   UNL     1      -1.642  14.510  24.024  0.00  0.00    +0.000 A 
ATOM     25  C   UNL     1      -2.920  14.225  24.525  0.00  0.00    +0.000 A 
ATOM     26  C   UNL     1      -3.604  13.093  24.048  0.00  0.00    +0.000 A 
ATOM     27  C   UNL     1      -2.989  12.284  23.076  0.00  0.00    +0.000 A 
BRANCH  25  28
ATOM     28  O   UNL     1      -3.325  15.146  25.457  0.00  0.00    +0.000 OA
ATOM     29  C   UNL     1      -3.846  16.390  25.016  0.00  0.00    +0.000 C 
ENDBRANCH  25  28
BRANCH  26  30
ATOM     30  O   UNL     1      -4.843  12.814  24.566  0.00  0.00    +0.000 OA
ATOM     31  C   UNL     1      -5.990  13.126  23.787  0.00  0.00    +0.000 C 
ENDBRANCH  26  30
ENDBRANCH   6  22
TORSDOF 7
ENDMDL
MODEL 3
REMARK VINA RESULT:      -7.9      1.190      1.667
REMARK  Name = 
REMARK  10 active torsions:
REMARK  status: ('A' for Active; 'I' for Inactive)
REMARK    1  A    between atoms: C_1  and  C_2
REMARK    2  A    between atoms: C_2  and  C_3
REMARK    3  A    between atoms: C_3  and  S_4
REMARK    4  A    between atoms: S_4  and  N_7
REMARK    5  A    between atoms: C_10  and  C_11
REMARK    6  A    between atoms: C_16  and  C_17
REMARK    7  A    between atoms: C_20  and  O_21
REMARK    8  A    between atoms: O_21  and  C_22
REMARK    9  A    between atoms: C_23  and  O_24
REMARK   10  A    between atoms: O_24  and  C_25
REMARK                            x       y       z     vdW  Elec       q    Type
REMARK                         _______ _______ _______ _____ _____    ______ ____
ROOT
ATOM      1  C   UNL     1       1.362   8.820  19.268  0.00  0.00    +0.000 A 
ATOM      2  C   UNL     1       0.692   9.580  18.204  0.00  0.00    +0.000 A 
ATOM      3  C   UNL     1      -0.191  10.564  18.462  0.00  0.00    +0.000 A 
ATOM      4  C   UNL     1      -0.490  10.912  19.803  0.00  0.00    +0.000 A 
ATOM      5  N   UNL     1      -1.298  11.817  20.311  0.00  0.00    +0.000 NA
ATOM      6  C   UNL     1      -1.153  11.722  21.679  0.00  0.00    +0.000 A 
ATOM      7  C   UNL     1      -0.258  10.718  21.996  0.00  0.00    +0.000 A 
ATOM      8  N   UNL     1       0.165  10.201  20.795  0.00  0.00    +0.000 N 
ATOM      9  C   UNL     1       1.073   9.172  20.542  0.00  0.00    +0.000 A 
ENDROOT
BRANCH   1  13
ATOM     10  N   UNL     1       3.956   5.465  18.312  0.00  0.00    +0.000 NA
ATOM     11  C   UNL     1       3.382   5.553  19.685  0.00  0.00    +0.000 C 
ATOM     12  C   UNL     1       2.490   6.738  19.887  0.00  0.00    +0.000 C 
ATOM     13  C   UNL     1       2.278   7.717  18.992  0.00  0.00    +0.000 C 
ATOM     14  C   UNL     1       2.963   7.666  17.652  0.00  0.00    +0.000 C 
ATOM     15  C   UNL     1       4.227   6.795  17.689  0.00  0.00    +0.000 C 
BRANCH  10  16
ATOM     16  S   UNL     1       5.285   4.379  18.283  0.00  0.00    +0.000 S 
ATOM     17  O   UNL     1       5.643   4.168  16.896  0.00  0.00    +0.000 OA
ATOM     18  O   UNL     1       4.961   3.263  19.149  0.00  0.00    +0.000 OA
BRANCH  16  19
ATOM     19  C   UNL     1       6.613   5.332  19.032  0.00  0.00    +0.000 C 
BRANCH  19  21
ATOM     20  C   UNL     1       7.862   7.306  18.037  0.00  0.00    +0.000 C 
ATOM     21  C   UNL     1       7.569   5.820  17.942  0.00  0.00    +0.000 C 
ENDBRANCH  19  21
ENDBRANCH  16  19
ENDBRANCH  10  16
ENDBRANCH   1  13
BRANCH   6  22
ATOM     22  C   UNL     1      -1.836  12.613  22.610  0.00  0.00    +0.000 A 
ATOM     23  C   UNL     1      -1.233  13.813  22.994  0.00  0.00    +0.000 A 
ATOM     24  C   UNL     1      -1.850  14.650  23.926  0.00  0.00    +0.000 A 
ATOM     25  C   UNL     1      -3.081  14.310  24.505  0.00  0.00    +0.000 A 
ATOM     26  C   UNL     1      -3.706  13.108  24.127  0.00  0.00    +0.000 A 
ATOM     27  C   UNL     1      -3.079  12.285  23.174  0.00  0.00    +0.000 A 
BRANCH  25  28
ATOM     28  O   UNL     1      -3.508  15.256  25.401  0.00  0.00    +0.000 OA
ATOM     29  C   UNL     1      -4.141  16.429  24.915  0.00  0.00    +0.000 C 
ENDBRANCH  25  28
BRANCH  26  30
ATOM     30  O   UNL     1      -4.897  12.778  24.720  0.00  0.00    +0.000 OA
ATOM     31  C   UNL     1      -6.087  12.868  23.948  0.00  0.00    +0.000 C 
ENDBRANCH  26  30
ENDBRANCH   6  22
TORSDOF 7
ENDMDL
MODEL 4
REMARK VINA RESULT:      -7.8      1.302      1.932
REMARK  Name = 
REMARK  10 active torsions:
REMARK  status: ('A' for Active; 'I' for Inactive)
REMARK    1  A    between atoms: C_1  and  C_2
REMARK    2  A    between atoms: C_2  and  C_3
REMARK    3  A    between atoms: C_3  and  S_4
REMARK    4  A    between atoms: S_4  and  N_7
REMARK    5  A    between atoms: C_10  and  C_11
REMARK    6  A    between atoms: C_16  and  C_17
REMARK    7  A    between atoms: C_20  and  O_21
REMARK    8  A    between atoms: O_21  and  C_22
REMARK    9  A    between atoms: C_23  and  O_24
REMARK   10  A    between atoms: O_24  and  C_25
REMARK                            x       y       z     vdW  Elec       q    Type
REMARK                         _______ _______ _______ _____ _____    ______ ____
ROOT
ATOM      1  C   UNL     1       1.528   8.798  19.299  0.00  0.00    +0.000 A 
ATOM      2  C   UNL     1       1.159   9.763  18.254  0.00  0.00    +0.000 A 
ATOM      3  C   UNL     1       0.394  10.843  18.503  0.00  0.00    +0.000 A 
ATOM      4  C   UNL     1      -0.069  11.093  19.820  0.00  0.00    +0.000 A 
ATOM      5  N   UNL     1      -0.813  12.058  20.314  0.00  0.00    +0.000 NA
ATOM      6  C   UNL     1      -0.912  11.798  21.665  0.00  0.00    +0.000 A 
ATOM      7  C   UNL     1      -0.234  10.636  21.979  0.00  0.00    +0.000 A 
ATOM      8  N   UNL     1       0.304  10.186  20.798  0.00  0.00    +0.000 N 
ATOM      9  C   UNL     1       1.085   9.056  20.550  0.00  0.00    +0.000 A 
ENDROOT
BRANCH   1  13
ATOM     10  N   UNL     1       3.725   5.173  18.332  0.00  0.00    +0.000 NA
ATOM     11  C   UNL     1       3.109   5.293  19.684  0.00  0.00    +0.000 C 
ATOM     12  C   UNL     1       2.363   6.575  19.891  0.00  0.00    +0.000 C 
ATOM     13  C   UNL     1       2.311   7.597  19.021  0.00  0.00    +0.000 C 
ATOM     14  C   UNL     1       3.041   7.498  17.708  0.00  0.00    +0.000 C 
ATOM     15  C   UNL     1       4.184   6.475  17.764  0.00  0.00    +0.000 C 
BRANCH  10  16
ATOM     16  S   UNL     1       4.908   3.930  18.317  0.00  0.00    +0.000 S 
ATOM     17  O   UNL     1       6.031   4.389  19.107  0.00  0.00    +0.000 OA
ATOM     18  O   UNL     1       5.084   3.506  16.943  0.00  0.00    +0.000 OA
BRANCH  16  19
ATOM     19  C   UNL     1       4.121   2.602  19.240  0.00  0.00    +0.000 C 
BRANCH  19  21
ATOM     20  C   UNL     1       1.727   2.179  18.508  0.00  0.00    +0.000 C 
ATOM     21  C   UNL     1       3.189   1.819  18.313  0.00  0.00    +0.000 C 
ENDBRANCH  19  21
ENDBRANCH  16  19
ENDBRANCH  10  16
ENDBRANCH   1  13
BRANCH   6  22
ATOM     22  C   UNL     1      -1.606  12.686  22.592  0.00  0.00    +0.000 A 
ATOM     23  C   UNL     1      -0.967  13.833  23.067  0.00  0.00    +0.000 A 
ATOM     24  C   UNL     1      -1.599  14.662  23.996  0.00  0.00    +0.000 A 
ATOM     25  C   UNL     1      -2.881  14.366  24.481  0.00  0.00    +0.000 A 
ATOM     26  C   UNL     1      -3.541  13.218  24.011  0.00  0.00    +0.000 A 
ATOM     27  C   UNL     1      -2.898  12.402  23.061  0.00  0.00    +0.000 A 
BRANCH  25  28
ATOM     28  O   UNL     1      -3.314  15.295  25.392  0.00  0.00    +0.000 OA
ATOM     29  C   UNL     1      -3.044  16.669  25.156  0.00  0.00    +0.000 C 
ENDBRANCH  25  28
BRANCH  26  30
ATOM     30  O   UNL     1      -4.784  12.929  24.512  0.00  0.00    +0.000 OA
ATOM     31  C   UNL     1      -5.889  12.907  23.618  0.00  0.00    +0.000 C 
ENDBRANCH  26  30
ENDBRANCH   6  22
TORSDOF 7
ENDMDL
MODEL 5
REMARK VINA RESULT:      -7.8      1.125      1.310
REMARK  Name = 
REMARK  10 active torsions:
REMARK  status: ('A' for Active; 'I' for Inactive)
REMARK    1  A    between atoms: C_1  and  C_2
REMARK    2  A    between atoms: C_2  and  C_3
REMARK    3  A    between atoms: C_3  and  S_4
REMARK    4  A    between atoms: S_4  and  N_7
REMARK    5  A    between atoms: C_10  and  C_11
REMARK    6  A    between atoms: C_16  and  C_17
REMARK    7  A    between atoms: C_20  and  O_21
REMARK    8  A    between atoms: O_21  and  C_22
REMARK    9  A    between atoms: C_23  and  O_24
REMARK   10  A    between atoms: O_24  and  C_25
REMARK                            x       y       z     vdW  Elec       q    Type
REMARK                         _______ _______ _______ _____ _____    ______ ____
ROOT
ATOM      1  C   UNL     1       1.187   9.034  19.132  0.00  0.00    +0.000 A 
ATOM      2  C   UNL     1       0.352   9.619  18.074  0.00  0.00    +0.000 A 
ATOM      3  C   UNL     1      -0.590  10.548  18.325  0.00  0.00    +0.000 A 
ATOM      4  C   UNL     1      -0.790  11.012  19.651  0.00  0.00    +0.000 A 
ATOM      5  N   UNL     1      -1.627  11.896  20.149  0.00  0.00    +0.000 NA
ATOM      6  C   UNL     1      -1.344  11.959  21.497  0.00  0.00    +0.000 A 
ATOM      7  C   UNL     1      -0.335  11.071  21.816  0.00  0.00    +0.000 A 
ATOM      8  N   UNL     1       0.019  10.466  20.634  0.00  0.00    +0.000 N 
ATOM      9  C   UNL     1       0.989   9.494  20.389  0.00  0.00    +0.000 A 
ENDROOT
BRANCH   1  13
ATOM     10  N   UNL     1       4.226   5.988  18.504  0.00  0.00    +0.000 NA
ATOM     11  C   UNL     1       3.994   6.996  17.430  0.00  0.00    +0.000 C 
ATOM     12  C   UNL     1       2.940   8.003  17.770  0.00  0.00    +0.000 C 
ATOM     13  C   UNL     1       2.171   7.986  18.871  0.00  0.00    +0.000 C 
ATOM     14  C   UNL     1       2.344   6.888  19.887  0.00  0.00    +0.000 C 
ATOM     15  C   UNL     1       2.995   5.640  19.275  0.00  0.00    +0.000 C 
BRANCH  10  16
ATOM     16  S   UNL     1       5.088   4.639  17.888  0.00  0.00    +0.000 S 
ATOM     17  O   UNL     1       4.227   3.969  16.938  0.00  0.00    +0.000 OA
ATOM     18  O   UNL     1       5.654   3.925  19.016  0.00  0.00    +0.000 OA
BRANCH  16  19
ATOM     19  C   UNL     1       6.422   5.396  16.950  0.00  0.00    +0.000 C 
BRANCH  19  21
ATOM     20  C   UNL     1       7.662   7.498  17.651  0.00  0.00    +0.000 C 
ATOM     21  C   UNL     1       7.434   6.020  17.913  0.00  0.00    +0.000 C 
ENDBRANCH  19  21
ENDBRANCH  16  19
ENDBRANCH  10  16
ENDBRANCH   1  13
BRANCH   6  22
ATOM     22  C   UNL     1      -2.016  12.885  22.403  0.00  0.00    +0.000 A 
ATOM     23  C   UNL     1      -1.263  13.658  23.289  0.00  0.00    +0.000 A 
ATOM     24  C   UNL     1      -1.894  14.509  24.199  0.00  0.00    +0.000 A 
ATOM     25  C   UNL     1      -3.292  14.606  24.254  0.00  0.00    +0.000 A 
ATOM     26  C   UNL     1      -4.066  13.837  23.367  0.00  0.00    +0.000 A 
ATOM     27  C   UNL     1      -3.414  12.999  22.444  0.00  0.00    +0.000 A 
BRANCH  25  28
ATOM     28  O   UNL     1      -3.710  15.483  25.222  0.00  0.00    +0.000 OA
ATOM     29  C   UNL     1      -3.949  16.836  24.868  0.00  0.00    +0.000 C 
ENDBRANCH  25  28
BRANCH  26  30
ATOM     30  O   UNL     1      -5.432  13.924  23.449  0.00  0.00    +0.000 OA
ATOM     31  C   UNL     1      -6.150  12.831  24.003  0.00  0.00    +0.000 C 
ENDBRANCH  26  30
ENDBRANCH   6  22
TORSDOF 7
ENDMDL
MODEL 6
REMARK VINA RESULT:      -7.7      3.102     11.530
REMARK  Name = 
REMARK  10 active torsions:
REMARK  status: ('A' for Active; 'I' for Inactive)
REMARK    1  A    between atoms: C_1  and  C_2
REMARK    2  A    between atoms: C_2  and  C_3
REMARK    3  A    between atoms: C_3  and  S_4
REMARK    4  A    between atoms: S_4  and  N_7
REMARK    5  A    between atoms: C_10  and  C_11
REMARK    6  A    between atoms: C_16  and  C_17
REMARK    7  A    between atoms: C_20  and  O_21
REMARK    8  A    between atoms: O_21  and  C_22
REMARK    9  A    between atoms: C_23  and  O_24
REMARK   10  A    between atoms: O_24  and  C_25
REMARK                            x       y       z     vdW  Elec       q    Type
REMARK                         _______ _______ _______ _____ _____    ______ ____
ROOT
ATOM      1  C   UNL     1      -0.189  10.880  20.106  0.00  0.00    +0.000 A 
ATOM      2  C   UNL     1       0.234  11.582  18.886  0.00  0.00    +0.000 A 
ATOM      3  C   UNL     1       1.105  11.049  18.009  0.00  0.00    +0.000 A 
ATOM      4  C   UNL     1       1.635   9.754  18.237  0.00  0.00    +0.000 A 
ATOM      5  N   UNL     1       2.484   9.024  17.546  0.00  0.00    +0.000 NA
ATOM      6  C   UNL     1       2.603   7.837  18.237  0.00  0.00    +0.000 A 
ATOM      7  C   UNL     1       1.830   7.870  19.382  0.00  0.00    +0.000 A 
ATOM      8  N   UNL     1       1.211   9.096  19.380  0.00  0.00    +0.000 N 
ATOM      9  C   UNL     1       0.319   9.643  20.303  0.00  0.00    +0.000 A 
ENDROOT
BRANCH   1  13
ATOM     10  N   UNL     1      -2.772  12.832  23.008  0.00  0.00    +0.000 NA
ATOM     11  C   UNL     1      -1.905  11.709  23.467  0.00  0.00    +0.000 C 
ATOM     12  C   UNL     1      -1.048  11.132  22.384  0.00  0.00    +0.000 C 
ATOM     13  C   UNL     1      -1.091  11.479  21.087  0.00  0.00    +0.000 C 
ATOM     14  C   UNL     1      -2.060  12.535  20.627  0.00  0.00    +0.000 C 
ATOM     15  C   UNL     1      -3.239  12.690  21.596  0.00  0.00    +0.000 C 
BRANCH  10  16
ATOM     16  S   UNL     1      -4.019  13.136  24.147  0.00  0.00    +0.000 S 
ATOM     17  O   UNL     1      -3.675  14.350  24.855  0.00  0.00    +0.000 OA
ATOM     18  O   UNL     1      -4.275  11.901  24.861  0.00  0.00    +0.000 OA
BRANCH  16  19
ATOM     19  C   UNL     1      -5.440  13.514  23.110  0.00  0.00    +0.000 C 
BRANCH  19  21
ATOM     20  C   UNL     1      -7.635  12.238  23.097  0.00  0.00    +0.000 C 
ATOM     21  C   UNL     1      -6.727  13.180  23.867  0.00  0.00    +0.000 C 
ENDBRANCH  19  21
ENDBRANCH  16  19
ENDBRANCH  10  16
ENDBRANCH   1  13
BRANCH   6  22
ATOM     22  C   UNL     1       3.410   6.720  17.756  0.00  0.00    +0.000 A 
ATOM     23  C   UNL     1       4.651   6.963  17.163  0.00  0.00    +0.000 A 
ATOM     24  C   UNL     1       5.409   5.908  16.650  0.00  0.00    +0.000 A 
ATOM     25  C   UNL     1       4.948   4.585  16.709  0.00  0.00    +0.000 A 
ATOM     26  C   UNL     1       3.702   4.321  17.306  0.00  0.00    +0.000 A 
ATOM     27  C   UNL     1       2.959   5.393  17.834  0.00  0.00    +0.000 A 
BRANCH  25  28
ATOM     28  O   UNL     1       5.833   3.706  16.140  0.00  0.00    +0.000 OA
ATOM     29  C   UNL     1       6.137   3.831  14.760  0.00  0.00    +0.000 C 
ENDBRANCH  25  28
BRANCH  26  30
ATOM     30  O   UNL     1       3.254   3.026  17.334  0.00  0.00    +0.000 OA
ATOM     31  C   UNL     1       3.452   2.265  18.517  0.00  0.00    +0.000 C 
ENDBRANCH  26  30
ENDBRANCH   6  22
TORSDOF 7
ENDMDL
MODEL 7
REMARK VINA RESULT:      -7.7      2.037      3.211
REMARK  Name = 
REMARK  10 active torsions:
REMARK  status: ('A' for Active; 'I' for Inactive)
REMARK    1  A    between atoms: C_1  and  C_2
REMARK    2  A    between atoms: C_2  and  C_3
REMARK    3  A    between atoms: C_3  and  S_4
REMARK    4  A    between atoms: S_4  and  N_7
REMARK    5  A    between atoms: C_10  and  C_11
REMARK    6  A    between atoms: C_16  and  C_17
REMARK    7  A    between atoms: C_20  and  O_21
REMARK    8  A    between atoms: O_21  and  C_22
REMARK    9  A    between atoms: C_23  and  O_24
REMARK   10  A    between atoms: O_24  and  C_25
REMARK                            x       y       z     vdW  Elec       q    Type
REMARK                         _______ _______ _______ _____ _____    ______ ____
ROOT
ATOM      1  C   UNL     1       2.762   6.926  18.910  0.00  0.00    +0.000 A 
ATOM      2  C   UNL     1       2.233   6.129  20.026  0.00  0.00    +0.000 A 
ATOM      3  C   UNL     1       1.371   6.631  20.931  0.00  0.00    +0.000 A 
ATOM      4  C   UNL     1       0.926   7.973  20.814  0.00  0.00    +0.000 A 
ATOM      5  N   UNL     1       0.103   8.686  21.551  0.00  0.00    +0.000 NA
ATOM      6  C   UNL     1       0.024   9.918  20.937  0.00  0.00    +0.000 A 
ATOM      7  C   UNL     1       0.842   9.950  19.824  0.00  0.00    +0.000 A 
ATOM      8  N   UNL     1       1.418   8.705  19.746  0.00  0.00    +0.000 N 
ATOM      9  C   UNL     1       2.320   8.200  18.809  0.00  0.00    +0.000 A 
ENDROOT
BRANCH   1  13
ATOM     10  N   UNL     1       5.568   5.452  15.935  0.00  0.00    +0.000 NA
ATOM     11  C   UNL     1       4.731   4.465  16.675  0.00  0.00    +0.000 C 
ATOM     12  C   UNL     1       3.791   5.093  17.656  0.00  0.00    +0.000 C 
ATOM     13  C   UNL     1       3.739   6.401  17.960  0.00  0.00    +0.000 C 
ATOM     14  C   UNL     1       4.678   7.363  17.283  0.00  0.00    +0.000 C 
ATOM     15  C   UNL     1       5.928   6.657  16.740  0.00  0.00    +0.000 C 
BRANCH  10  16
ATOM     16  S   UNL     1       6.900   4.671  15.185  0.00  0.00    +0.000 S 
ATOM     17  O   UNL     1       7.653   4.003  16.224  0.00  0.00    +0.000 OA
ATOM     18  O   UNL     1       7.533   5.630  14.302  0.00  0.00    +0.000 OA
BRANCH  16  19
ATOM     19  C   UNL     1       6.120   3.391  14.191  0.00  0.00    +0.000 C 
BRANCH  19  21
ATOM     20  C   UNL     1       5.179   3.139  11.847  0.00  0.00    +0.000 C 
ATOM     21  C   UNL     1       6.283   3.726  12.707  0.00  0.00    +0.000 C 
ENDBRANCH  19  21
ENDBRANCH  16  19
ENDBRANCH  10  16
ENDBRANCH   1  13
BRANCH   6  22
ATOM     22  C   UNL     1      -0.851  10.984  21.413  0.00  0.00    +0.000 A 
ATOM     23  C   UNL     1      -0.874  11.310  22.771  0.00  0.00    +0.000 A 
ATOM     24  C   UNL     1      -1.746  12.291  23.248  0.00  0.00    +0.000 A 
ATOM     25  C   UNL     1      -2.621  12.968  22.387  0.00  0.00    +0.000 A 
ATOM     26  C   UNL     1      -2.608  12.656  21.016  0.00  0.00    +0.000 A 
ATOM     27  C   UNL     1      -1.711  11.678  20.548  0.00  0.00    +0.000 A 
BRANCH  25  28
ATOM     28  O   UNL     1      -3.399  13.879  23.054  0.00  0.00    +0.000 OA
ATOM     29  C   UNL     1      -4.516  13.418  23.798  0.00  0.00    +0.000 C 
ENDBRANCH  25  28
BRANCH  26  30
ATOM     30  O   UNL     1      -3.486  13.309  20.190  0.00  0.00    +0.000 OA
ATOM     31  C   UNL     1      -4.757  12.720  19.947  0.00  0.00    +0.000 C 
ENDBRANCH  26  30
ENDBRANCH   6  22
TORSDOF 7
ENDMDL
MODEL 8
REMARK VINA RESULT:      -7.7      1.208      2.092
REMARK  Name = 
REMARK  10 active torsions:
REMARK  status: ('A' for Active; 'I' for Inactive)
REMARK    1  A    between atoms: C_1  and  C_2
REMARK    2  A    between atoms: C_2  and  C_3
REMARK    3  A    between atoms: C_3  and  S_4
REMARK    4  A    between atoms: S_4  and  N_7
REMARK    5  A    between atoms: C_10  and  C_11
REMARK    6  A    between atoms: C_16  and  C_17
REMARK    7  A    between atoms: C_20  and  O_21
REMARK    8  A    between atoms: O_21  and  C_22
REMARK    9  A    between atoms: C_23  and  O_24
REMARK   10  A    between atoms: O_24  and  C_25
REMARK                            x       y       z     vdW  Elec       q    Type
REMARK                         _______ _______ _______ _____ _____    ______ ____
ROOT
ATOM      1  C   UNL     1       1.340   8.859  19.206  0.00  0.00    +0.000 A 
ATOM      2  C   UNL     1       0.625   9.575  18.140  0.00  0.00    +0.000 A 
ATOM      3  C   UNL     1      -0.259  10.559  18.395  0.00  0.00    +0.000 A 
ATOM      4  C   UNL     1      -0.513  10.952  19.734  0.00  0.00    +0.000 A 
ATOM      5  N   UNL     1      -1.311  11.867  20.237  0.00  0.00    +0.000 NA
ATOM      6  C   UNL     1      -1.117  11.822  21.602  0.00  0.00    +0.000 A 
ATOM      7  C   UNL     1      -0.201  10.838  21.922  0.00  0.00    +0.000 A 
ATOM      8  N   UNL     1       0.185  10.282  20.726  0.00  0.00    +0.000 N 
ATOM      9  C   UNL     1       1.093   9.253  20.476  0.00  0.00    +0.000 A 
ENDROOT
BRANCH   1  13
ATOM     10  N   UNL     1       4.183   5.636  18.552  0.00  0.00    +0.000 NA
ATOM     11  C   UNL     1       4.018   6.667  17.488  0.00  0.00    +0.000 C 
ATOM     12  C   UNL     1       3.029   7.735  17.837  0.00  0.00    +0.000 C 
ATOM     13  C   UNL     1       2.256   7.754  18.936  0.00  0.00    +0.000 C 
ATOM     14  C   UNL     1       2.357   6.637  19.940  0.00  0.00    +0.000 C 
ATOM     15  C   UNL     1       2.930   5.358  19.316  0.00  0.00    +0.000 C 
BRANCH  10  16
ATOM     16  S   UNL     1       4.961   4.241  17.924  0.00  0.00    +0.000 S 
ATOM     17  O   UNL     1       4.097   3.682  16.907  0.00  0.00    +0.000 OA
ATOM     18  O   UNL     1       5.408   3.442  19.048  0.00  0.00    +0.000 OA
BRANCH  16  19
ATOM     19  C   UNL     1       6.399   4.916  17.081  0.00  0.00    +0.000 C 
BRANCH  19  21
ATOM     20  C   UNL     1       7.795   6.514  18.477  0.00  0.00    +0.000 C 
ATOM     21  C   UNL     1       7.550   5.070  18.078  0.00  0.00    +0.000 C 
ENDBRANCH  19  21
ENDBRANCH  16  19
ENDBRANCH  10  16
ENDBRANCH   1  13
BRANCH   6  22
ATOM     22  C   UNL     1      -1.776  12.740  22.525  0.00  0.00    +0.000 A 
ATOM     23  C   UNL     1      -3.170  12.805  22.564  0.00  0.00    +0.000 A 
ATOM     24  C   UNL     1      -3.813  13.717  23.404  0.00  0.00    +0.000 A 
ATOM     25  C   UNL     1      -3.084  14.591  24.222  0.00  0.00    +0.000 A 
ATOM     26  C   UNL     1      -1.679  14.537  24.199  0.00  0.00    +0.000 A 
ATOM     27  C   UNL     1      -1.047  13.601  23.361  0.00  0.00    +0.000 A 
BRANCH  25  28
ATOM     28  O   UNL     1      -3.901  15.411  24.957  0.00  0.00    +0.000 OA
ATOM     29  C   UNL     1      -4.387  16.607  24.367  0.00  0.00    +0.000 C 
ENDBRANCH  25  28
BRANCH  26  30
ATOM     30  O   UNL     1      -0.979  15.415  24.987  0.00  0.00    +0.000 OA
ATOM     31  C   UNL     1      -0.521  16.629  24.409  0.00  0.00    +0.000 C 
ENDBRANCH  26  30
ENDBRANCH   6  22
TORSDOF 7
ENDMDL
MODEL 9
REMARK VINA RESULT:      -7.6      1.380      1.736
REMARK  Name = 
REMARK  10 active torsions:
REMARK  status: ('A' for Active; 'I' for Inactive)
REMARK    1  A    between atoms: C_1  and  C_2
REMARK    2  A    between atoms: C_2  and  C_3
REMARK    3  A    between atoms: C_3  and  S_4
REMARK    4  A    between atoms: S_4  and  N_7
REMARK    5  A    between atoms: C_10  and  C_11
REMARK    6  A    between atoms: C_16  and  C_17
REMARK    7  A    between atoms: C_20  and  O_21
REMARK    8  A    between atoms: O_21  and  C_22
REMARK    9  A    between atoms: C_23  and  O_24
REMARK   10  A    between atoms: O_24  and  C_25
REMARK                            x       y       z     vdW  Elec       q    Type
REMARK                         _______ _______ _______ _____ _____    ______ ____
ROOT
ATOM      1  C   UNL     1       1.251   8.887  19.294  0.00  0.00    +0.000 A 
ATOM      2  C   UNL     1       0.584   9.586  18.187  0.00  0.00    +0.000 A 
ATOM      3  C   UNL     1      -0.303  10.579  18.386  0.00  0.00    +0.000 A 
ATOM      4  C   UNL     1      -0.609  10.999  19.706  0.00  0.00    +0.000 A 
ATOM      5  N   UNL     1      -1.423  11.927  20.159  0.00  0.00    +0.000 NA
ATOM      6  C   UNL     1      -1.284  11.907  21.531  0.00  0.00    +0.000 A 
ATOM      7  C   UNL     1      -0.388  10.925  21.907  0.00  0.00    +0.000 A 
ATOM      8  N   UNL     1       0.043  10.345  20.738  0.00  0.00    +0.000 N 
ATOM      9  C   UNL     1       0.955   9.307  20.545  0.00  0.00    +0.000 A 
ENDROOT
BRANCH   1  13
ATOM     10  N   UNL     1       4.108   5.646  18.809  0.00  0.00    +0.000 NA
ATOM     11  C   UNL     1       3.921   6.606  17.683  0.00  0.00    +0.000 C 
ATOM     12  C   UNL     1       2.929   7.687  17.976  0.00  0.00    +0.000 C 
ATOM     13  C   UNL     1       2.172   7.773  19.083  0.00  0.00    +0.000 C 
ATOM     14  C   UNL     1       2.295   6.724  20.155  0.00  0.00    +0.000 C 
ATOM     15  C   UNL     1       2.868   5.410  19.607  0.00  0.00    +0.000 C 
BRANCH  10  16
ATOM     16  S   UNL     1       4.888   4.219  18.261  0.00  0.00    +0.000 S 
ATOM     17  O   UNL     1       6.232   4.224  18.798  0.00  0.00    +0.000 OA
ATOM     18  O   UNL     1       4.653   4.107  16.836  0.00  0.00    +0.000 OA
BRANCH  16  19
ATOM     19  C   UNL     1       3.988   2.909  19.104  0.00  0.00    +0.000 C 
BRANCH  19  21
ATOM     20  C   UNL     1       1.643   2.090  18.579  0.00  0.00    +0.000 C 
ATOM     21  C   UNL     1       3.082   2.188  18.105  0.00  0.00    +0.000 C 
ENDBRANCH  19  21
ENDBRANCH  16  19
ENDBRANCH  10  16
ENDBRANCH   1  13
BRANCH   6  22
ATOM     22  C   UNL     1      -1.975  12.846  22.409  0.00  0.00    +0.000 A 
ATOM     23  C   UNL     1      -1.237  13.681  23.252  0.00  0.00    +0.000 A 
ATOM     24  C   UNL     1      -1.886  14.545  24.136  0.00  0.00    +0.000 A 
ATOM     25  C   UNL     1      -3.285  14.596  24.209  0.00  0.00    +0.000 A 
ATOM     26  C   UNL     1      -4.044  13.765  23.365  0.00  0.00    +0.000 A 
ATOM     27  C   UNL     1      -3.376  12.913  22.467  0.00  0.00    +0.000 A 
BRANCH  25  28
ATOM     28  O   UNL     1      -3.720  15.497  25.146  0.00  0.00    +0.000 OA
ATOM     29  C   UNL     1      -3.145  16.794  25.175  0.00  0.00    +0.000 C 
ENDBRANCH  25  28
BRANCH  26  30
ATOM     30  O   UNL     1      -5.411  13.809  23.464  0.00  0.00    +0.000 OA
ATOM     31  C   UNL     1      -6.077  12.746  24.132  0.00  0.00    +0.000 C 
ENDBRANCH  26  30
ENDBRANCH   6  22
TORSDOF 7
ENDMDL
