MODEL 1
REMARK VINA RESULT:      -7.6      0.000      0.000
REMARK  Name = 
REMARK  4 active torsions:
REMARK  status: ('A' for Active; 'I' for Inactive)
REMARK    1  A    between atoms: C_2  and  C_3
REMARK    2  A    between atoms: C_2  and  C_10
REMARK    3  A    between atoms: C_14  and  C_16
REMARK    4  A    between atoms: C_18  and  O_19
REMARK                            x       y       z     vdW  Elec       q    Type
REMARK                         _______ _______ _______ _____ _____    ______ ____
ROOT
ATOM      1  C   UNL     1      -0.562   9.185  21.319  0.00  0.00    +0.000 C 
ATOM      2  C   UNL     1       0.205   7.859  21.342  0.00  0.00    +0.000 C 
ATOM      3  C   UNL     1       1.583   7.895  20.679  0.00  0.00    +0.000 C 
ATOM      4  N   UNL     1       1.612   8.650  19.423  0.00  0.00    +0.000 N 
ATOM      5  C   UNL     1       2.221   8.296  18.216  0.00  0.00    +0.000 C 
ATOM      6  O   UNL     1       2.183   9.013  17.217  0.00  0.00    +0.000 OA
ATOM      7  C   UNL     1       0.989   9.965  19.485  0.00  0.00    +0.000 C 
ATOM      8  C   UNL     1      -0.465   9.816  19.921  0.00  0.00    +0.000 C 
ENDROOT
BRANCH   5   9
ATOM      9  C   UNL     1       2.883   6.983  18.043  0.00  0.00    +0.000 A 
ATOM     10  C   UNL     1       2.047   5.864  17.891  0.00  0.00    +0.000 A 
ATOM     11  C   UNL     1       2.607   4.597  17.766  0.00  0.00    +0.000 A 
ATOM     12  C   UNL     1       3.988   4.427  17.814  0.00  0.00    +0.000 A 
ATOM     13  C   UNL     1       4.811   5.544  17.916  0.00  0.00    +0.000 A 
ATOM     14  I   UNL     1       6.875   5.306  18.037  0.00  0.00    +0.000 I 
ATOM     15  C   UNL     1       4.271   6.827  17.982  0.00  0.00    +0.000 A 
BRANCH  11  16
ATOM     16  O   UNL     1       1.830   3.494  17.603  0.00  0.00    +0.000 OA
ATOM     17  H   UNL     1       1.805   3.002  18.441  0.00  0.00    +0.000 HD
ENDBRANCH  11  16
ENDBRANCH   5   9
BRANCH   1  19
ATOM     18  O   UNL     1       0.828   9.947  23.148  0.00  0.00    +0.000 OA
ATOM     19  C   UNL     1      -0.116  10.185  22.395  0.00  0.00    +0.000 C 
BRANCH  19  20
ATOM     20  C   UNL     1      -0.758  11.528  22.503  0.00  0.00    +0.000 A 
ATOM     21  C   UNL     1      -1.991  11.604  23.173  0.00  0.00    +0.000 A 
ATOM     22  C   UNL     1      -2.590  12.840  23.426  0.00  0.00    +0.000 A 
ATOM     23  C   UNL     1      -1.964  14.006  22.993  0.00  0.00    +0.000 A 
ATOM     24 CL   UNL     1      -2.651  15.535  23.373  0.00  0.00    +0.000 Cl
ATOM     25  C   UNL     1      -0.766  13.941  22.283  0.00  0.00    +0.000 A 
ATOM     26  C   UNL     1      -0.160  12.703  22.039  0.00  0.00    +0.000 A 
ENDBRANCH  19  20
ENDBRANCH   1  19
TORSDOF 4
ENDMDL
MODEL 2
REMARK VINA RESULT:      -7.6      1.517      1.775
REMARK  Name = 
REMARK  4 active torsions:
REMARK  status: ('A' for Active; 'I' for Inactive)
REMARK    1  A    between atoms: C_2  and  C_3
REMARK    2  A    between atoms: C_2  and  C_10
REMARK    3  A    between atoms: C_14  and  C_16
REMARK    4  A    between atoms: C_18  and  O_19
REMARK                            x       y       z     vdW  Elec       q    Type
REMARK                         _______ _______ _______ _____ _____    ______ ____
ROOT
ATOM      1  C   UNL     1      -0.627   9.277  21.346  0.00  0.00    +0.000 C 
ATOM      2  C   UNL     1       0.170   7.968  21.338  0.00  0.00    +0.000 C 
ATOM      3  C   UNL     1       1.541   8.048  20.664  0.00  0.00    +0.000 C 
ATOM      4  N   UNL     1       1.543   8.826  19.422  0.00  0.00    +0.000 N 
ATOM      5  C   UNL     1       2.148   8.508  18.204  0.00  0.00    +0.000 C 
ATOM      6  O   UNL     1       2.086   9.243  17.219  0.00  0.00    +0.000 OA
ATOM      7  C   UNL     1       0.891  10.125  19.515  0.00  0.00    +0.000 C 
ATOM      8  C   UNL     1      -0.555   9.936  19.960  0.00  0.00    +0.000 C 
ENDROOT
BRANCH   5   9
ATOM      9  C   UNL     1       2.838   7.214  18.001  0.00  0.00    +0.000 A 
ATOM     10  C   UNL     1       4.150   7.264  17.500  0.00  0.00    +0.000 A 
ATOM     11  C   UNL     1       4.838   6.082  17.249  0.00  0.00    +0.000 A 
ATOM     12  C   UNL     1       4.228   4.849  17.469  0.00  0.00    +0.000 A 
ATOM     13  C   UNL     1       2.947   4.807  18.010  0.00  0.00    +0.000 A 
ATOM     14  I   UNL     1       2.002   2.976  18.301  0.00  0.00    +0.000 I 
ATOM     15  C   UNL     1       2.265   5.981  18.324  0.00  0.00    +0.000 A 
BRANCH  11  16
ATOM     16  O   UNL     1       6.112   6.092  16.777  0.00  0.00    +0.000 OA
ATOM     17  H   UNL     1       6.581   6.854  17.157  0.00  0.00    +0.000 HD
ENDBRANCH  11  16
ENDBRANCH   5   9
BRANCH   1  19
ATOM     18  O   UNL     1       0.750  10.028  23.189  0.00  0.00    +0.000 OA
ATOM     19  C   UNL     1      -0.194  10.267  22.437  0.00  0.00    +0.000 C 
BRANCH  19  20
ATOM     20  C   UNL     1      -0.849  11.602  22.561  0.00  0.00    +0.000 A 
ATOM     21  C   UNL     1      -2.102  11.652  23.195  0.00  0.00    +0.000 A 
ATOM     22  C   UNL     1      -2.717  12.877  23.461  0.00  0.00    +0.000 A 
ATOM     23  C   UNL     1      -2.087  14.058  23.079  0.00  0.00    +0.000 A 
ATOM     24 CL   UNL     1      -2.797  15.572  23.477  0.00  0.00    +0.000 Cl
ATOM     25  C   UNL     1      -0.869  14.020  22.404  0.00  0.00    +0.000 A 
ATOM     26  C   UNL     1      -0.245  12.793  22.146  0.00  0.00    +0.000 A 
ENDBRANCH  19  20
ENDBRANCH   1  19
TORSDOF 4
ENDMDL
MODEL 3
REMARK VINA RESULT:      -7.4      0.392      1.043
REMARK  Name = 
REMARK  4 active torsions:
REMARK  status: ('A' for Active; 'I' for Inactive)
REMARK    1  A    between atoms: C_2  and  C_3
REMARK    2  A    between atoms: C_2  and  C_10
REMARK    3  A    between atoms: C_14  and  C_16
REMARK    4  A    between atoms: C_18  and  O_19
REMARK                            x       y       z     vdW  Elec       q    Type
REMARK                         _______ _______ _______ _____ _____    ______ ____
ROOT
ATOM      1  C   UNL     1      -0.615   9.267  21.362  0.00  0.00    +0.000 C 
ATOM      2  C   UNL     1       0.199   7.969  21.342  0.00  0.00    +0.000 C 
ATOM      3  C   UNL     1       1.568   8.072  20.666  0.00  0.00    +0.000 C 
ATOM      4  N   UNL     1       1.557   8.861  19.431  0.00  0.00    +0.000 N 
ATOM      5  C   UNL     1       2.164   8.562  18.209  0.00  0.00    +0.000 C 
ATOM      6  O   UNL     1       2.090   9.304  17.231  0.00  0.00    +0.000 OA
ATOM      7  C   UNL     1       0.888  10.151  19.536  0.00  0.00    +0.000 C 
ATOM      8  C   UNL     1      -0.554   9.939  19.982  0.00  0.00    +0.000 C 
ENDROOT
BRANCH   5   9
ATOM      9  C   UNL     1       2.871   7.278  17.994  0.00  0.00    +0.000 A 
ATOM     10  C   UNL     1       2.108   6.105  18.117  0.00  0.00    +0.000 A 
ATOM     11  C   UNL     1       2.721   4.865  17.968  0.00  0.00    +0.000 A 
ATOM     12  C   UNL     1       4.089   4.779  17.719  0.00  0.00    +0.000 A 
ATOM     13  C   UNL     1       4.828   5.946  17.552  0.00  0.00    +0.000 A 
ATOM     14  I   UNL     1       6.881   5.836  17.228  0.00  0.00    +0.000 I 
ATOM     15  C   UNL     1       4.220   7.196  17.638  0.00  0.00    +0.000 A 
BRANCH  11  16
ATOM     16  O   UNL     1       2.013   3.710  18.065  0.00  0.00    +0.000 OA
ATOM     17  H   UNL     1       1.537   3.562  17.231  0.00  0.00    +0.000 HD
ENDBRANCH  11  16
ENDBRANCH   5   9
BRANCH   1  19
ATOM     18  O   UNL     1       0.772  10.032  23.192  0.00  0.00    +0.000 OA
ATOM     19  C   UNL     1      -0.192  10.252  22.462  0.00  0.00    +0.000 C 
BRANCH  19  20
ATOM     20  C   UNL     1      -0.887  11.564  22.619  0.00  0.00    +0.000 A 
ATOM     21  C   UNL     1      -0.249  12.702  22.095  0.00  0.00    +0.000 A 
ATOM     22  C   UNL     1      -0.893  13.940  22.090  0.00  0.00    +0.000 A 
ATOM     23  C   UNL     1      -2.173  14.050  22.626  0.00  0.00    +0.000 A 
ATOM     24 CL   UNL     1      -3.005  15.552  22.548  0.00  0.00    +0.000 Cl
ATOM     25  C   UNL     1      -2.796  12.940  23.195  0.00  0.00    +0.000 A 
ATOM     26  C   UNL     1      -2.157  11.696  23.190  0.00  0.00    +0.000 A 
ENDBRANCH  19  20
ENDBRANCH   1  19
TORSDOF 4
ENDMDL
MODEL 4
REMARK VINA RESULT:      -7.2      1.798      2.202
REMARK  Name = 
REMARK  4 active torsions:
REMARK  status: ('A' for Active; 'I' for Inactive)
REMARK    1  A    between atoms: C_2  and  C_3
REMARK    2  A    between atoms: C_2  and  C_10
REMARK    3  A    between atoms: C_14  and  C_16
REMARK    4  A    between atoms: C_18  and  O_19
REMARK                            x       y       z     vdW  Elec       q    Type
REMARK                         _______ _______ _______ _____ _____    ______ ____
ROOT
ATOM      1  C   UNL     1      -0.563  10.072  20.972  0.00  0.00    +0.000 C 
ATOM      2  C   UNL     1       0.087   8.767  21.444  0.00  0.00    +0.000 C 
ATOM      3  C   UNL     1       1.483   8.497  20.880  0.00  0.00    +0.000 C 
ATOM      4  N   UNL     1       1.616   8.820  19.457  0.00  0.00    +0.000 N 
ATOM      5  C   UNL     1       2.229   8.066  18.453  0.00  0.00    +0.000 C 
ATOM      6  O   UNL     1       2.284   8.439  17.282  0.00  0.00    +0.000 OA
ATOM      7  C   UNL     1       1.105  10.131  19.078  0.00  0.00    +0.000 C 
ATOM      8  C   UNL     1      -0.368  10.230  19.456  0.00  0.00    +0.000 C 
ENDROOT
BRANCH   5   9
ATOM      9  C   UNL     1       2.782   6.721  18.729  0.00  0.00    +0.000 A 
ATOM     10  C   UNL     1       3.928   6.345  18.009  0.00  0.00    +0.000 A 
ATOM     11  C   UNL     1       4.473   5.078  18.192  0.00  0.00    +0.000 A 
ATOM     12  C   UNL     1       3.877   4.172  19.066  0.00  0.00    +0.000 A 
ATOM     13  C   UNL     1       2.770   4.569  19.810  0.00  0.00    +0.000 A 
ATOM     14  I   UNL     1       1.837   3.213  21.084  0.00  0.00    +0.000 I 
ATOM     15  C   UNL     1       2.246   5.853  19.685  0.00  0.00    +0.000 A 
BRANCH  11  16
ATOM     16  O   UNL     1       5.589   4.685  17.525  0.00  0.00    +0.000 OA
ATOM     17  H   UNL     1       5.537   5.008  16.609  0.00  0.00    +0.000 HD
ENDBRANCH  11  16
ENDBRANCH   5   9
BRANCH   1  19
ATOM     18  O   UNL     1       1.094  11.714  21.614  0.00  0.00    +0.000 OA
ATOM     19  C   UNL     1      -0.067  11.321  21.714  0.00  0.00    +0.000 C 
BRANCH  19  20
ATOM     20  C   UNL     1      -1.010  12.161  22.511  0.00  0.00    +0.000 A 
ATOM     21  C   UNL     1      -0.685  13.518  22.678  0.00  0.00    +0.000 A 
ATOM     22  C   UNL     1      -1.578  14.392  23.299  0.00  0.00    +0.000 A 
ATOM     23  C   UNL     1      -2.795  13.909  23.773  0.00  0.00    +0.000 A 
ATOM     24 CL   UNL     1      -3.934  14.993  24.465  0.00  0.00    +0.000 Cl
ATOM     25  C   UNL     1      -3.106  12.554  23.660  0.00  0.00    +0.000 A 
ATOM     26  C   UNL     1      -2.217  11.679  23.026  0.00  0.00    +0.000 A 
ENDBRANCH  19  20
ENDBRANCH   1  19
TORSDOF 4
ENDMDL
MODEL 5
REMARK VINA RESULT:      -7.2      4.887      8.937
REMARK  Name = 
REMARK  4 active torsions:
REMARK  status: ('A' for Active; 'I' for Inactive)
REMARK    1  A    between atoms: C_2  and  C_3
REMARK    2  A    between atoms: C_2  and  C_10
REMARK    3  A    between atoms: C_14  and  C_16
REMARK    4  A    between atoms: C_18  and  O_19
REMARK                            x       y       z     vdW  Elec       q    Type
REMARK                         _______ _______ _______ _____ _____    ______ ____
ROOT
ATOM      1  C   UNL     1       2.605   5.538  18.639  0.00  0.00    +0.000 C 
ATOM      2  C   UNL     1       2.237   6.759  17.790  0.00  0.00    +0.000 C 
ATOM      3  C   UNL     1       2.279   8.099  18.529  0.00  0.00    +0.000 C 
ATOM      4  N   UNL     1       1.717   8.044  19.881  0.00  0.00    +0.000 N 
ATOM      5  C   UNL     1       0.845   8.949  20.492  0.00  0.00    +0.000 C 
ATOM      6  O   UNL     1       0.435   8.803  21.642  0.00  0.00    +0.000 OA
ATOM      7  C   UNL     1       2.201   6.941  20.700  0.00  0.00    +0.000 C 
ATOM      8  C   UNL     1       1.898   5.620  20.001  0.00  0.00    +0.000 C 
ENDROOT
BRANCH   5   9
ATOM      9  C   UNL     1       0.292  10.106  19.751  0.00  0.00    +0.000 A 
ATOM     10  C   UNL     1       0.934  11.342  19.933  0.00  0.00    +0.000 A 
ATOM     11  C   UNL     1       0.440  12.476  19.298  0.00  0.00    +0.000 A 
ATOM     12  C   UNL     1      -0.700  12.399  18.502  0.00  0.00    +0.000 A 
ATOM     13  C   UNL     1      -1.303  11.163  18.289  0.00  0.00    +0.000 A 
ATOM     14  I   UNL     1      -3.034  11.037  17.142  0.00  0.00    +0.000 I 
ATOM     15  C   UNL     1      -0.786  10.006  18.868  0.00  0.00    +0.000 A 
BRANCH  11  16
ATOM     16  O   UNL     1       1.043  13.686  19.438  0.00  0.00    +0.000 OA
ATOM     17  H   UNL     1       1.284  13.809  20.372  0.00  0.00    +0.000 HD
ENDBRANCH  11  16
ENDBRANCH   5   9
BRANCH   1  19
ATOM     18  O   UNL     1       4.619   5.216  19.943  0.00  0.00    +0.000 OA
ATOM     19  C   UNL     1       4.117   5.340  18.827  0.00  0.00    +0.000 C 
BRANCH  19  20
ATOM     20  C   UNL     1       5.020   5.196  17.647  0.00  0.00    +0.000 A 
ATOM     21  C   UNL     1       4.610   4.328  16.620  0.00  0.00    +0.000 A 
ATOM     22  C   UNL     1       5.337   4.238  15.432  0.00  0.00    +0.000 A 
ATOM     23  C   UNL     1       6.486   5.005  15.271  0.00  0.00    +0.000 A 
ATOM     24 CL   UNL     1       7.339   4.964  13.779  0.00  0.00    +0.000 Cl
ATOM     25  C   UNL     1       6.932   5.832  16.302  0.00  0.00    +0.000 A 
ATOM     26  C   UNL     1       6.198   5.932  17.489  0.00  0.00    +0.000 A 
ENDBRANCH  19  20
ENDBRANCH   1  19
TORSDOF 4
ENDMDL
MODEL 6
REMARK VINA RESULT:      -7.1      4.715      8.762
REMARK  Name = 
REMARK  4 active torsions:
REMARK  status: ('A' for Active; 'I' for Inactive)
REMARK    1  A    between atoms: C_2  and  C_3
REMARK    2  A    between atoms: C_2  and  C_10
REMARK    3  A    between atoms: C_14  and  C_16
REMARK    4  A    between atoms: C_18  and  O_19
REMARK                            x       y       z     vdW  Elec       q    Type
REMARK                         _______ _______ _______ _____ _____    ______ ____
ROOT
ATOM      1  C   UNL     1       2.424   5.401  18.500  0.00  0.00    +0.000 C 
ATOM      2  C   UNL     1       2.256   6.749  17.792  0.00  0.00    +0.000 C 
ATOM      3  C   UNL     1       2.413   7.977  18.691  0.00  0.00    +0.000 C 
ATOM      4  N   UNL     1       1.767   7.836  19.999  0.00  0.00    +0.000 N 
ATOM      5  C   UNL     1       0.974   8.766  20.677  0.00  0.00    +0.000 C 
ATOM      6  O   UNL     1       0.480   8.539  21.780  0.00  0.00    +0.000 OA
ATOM      7  C   UNL     1       2.066   6.592  20.697  0.00  0.00    +0.000 C 
ATOM      8  C   UNL     1       1.651   5.411  19.827  0.00  0.00    +0.000 C 
ENDROOT
BRANCH   5   9
ATOM      9  C   UNL     1       0.609  10.061  20.060  0.00  0.00    +0.000 A 
ATOM     10  C   UNL     1      -0.307  10.023  18.995  0.00  0.00    +0.000 A 
ATOM     11  C   UNL     1      -0.659  11.202  18.346  0.00  0.00    +0.000 A 
ATOM     12  C   UNL     1      -0.093  12.415  18.729  0.00  0.00    +0.000 A 
ATOM     13  C   UNL     1       0.777  12.452  19.814  0.00  0.00    +0.000 A 
ATOM     14  I   UNL     1       1.669  14.248  20.369  0.00  0.00    +0.000 I 
ATOM     15  C   UNL     1       1.095  11.290  20.515  0.00  0.00    +0.000 A 
BRANCH  11  16
ATOM     16  O   UNL     1      -1.552  11.206  17.322  0.00  0.00    +0.000 OA
ATOM     17  H   UNL     1      -1.701  12.124  17.040  0.00  0.00    +0.000 HD
ENDBRANCH  11  16
ENDBRANCH   5   9
BRANCH   1  19
ATOM     18  O   UNL     1       4.283   4.597  19.825  0.00  0.00    +0.000 OA
ATOM     19  C   UNL     1       3.887   4.994  18.730  0.00  0.00    +0.000 C 
BRANCH  19  20
ATOM     20  C   UNL     1       4.862   4.977  17.600  0.00  0.00    +0.000 A 
ATOM     21  C   UNL     1       4.604   4.096  16.536  0.00  0.00    +0.000 A 
ATOM     22  C   UNL     1       5.397   4.114  15.388  0.00  0.00    +0.000 A 
ATOM     23  C   UNL     1       6.465   5.004  15.306  0.00  0.00    +0.000 A 
ATOM     24 CL   UNL     1       7.396   5.091  13.864  0.00  0.00    +0.000 Cl
ATOM     25  C   UNL     1       6.763   5.846  16.376  0.00  0.00    +0.000 A 
ATOM     26  C   UNL     1       5.961   5.837  17.522  0.00  0.00    +0.000 A 
ENDBRANCH  19  20
ENDBRANCH   1  19
TORSDOF 4
ENDMDL
MODEL 7
REMARK VINA RESULT:      -7.0      2.766      3.261
REMARK  Name = 
REMARK  4 active torsions:
REMARK  status: ('A' for Active; 'I' for Inactive)
REMARK    1  A    between atoms: C_2  and  C_3
REMARK    2  A    between atoms: C_2  and  C_10
REMARK    3  A    between atoms: C_14  and  C_16
REMARK    4  A    between atoms: C_18  and  O_19
REMARK                            x       y       z     vdW  Elec       q    Type
REMARK                         _______ _______ _______ _____ _____    ______ ____
ROOT
ATOM      1  C   UNL     1       0.098  10.008  19.840  0.00  0.00    +0.000 C 
ATOM      2  C   UNL     1       0.471   8.654  20.454  0.00  0.00    +0.000 C 
ATOM      3  C   UNL     1       1.880   8.159  20.124  0.00  0.00    +0.000 C 
ATOM      4  N   UNL     1       2.270   8.378  18.729  0.00  0.00    +0.000 N 
ATOM      5  C   UNL     1       2.909   7.490  17.860  0.00  0.00    +0.000 C 
ATOM      6  O   UNL     1       3.192   7.783  16.699  0.00  0.00    +0.000 OA
ATOM      7  C   UNL     1       2.021   9.724  18.228  0.00  0.00    +0.000 C 
ATOM      8  C   UNL     1       0.538  10.049  18.368  0.00  0.00    +0.000 C 
ENDROOT
BRANCH   5   9
ATOM      9  C   UNL     1       3.210   6.098  18.266  0.00  0.00    +0.000 A 
ATOM     10  C   UNL     1       4.566   5.751  18.389  0.00  0.00    +0.000 A 
ATOM     11  C   UNL     1       4.916   4.448  18.727  0.00  0.00    +0.000 A 
ATOM     12  C   UNL     1       3.934   3.480  18.923  0.00  0.00    +0.000 A 
ATOM     13  C   UNL     1       2.593   3.843  18.845  0.00  0.00    +0.000 A 
ATOM     14  I   UNL     1       1.112   2.400  19.086  0.00  0.00    +0.000 I 
ATOM     15  C   UNL     1       2.222   5.156  18.567  0.00  0.00    +0.000 A 
BRANCH  11  16
ATOM     16  O   UNL     1       6.216   4.080  18.870  0.00  0.00    +0.000 OA
ATOM     17  H   UNL     1       6.783   4.836  18.641  0.00  0.00    +0.000 HD
ENDBRANCH  11  16
ENDBRANCH   5   9
BRANCH   1  19
ATOM     18  O   UNL     1       1.101  11.110  21.747  0.00  0.00    +0.000 OA
ATOM     19  C   UNL     1       0.657  11.217  20.605  0.00  0.00    +0.000 C 
BRANCH  19  20
ATOM     20  C   UNL     1       0.766  12.552  19.948  0.00  0.00    +0.000 A 
ATOM     21  C   UNL     1      -0.429  13.245  19.686  0.00  0.00    +0.000 A 
ATOM     22  C   UNL     1      -0.402  14.550  19.193  0.00  0.00    +0.000 A 
ATOM     23  C   UNL     1       0.822  15.164  18.942  0.00  0.00    +0.000 A 
ATOM     24 CL   UNL     1       0.865  16.798  18.413  0.00  0.00    +0.000 Cl
ATOM     25  C   UNL     1       2.013  14.469  19.148  0.00  0.00    +0.000 A 
ATOM     26  C   UNL     1       1.988  13.165  19.654  0.00  0.00    +0.000 A 
ENDBRANCH  19  20
ENDBRANCH   1  19
TORSDOF 4
ENDMDL
MODEL 8
REMARK VINA RESULT:      -7.0      2.444      2.899
REMARK  Name = 
REMARK  4 active torsions:
REMARK  status: ('A' for Active; 'I' for Inactive)
REMARK    1  A    between atoms: C_2  and  C_3
REMARK    2  A    between atoms: C_2  and  C_10
REMARK    3  A    between atoms: C_14  and  C_16
REMARK    4  A    between atoms: C_18  and  O_19
REMARK                            x       y       z     vdW  Elec       q    Type
REMARK                         _______ _______ _______ _____ _____    ______ ____
ROOT
ATOM      1  C   UNL     1      -0.492   9.656  20.728  0.00  0.00    +0.000 C 
ATOM      2  C   UNL     1       0.045   8.348  21.320  0.00  0.00    +0.000 C 
ATOM      3  C   UNL     1       1.503   8.033  20.979  0.00  0.00    +0.000 C 
ATOM      4  N   UNL     1       1.857   8.319  19.586  0.00  0.00    +0.000 N 
ATOM      5  C   UNL     1       2.595   7.527  18.701  0.00  0.00    +0.000 C 
ATOM      6  O   UNL     1       2.835   7.871  17.545  0.00  0.00    +0.000 OA
ATOM      7  C   UNL     1       1.444   9.632  19.107  0.00  0.00    +0.000 C 
ATOM      8  C   UNL     1      -0.067   9.773  19.256  0.00  0.00    +0.000 C 
ENDROOT
BRANCH   5   9
ATOM      9  C   UNL     1       3.064   6.177  19.085  0.00  0.00    +0.000 A 
ATOM     10  C   UNL     1       4.303   5.764  18.568  0.00  0.00    +0.000 A 
ATOM     11  C   UNL     1       4.781   4.490  18.858  0.00  0.00    +0.000 A 
ATOM     12  C   UNL     1       4.030   3.613  19.636  0.00  0.00    +0.000 A 
ATOM     13  C   UNL     1       2.826   4.046  20.183  0.00  0.00    +0.000 A 
ATOM     14  I   UNL     1       1.667   2.735  21.309  0.00  0.00    +0.000 I 
ATOM     15  C   UNL     1       2.359   5.338  19.954  0.00  0.00    +0.000 A 
BRANCH  11  16
ATOM     16  O   UNL     1       5.982   4.062  18.388  0.00  0.00    +0.000 OA
ATOM     17  H   UNL     1       5.840   3.587  17.551  0.00  0.00    +0.000 HD
ENDBRANCH  11  16
ENDBRANCH   5   9
BRANCH   1  19
ATOM     18  O   UNL     1       0.428  10.839  22.628  0.00  0.00    +0.000 OA
ATOM     19  C   UNL     1      -0.081  10.911  21.511  0.00  0.00    +0.000 C 
BRANCH  19  20
ATOM     20  C   UNL     1      -0.199  12.267  20.897  0.00  0.00    +0.000 A 
ATOM     21  C   UNL     1       0.991  12.975  20.656  0.00  0.00    +0.000 A 
ATOM     22  C   UNL     1       0.970  14.190  19.970  0.00  0.00    +0.000 A 
ATOM     23  C   UNL     1      -0.245  14.712  19.535  0.00  0.00    +0.000 A 
ATOM     24 CL   UNL     1      -0.272  16.165  18.617  0.00  0.00    +0.000 Cl
ATOM     25  C   UNL     1      -1.437  14.045  19.813  0.00  0.00    +0.000 A 
ATOM     26  C   UNL     1      -1.417  12.821  20.490  0.00  0.00    +0.000 A 
ENDBRANCH  19  20
ENDBRANCH   1  19
TORSDOF 4
ENDMDL
MODEL 9
REMARK VINA RESULT:      -6.9      4.726      8.719
REMARK  Name = 
REMARK  4 active torsions:
REMARK  status: ('A' for Active; 'I' for Inactive)
REMARK    1  A    between atoms: C_2  and  C_3
REMARK    2  A    between atoms: C_2  and  C_10
REMARK    3  A    between atoms: C_14  and  C_16
REMARK    4  A    between atoms: C_18  and  O_19
REMARK                            x       y       z     vdW  Elec       q    Type
REMARK                         _______ _______ _______ _____ _____    ______ ____
ROOT
ATOM      1  C   UNL     1       2.278   5.202  18.672  0.00  0.00    +0.000 C 
ATOM      2  C   UNL     1       1.975   6.467  17.862  0.00  0.00    +0.000 C 
ATOM      3  C   UNL     1       2.255   7.784  18.587  0.00  0.00    +0.000 C 
ATOM      4  N   UNL     1       1.833   7.785  19.991  0.00  0.00    +0.000 N 
ATOM      5  C   UNL     1       1.145   8.783  20.686  0.00  0.00    +0.000 C 
ATOM      6  O   UNL     1       0.842   8.677  21.874  0.00  0.00    +0.000 OA
ATOM      7  C   UNL     1       2.262   6.624  20.759  0.00  0.00    +0.000 C 
ATOM      8  C   UNL     1       1.730   5.356  20.100  0.00  0.00    +0.000 C 
ENDROOT
BRANCH   5   9
ATOM      9  C   UNL     1       0.664  10.005  20.003  0.00  0.00    +0.000 A 
ATOM     10  C   UNL     1      -0.675  10.010  19.577  0.00  0.00    +0.000 A 
ATOM     11  C   UNL     1      -1.177  11.112  18.892  0.00  0.00    +0.000 A 
ATOM     12  C   UNL     1      -0.356  12.200  18.607  0.00  0.00    +0.000 A 
ATOM     13  C   UNL     1       0.955  12.208  19.073  0.00  0.00    +0.000 A 
ATOM     14  I   UNL     1       2.209  13.804  18.614  0.00  0.00    +0.000 I 
ATOM     15  C   UNL     1       1.458  11.140  19.812  0.00  0.00    +0.000 A 
BRANCH  11  16
ATOM     16  O   UNL     1      -2.470  11.158  18.478  0.00  0.00    +0.000 OA
ATOM     17  H   UNL     1      -2.912  11.907  18.912  0.00  0.00    +0.000 HD
ENDBRANCH  11  16
ENDBRANCH   5   9
BRANCH   1  19
ATOM     18  O   UNL     1       4.291   4.347  19.708  0.00  0.00    +0.000 OA
ATOM     19  C   UNL     1       3.765   4.821  18.702  0.00  0.00    +0.000 C 
BRANCH  19  20
ATOM     20  C   UNL     1       4.605   4.926  17.473  0.00  0.00    +0.000 A 
ATOM     21  C   UNL     1       5.582   5.936  17.441  0.00  0.00    +0.000 A 
ATOM     22  C   UNL     1       6.489   6.016  16.383  0.00  0.00    +0.000 A 
ATOM     23  C   UNL     1       6.412   5.095  15.342  0.00  0.00    +0.000 A 
ATOM     24 CL   UNL     1       7.576   5.135  14.078  0.00  0.00    +0.000 Cl
ATOM     25  C   UNL     1       5.416   4.120  15.337  0.00  0.00    +0.000 A 
ATOM     26  C   UNL     1       4.514   4.031  16.403  0.00  0.00    +0.000 A 
ENDBRANCH  19  20
ENDBRANCH   1  19
TORSDOF 4
ENDMDL
