MODEL 1
REMARK VINA RESULT:      -8.9      0.000      0.000
REMARK  Name = 
REMARK  7 active torsions:
REMARK  status: ('A' for Active; 'I' for Inactive)
REMARK    1  A    between atoms: C_1  and  N_2
REMARK    2  A    between atoms: C_3  and  C_5
REMARK    3  A    between atoms: C_8  and  C_9
REMARK    4  A    between atoms: C_10  and  N_11
REMARK    5  A    between atoms: N_11  and  C_12
REMARK    6  A    between atoms: N_20  and  C_21
REMARK    7  A    between atoms: C_21  and  C_22
REMARK                            x       y       z     vdW  Elec       q    Type
REMARK                         _______ _______ _______ _____ _____    ______ ____
ROOT
ATOM      1  C   UNL     1       2.083   7.524  19.761  0.00  0.00    +0.000 A 
ATOM      2  N   UNL     1       2.567   7.669  18.494  0.00  0.00    +0.000 NA
ATOM      3  C   UNL     1       2.286   8.779  17.795  0.00  0.00    +0.000 A 
ATOM      4  N   UNL     1       1.528   9.810  18.174  0.00  0.00    +0.000 NA
ATOM      5  C   UNL     1       1.019   9.619  19.404  0.00  0.00    +0.000 A 
ATOM      6  C   UNL     1       1.235   8.532  20.237  0.00  0.00    +0.000 A 
ATOM      7  C   UNL     1       0.481   8.831  21.392  0.00  0.00    +0.000 A 
ATOM      8  N   UNL     1      -0.189   9.988  21.300  0.00  0.00    +0.000 NA
ATOM      9  N   UNL     1       0.162  10.456  20.074  0.00  0.00    +0.000 N 
ENDROOT
BRANCH   1  10
ATOM     10  N   UNL     1       2.507   6.408  20.518  0.00  0.00    +0.000 N 
ATOM     11  H   UNL     1       3.059   6.683  21.326  0.00  0.00    +0.000 HD
BRANCH  10  17
ATOM     12  C   UNL     1       4.884   4.240  18.621  0.00  0.00    +0.000 A 
ATOM     13  C   UNL     1       4.302   2.985  18.781  0.00  0.00    +0.000 A 
ATOM     14  C   UNL     1       3.101   2.858  19.488  0.00  0.00    +0.000 A 
ATOM     15  C   UNL     1       2.468   3.979  20.062  0.00  0.00    +0.000 A 
ATOM     16  C   UNL     1       1.161   3.800  20.787  0.00  0.00    +0.000 C 
ATOM     17  C   UNL     1       3.062   5.246  19.913  0.00  0.00    +0.000 A 
ATOM     18  C   UNL     1       4.278   5.346  19.211  0.00  0.00    +0.000 A 
BRANCH  12  21
ATOM     19  C   UNL     1       7.205   4.608  15.645  0.00  0.00    +0.000 C 
ATOM     20  N   UNL     1       6.053   4.442  16.498  0.00  0.00    +0.000 N 
ATOM     21  C   UNL     1       6.166   4.404  17.876  0.00  0.00    +0.000 C 
ATOM     22  O   UNL     1       7.226   4.485  18.477  0.00  0.00    +0.000 OA
ATOM     23  H   UNL     1       5.208   4.075  16.082  0.00  0.00    +0.000 HD
ENDBRANCH  12  21
ENDBRANCH  10  17
ENDBRANCH   1  10
BRANCH   9  24
ATOM     24  C   UNL     1      -0.524  11.599  19.492  0.00  0.00    +0.000 C 
BRANCH  24  25
ATOM     25  C   UNL     1      -1.885  11.263  18.937  0.00  0.00    +0.000 A 
ATOM     26  C   UNL     1      -2.995  12.067  19.238  0.00  0.00    +0.000 A 
ATOM     27  C   UNL     1      -4.240  11.804  18.661  0.00  0.00    +0.000 A 
ATOM     28  C   UNL     1      -4.389  10.735  17.781  0.00  0.00    +0.000 A 
ATOM     29  C   UNL     1      -3.300   9.916  17.491  0.00  0.00    +0.000 A 
ATOM     30  C   UNL     1      -2.056  10.171  18.072  0.00  0.00    +0.000 A 
ENDBRANCH  24  25
ENDBRANCH   9  24
TORSDOF 5
ENDMDL
MODEL 2
REMARK VINA RESULT:      -8.9      1.363      2.233
REMARK  Name = 
REMARK  7 active torsions:
REMARK  status: ('A' for Active; 'I' for Inactive)
REMARK    1  A    between atoms: C_1  and  N_2
REMARK    2  A    between atoms: C_3  and  C_5
REMARK    3  A    between atoms: C_8  and  C_9
REMARK    4  A    between atoms: C_10  and  N_11
REMARK    5  A    between atoms: N_11  and  C_12
REMARK    6  A    between atoms: N_20  and  C_21
REMARK    7  A    between atoms: C_21  and  C_22
REMARK                            x       y       z     vdW  Elec       q    Type
REMARK                         _______ _______ _______ _____ _____    ______ ____
ROOT
ATOM      1  C   UNL     1       1.914   7.459  20.385  0.00  0.00    +0.000 A 
ATOM      2  N   UNL     1       1.102   7.550  21.477  0.00  0.00    +0.000 NA
ATOM      3  C   UNL     1       0.133   8.476  21.513  0.00  0.00    +0.000 A 
ATOM      4  N   UNL     1      -0.146   9.399  20.590  0.00  0.00    +0.000 NA
ATOM      5  C   UNL     1       0.701   9.324  19.548  0.00  0.00    +0.000 A 
ATOM      6  C   UNL     1       1.733   8.414  19.377  0.00  0.00    +0.000 A 
ATOM      7  C   UNL     1       2.299   8.769  18.133  0.00  0.00    +0.000 A 
ATOM      8  N   UNL     1       1.709   9.832  17.570  0.00  0.00    +0.000 NA
ATOM      9  N   UNL     1       0.728  10.151  18.453  0.00  0.00    +0.000 N 
ENDROOT
BRANCH   1  10
ATOM     10  N   UNL     1       2.835   6.389  20.321  0.00  0.00    +0.000 N 
ATOM     11  H   UNL     1       3.773   6.675  20.589  0.00  0.00    +0.000 HD
BRANCH  10  17
ATOM     12  C   UNL     1       3.980   4.845  17.119  0.00  0.00    +0.000 A 
ATOM     13  C   UNL     1       3.157   3.725  17.041  0.00  0.00    +0.000 A 
ATOM     14  C   UNL     1       2.196   3.495  18.033  0.00  0.00    +0.000 A 
ATOM     15  C   UNL     1       2.050   4.373  19.126  0.00  0.00    +0.000 A 
ATOM     16  C   UNL     1       0.981   4.104  20.152  0.00  0.00    +0.000 C 
ATOM     17  C   UNL     1       2.890   5.497  19.213  0.00  0.00    +0.000 A 
ATOM     18  C   UNL     1       3.859   5.698  18.212  0.00  0.00    +0.000 A 
BRANCH  12  21
ATOM     19  C   UNL     1       6.465   4.101  14.353  0.00  0.00    +0.000 C 
ATOM     20  N   UNL     1       5.473   3.999  15.395  0.00  0.00    +0.000 N 
ATOM     21  C   UNL     1       5.016   5.111  16.078  0.00  0.00    +0.000 C 
ATOM     22  O   UNL     1       5.416   6.248  15.879  0.00  0.00    +0.000 OA
ATOM     23  H   UNL     1       5.322   3.091  15.814  0.00  0.00    +0.000 HD
ENDBRANCH  12  21
ENDBRANCH  10  17
ENDBRANCH   1  10
BRANCH   9  24
ATOM     24  C   UNL     1      -0.017  11.393  18.318  0.00  0.00    +0.000 C 
BRANCH  24  25
ATOM     25  C   UNL     1      -1.485  11.185  18.047  0.00  0.00    +0.000 A 
ATOM     26  C   UNL     1      -1.910  10.196  17.147  0.00  0.00    +0.000 A 
ATOM     27  C   UNL     1      -3.271   9.948  16.954  0.00  0.00    +0.000 A 
ATOM     28  C   UNL     1      -4.221  10.687  17.655  0.00  0.00    +0.000 A 
ATOM     29  C   UNL     1      -3.813  11.688  18.535  0.00  0.00    +0.000 A 
ATOM     30  C   UNL     1      -2.453  11.942  18.724  0.00  0.00    +0.000 A 
ENDBRANCH  24  25
ENDBRANCH   9  24
TORSDOF 5
ENDMDL
MODEL 3
REMARK VINA RESULT:      -8.7      3.499      9.172
REMARK  Name = 
REMARK  7 active torsions:
REMARK  status: ('A' for Active; 'I' for Inactive)
REMARK    1  A    between atoms: C_1  and  N_2
REMARK    2  A    between atoms: C_3  and  C_5
REMARK    3  A    between atoms: C_8  and  C_9
REMARK    4  A    between atoms: C_10  and  N_11
REMARK    5  A    between atoms: N_11  and  C_12
REMARK    6  A    between atoms: N_20  and  C_21
REMARK    7  A    between atoms: C_21  and  C_22
REMARK                            x       y       z     vdW  Elec       q    Type
REMARK                         _______ _______ _______ _____ _____    ______ ____
ROOT
ATOM      1  C   UNL     1       0.087  10.132  19.565  0.00  0.00    +0.000 A 
ATOM      2  N   UNL     1      -0.263   9.900  20.863  0.00  0.00    +0.000 NA
ATOM      3  C   UNL     1       0.368   8.949  21.565  0.00  0.00    +0.000 A 
ATOM      4  N   UNL     1       1.327   8.124  21.139  0.00  0.00    +0.000 NA
ATOM      5  C   UNL     1       1.618   8.335  19.843  0.00  0.00    +0.000 A 
ATOM      6  C   UNL     1       1.054   9.287  19.007  0.00  0.00    +0.000 A 
ATOM      7  C   UNL     1       1.706   9.085  17.771  0.00  0.00    +0.000 A 
ATOM      8  N   UNL     1       2.583   8.073  17.797  0.00  0.00    +0.000 NA
ATOM      9  N   UNL     1       2.516   7.633  19.080  0.00  0.00    +0.000 N 
ENDROOT
BRANCH   1  10
ATOM     10  N   UNL     1      -0.502  11.229  18.897  0.00  0.00    +0.000 N 
ATOM     11  H   UNL     1      -0.060  12.110  19.145  0.00  0.00    +0.000 HD
BRANCH  10  17
ATOM     12  C   UNL     1      -3.937  12.496  19.635  0.00  0.00    +0.000 A 
ATOM     13  C   UNL     1      -4.681  11.883  18.630  0.00  0.00    +0.000 A 
ATOM     14  C   UNL     1      -4.052  11.020  17.725  0.00  0.00    +0.000 A 
ATOM     15  C   UNL     1      -2.668  10.766  17.798  0.00  0.00    +0.000 A 
ATOM     16  C   UNL     1      -2.039   9.806  16.823  0.00  0.00    +0.000 C 
ATOM     17  C   UNL     1      -1.913  11.396  18.804  0.00  0.00    +0.000 A 
ATOM     18  C   UNL     1      -2.565  12.271  19.692  0.00  0.00    +0.000 A 
BRANCH  12  21
ATOM     19  C   UNL     1      -5.887  15.503  20.874  0.00  0.00    +0.000 C 
ATOM     20  N   UNL     1      -5.211  14.525  20.057  0.00  0.00    +0.000 N 
ATOM     21  C   UNL     1      -4.582  13.424  20.610  0.00  0.00    +0.000 C 
ATOM     22  O   UNL     1      -4.527  13.197  21.808  0.00  0.00    +0.000 OA
ATOM     23  H   UNL     1      -4.957  14.793  19.116  0.00  0.00    +0.000 HD
ENDBRANCH  12  21
ENDBRANCH  10  17
ENDBRANCH   1  10
BRANCH   9  24
ATOM     24  C   UNL     1       3.165   6.392  19.473  0.00  0.00    +0.000 C 
BRANCH  24  25
ATOM     25  C   UNL     1       2.280   5.180  19.327  0.00  0.00    +0.000 A 
ATOM     26  C   UNL     1       2.112   4.567  18.076  0.00  0.00    +0.000 A 
ATOM     27  C   UNL     1       1.358   3.399  17.952  0.00  0.00    +0.000 A 
ATOM     28  C   UNL     1       0.761   2.832  19.076  0.00  0.00    +0.000 A 
ATOM     29  C   UNL     1       0.901   3.443  20.321  0.00  0.00    +0.000 A 
ATOM     30  C   UNL     1       1.649   4.615  20.446  0.00  0.00    +0.000 A 
ENDBRANCH  24  25
ENDBRANCH   9  24
TORSDOF 5
ENDMDL
MODEL 4
REMARK VINA RESULT:      -8.6      3.480      9.116
REMARK  Name = 
REMARK  7 active torsions:
REMARK  status: ('A' for Active; 'I' for Inactive)
REMARK    1  A    between atoms: C_1  and  N_2
REMARK    2  A    between atoms: C_3  and  C_5
REMARK    3  A    between atoms: C_8  and  C_9
REMARK    4  A    between atoms: C_10  and  N_11
REMARK    5  A    between atoms: N_11  and  C_12
REMARK    6  A    between atoms: N_20  and  C_21
REMARK    7  A    between atoms: C_21  and  C_22
REMARK                            x       y       z     vdW  Elec       q    Type
REMARK                         _______ _______ _______ _____ _____    ______ ____
ROOT
ATOM      1  C   UNL     1       0.085  10.037  19.483  0.00  0.00    +0.000 A 
ATOM      2  N   UNL     1      -0.292   9.821  20.776  0.00  0.00    +0.000 NA
ATOM      3  C   UNL     1       0.341   8.895  21.511  0.00  0.00    +0.000 A 
ATOM      4  N   UNL     1       1.326   8.082  21.123  0.00  0.00    +0.000 NA
ATOM      5  C   UNL     1       1.644   8.277  19.831  0.00  0.00    +0.000 A 
ATOM      6  C   UNL     1       1.082   9.201  18.964  0.00  0.00    +0.000 A 
ATOM      7  C   UNL     1       1.767   8.990  17.748  0.00  0.00    +0.000 A 
ATOM      8  N   UNL     1       2.664   7.997  17.814  0.00  0.00    +0.000 NA
ATOM      9  N   UNL     1       2.575   7.579  19.103  0.00  0.00    +0.000 N 
ENDROOT
BRANCH   1  10
ATOM     10  N   UNL     1      -0.510  11.109  18.780  0.00  0.00    +0.000 N 
ATOM     11  H   UNL     1      -0.022  11.987  18.939  0.00  0.00    +0.000 HD
BRANCH  10  17
ATOM     12  C   UNL     1      -3.861  12.445  19.747  0.00  0.00    +0.000 A 
ATOM     13  C   UNL     1      -4.673  11.902  18.754  0.00  0.00    +0.000 A 
ATOM     14  C   UNL     1      -4.118  11.063  17.781  0.00  0.00    +0.000 A 
ATOM     15  C   UNL     1      -2.740  10.764  17.773  0.00  0.00    +0.000 A 
ATOM     16  C   UNL     1      -2.193   9.831  16.725  0.00  0.00    +0.000 C 
ATOM     17  C   UNL     1      -1.917  11.323  18.766  0.00  0.00    +0.000 A 
ATOM     18  C   UNL     1      -2.496  12.175  19.725  0.00  0.00    +0.000 A 
BRANCH  12  21
ATOM     19  C   UNL     1      -6.395  13.840  22.198  0.00  0.00    +0.000 C 
ATOM     20  N   UNL     1      -5.721  13.063  21.187  0.00  0.00    +0.000 N 
ATOM     21  C   UNL     1      -4.426  13.346  20.794  0.00  0.00    +0.000 C 
ATOM     22  O   UNL     1      -3.761  14.267  21.242  0.00  0.00    +0.000 OA
ATOM     23  H   UNL     1      -6.290  12.496  20.572  0.00  0.00    +0.000 HD
ENDBRANCH  12  21
ENDBRANCH  10  17
ENDBRANCH   1  10
BRANCH   9  24
ATOM     24  C   UNL     1       3.238   6.359  19.535  0.00  0.00    +0.000 C 
BRANCH  24  25
ATOM     25  C   UNL     1       2.381   5.127  19.392  0.00  0.00    +0.000 A 
ATOM     26  C   UNL     1       1.752   4.563  20.513  0.00  0.00    +0.000 A 
ATOM     27  C   UNL     1       0.895   3.470  20.372  0.00  0.00    +0.000 A 
ATOM     28  C   UNL     1       0.658   2.927  19.111  0.00  0.00    +0.000 A 
ATOM     29  C   UNL     1       1.293   3.464  17.992  0.00  0.00    +0.000 A 
ATOM     30  C   UNL     1       2.157   4.552  18.132  0.00  0.00    +0.000 A 
ENDBRANCH  24  25
ENDBRANCH   9  24
TORSDOF 5
ENDMDL
MODEL 5
REMARK VINA RESULT:      -8.5      3.382      8.230
REMARK  Name = 
REMARK  7 active torsions:
REMARK  status: ('A' for Active; 'I' for Inactive)
REMARK    1  A    between atoms: C_1  and  N_2
REMARK    2  A    between atoms: C_3  and  C_5
REMARK    3  A    between atoms: C_8  and  C_9
REMARK    4  A    between atoms: C_10  and  N_11
REMARK    5  A    between atoms: N_11  and  C_12
REMARK    6  A    between atoms: N_20  and  C_21
REMARK    7  A    between atoms: C_21  and  C_22
REMARK                            x       y       z     vdW  Elec       q    Type
REMARK                         _______ _______ _______ _____ _____    ______ ____
ROOT
ATOM      1  C   UNL     1       0.422  10.001  19.160  0.00  0.00    +0.000 A 
ATOM      2  N   UNL     1      -0.088   9.868  20.418  0.00  0.00    +0.000 NA
ATOM      3  C   UNL     1       0.404   8.932  21.243  0.00  0.00    +0.000 A 
ATOM      4  N   UNL     1       1.359   8.037  20.981  0.00  0.00    +0.000 NA
ATOM      5  C   UNL     1       1.808   8.153  19.719  0.00  0.00    +0.000 A 
ATOM      6  C   UNL     1       1.399   9.077  18.770  0.00  0.00    +0.000 A 
ATOM      7  C   UNL     1       2.178   8.767  17.633  0.00  0.00    +0.000 A 
ATOM      8  N   UNL     1       2.989   7.718  17.820  0.00  0.00    +0.000 NA
ATOM      9  N   UNL     1       2.749   7.362  19.109  0.00  0.00    +0.000 N 
ENDROOT
BRANCH   1  10
ATOM     10  N   UNL     1      -0.024  11.081  18.366  0.00  0.00    +0.000 N 
ATOM     11  H   UNL     1       0.226  10.965  17.387  0.00  0.00    +0.000 HD
BRANCH  10  17
ATOM     12  C   UNL     1       1.606  14.402  18.876  0.00  0.00    +0.000 A 
ATOM     13  C   UNL     1       0.554  15.151  19.397  0.00  0.00    +0.000 A 
ATOM     14  C   UNL     1      -0.691  14.548  19.614  0.00  0.00    +0.000 A 
ATOM     15  C   UNL     1      -0.911  13.192  19.299  0.00  0.00    +0.000 A 
ATOM     16  C   UNL     1      -2.256  12.577  19.578  0.00  0.00    +0.000 C 
ATOM     17  C   UNL     1       0.148  12.438  18.760  0.00  0.00    +0.000 A 
ATOM     18  C   UNL     1       1.385  13.071  18.537  0.00  0.00    +0.000 A 
BRANCH  12  21
ATOM     19  C   UNL     1       5.235  14.638  17.800  0.00  0.00    +0.000 C 
ATOM     20  N   UNL     1       3.901  14.178  18.101  0.00  0.00    +0.000 N 
ATOM     21  C   UNL     1       2.942  15.021  18.632  0.00  0.00    +0.000 C 
ATOM     22  O   UNL     1       3.139  16.195  18.904  0.00  0.00    +0.000 OA
ATOM     23  H   UNL     1       3.755  13.181  18.187  0.00  0.00    +0.000 HD
ENDBRANCH  12  21
ENDBRANCH  10  17
ENDBRANCH   1  10
BRANCH   9  24
ATOM     24  C   UNL     1       3.279   6.118  19.646  0.00  0.00    +0.000 C 
BRANCH  24  25
ATOM     25  C   UNL     1       2.340   4.949  19.487  0.00  0.00    +0.000 A 
ATOM     26  C   UNL     1       2.145   4.357  18.230  0.00  0.00    +0.000 A 
ATOM     27  C   UNL     1       1.339   3.226  18.094  0.00  0.00    +0.000 A 
ATOM     28  C   UNL     1       0.716   2.675  19.212  0.00  0.00    +0.000 A 
ATOM     29  C   UNL     1       0.883   3.266  20.463  0.00  0.00    +0.000 A 
ATOM     30  C   UNL     1       1.683   4.402  20.600  0.00  0.00    +0.000 A 
ENDBRANCH  24  25
ENDBRANCH   9  24
TORSDOF 5
ENDMDL
MODEL 6
REMARK VINA RESULT:      -8.5      3.046      8.822
REMARK  Name = 
REMARK  7 active torsions:
REMARK  status: ('A' for Active; 'I' for Inactive)
REMARK    1  A    between atoms: C_1  and  N_2
REMARK    2  A    between atoms: C_3  and  C_5
REMARK    3  A    between atoms: C_8  and  C_9
REMARK    4  A    between atoms: C_10  and  N_11
REMARK    5  A    between atoms: N_11  and  C_12
REMARK    6  A    between atoms: N_20  and  C_21
REMARK    7  A    between atoms: C_21  and  C_22
REMARK                            x       y       z     vdW  Elec       q    Type
REMARK                         _______ _______ _______ _____ _____    ______ ____
ROOT
ATOM      1  C   UNL     1       1.119   9.437  19.815  0.00  0.00    +0.000 A 
ATOM      2  N   UNL     1       0.653   8.903  20.981  0.00  0.00    +0.000 NA
ATOM      3  C   UNL     1       1.011   7.661  21.338  0.00  0.00    +0.000 A 
ATOM      4  N   UNL     1       1.779   6.808  20.656  0.00  0.00    +0.000 NA
ATOM      5  C   UNL     1       2.182   7.336  19.487  0.00  0.00    +0.000 A 
ATOM      6  C   UNL     1       1.898   8.604  19.002  0.00  0.00    +0.000 A 
ATOM      7  C   UNL     1       2.555   8.648  17.753  0.00  0.00    +0.000 A 
ATOM      8  N   UNL     1       3.176   7.502  17.444  0.00  0.00    +0.000 NA
ATOM      9  N   UNL     1       2.939   6.715  18.525  0.00  0.00    +0.000 N 
ENDROOT
BRANCH   1  10
ATOM     10  N   UNL     1       0.833  10.792  19.536  0.00  0.00    +0.000 N 
ATOM     11  H   UNL     1       1.380  11.425  20.115  0.00  0.00    +0.000 HD
BRANCH  10  17
ATOM     12  C   UNL     1      -2.538  11.402  18.048  0.00  0.00    +0.000 A 
ATOM     13  C   UNL     1      -3.175  12.091  19.078  0.00  0.00    +0.000 A 
ATOM     14  C   UNL     1      -2.478  12.385  20.256  0.00  0.00    +0.000 A 
ATOM     15  C   UNL     1      -1.138  11.984  20.432  0.00  0.00    +0.000 A 
ATOM     16  C   UNL     1      -0.418  12.350  21.702  0.00  0.00    +0.000 C 
ATOM     17  C   UNL     1      -0.498  11.277  19.398  0.00  0.00    +0.000 A 
ATOM     18  C   UNL     1      -1.224  10.979  18.230  0.00  0.00    +0.000 A 
BRANCH  12  21
ATOM     19  C   UNL     1      -3.032  10.182  14.492  0.00  0.00    +0.000 C 
ATOM     20  N   UNL     1      -2.473  10.559  15.767  0.00  0.00    +0.000 N 
ATOM     21  C   UNL     1      -3.259  11.072  16.784  0.00  0.00    +0.000 C 
ATOM     22  O   UNL     1      -4.461  11.264  16.689  0.00  0.00    +0.000 OA
ATOM     23  H   UNL     1      -1.475  10.712  15.817  0.00  0.00    +0.000 HD
ENDBRANCH  12  21
ENDBRANCH  10  17
ENDBRANCH   1  10
BRANCH   9  24
ATOM     24  C   UNL     1       3.265   5.298  18.497  0.00  0.00    +0.000 C 
BRANCH  24  25
ATOM     25  C   UNL     1       4.664   5.014  18.011  0.00  0.00    +0.000 A 
ATOM     26  C   UNL     1       4.876   4.441  16.748  0.00  0.00    +0.000 A 
ATOM     27  C   UNL     1       6.172   4.250  16.263  0.00  0.00    +0.000 A 
ATOM     28  C   UNL     1       7.268   4.627  17.035  0.00  0.00    +0.000 A 
ATOM     29  C   UNL     1       7.071   5.176  18.301  0.00  0.00    +0.000 A 
ATOM     30  C   UNL     1       5.777   5.361  18.791  0.00  0.00    +0.000 A 
ENDBRANCH  24  25
ENDBRANCH   9  24
TORSDOF 5
ENDMDL
MODEL 7
REMARK VINA RESULT:      -8.4      3.269      8.770
REMARK  Name = 
REMARK  7 active torsions:
REMARK  status: ('A' for Active; 'I' for Inactive)
REMARK    1  A    between atoms: C_1  and  N_2
REMARK    2  A    between atoms: C_3  and  C_5
REMARK    3  A    between atoms: C_8  and  C_9
REMARK    4  A    between atoms: C_10  and  N_11
REMARK    5  A    between atoms: N_11  and  C_12
REMARK    6  A    between atoms: N_20  and  C_21
REMARK    7  A    between atoms: C_21  and  C_22
REMARK                            x       y       z     vdW  Elec       q    Type
REMARK                         _______ _______ _______ _____ _____    ______ ____
ROOT
ATOM      1  C   UNL     1       0.672  10.053  20.178  0.00  0.00    +0.000 A 
ATOM      2  N   UNL     1       0.471   9.352  21.331  0.00  0.00    +0.000 NA
ATOM      3  C   UNL     1       1.008   8.132  21.473  0.00  0.00    +0.000 A 
ATOM      4  N   UNL     1       1.727   7.450  20.578  0.00  0.00    +0.000 NA
ATOM      5  C   UNL     1       1.866   8.138  19.432  0.00  0.00    +0.000 A 
ATOM      6  C   UNL     1       1.377   9.406  19.155  0.00  0.00    +0.000 A 
ATOM      7  C   UNL     1       1.798   9.654  17.831  0.00  0.00    +0.000 A 
ATOM      8  N   UNL     1       2.468   8.628  17.290  0.00  0.00    +0.000 NA
ATOM      9  N   UNL     1       2.502   7.712  18.293  0.00  0.00    +0.000 N 
ENDROOT
BRANCH   1  10
ATOM     10  N   UNL     1       0.208  11.386  20.114  0.00  0.00    +0.000 N 
ATOM     11  H   UNL     1       0.546  11.946  20.892  0.00  0.00    +0.000 HD
BRANCH  10  17
ATOM     12  C   UNL     1      -3.025  11.611  18.256  0.00  0.00    +0.000 A 
ATOM     13  C   UNL     1      -3.853  12.195  19.212  0.00  0.00    +0.000 A 
ATOM     14  C   UNL     1      -3.334  12.548  20.463  0.00  0.00    +0.000 A 
ATOM     15  C   UNL     1      -1.983  12.310  20.788  0.00  0.00    +0.000 A 
ATOM     16  C   UNL     1      -1.460  12.735  22.134  0.00  0.00    +0.000 C 
ATOM     17  C   UNL     1      -1.149  11.708  19.829  0.00  0.00    +0.000 A 
ATOM     18  C   UNL     1      -1.698  11.348  18.584  0.00  0.00    +0.000 A 
BRANCH  12  21
ATOM     19  C   UNL     1      -3.005  10.192  14.740  0.00  0.00    +0.000 C 
ATOM     20  N   UNL     1      -2.637  10.632  16.063  0.00  0.00    +0.000 N 
ATOM     21  C   UNL     1      -3.553  11.221  16.917  0.00  0.00    +0.000 C 
ATOM     22  O   UNL     1      -4.720  11.432  16.626  0.00  0.00    +0.000 OA
ATOM     23  H   UNL     1      -1.654  10.767  16.259  0.00  0.00    +0.000 HD
ENDBRANCH  12  21
ENDBRANCH  10  17
ENDBRANCH   1  10
BRANCH   9  24
ATOM     24  C   UNL     1       2.958   6.354  18.042  0.00  0.00    +0.000 C 
BRANCH  24  25
ATOM     25  C   UNL     1       4.455   6.199  18.127  0.00  0.00    +0.000 A 
ATOM     26  C   UNL     1       5.038   5.488  19.187  0.00  0.00    +0.000 A 
ATOM     27  C   UNL     1       6.417   5.274  19.226  0.00  0.00    +0.000 A 
ATOM     28  C   UNL     1       7.229   5.771  18.209  0.00  0.00    +0.000 A 
ATOM     29  C   UNL     1       6.665   6.498  17.162  0.00  0.00    +0.000 A 
ATOM     30  C   UNL     1       5.287   6.719  17.124  0.00  0.00    +0.000 A 
ENDBRANCH  24  25
ENDBRANCH   9  24
TORSDOF 5
ENDMDL
MODEL 8
REMARK VINA RESULT:      -8.3      3.462      8.314
REMARK  Name = 
REMARK  7 active torsions:
REMARK  status: ('A' for Active; 'I' for Inactive)
REMARK    1  A    between atoms: C_1  and  N_2
REMARK    2  A    between atoms: C_3  and  C_5
REMARK    3  A    between atoms: C_8  and  C_9
REMARK    4  A    between atoms: C_10  and  N_11
REMARK    5  A    between atoms: N_11  and  C_12
REMARK    6  A    between atoms: N_20  and  C_21
REMARK    7  A    between atoms: C_21  and  C_22
REMARK                            x       y       z     vdW  Elec       q    Type
REMARK                         _______ _______ _______ _____ _____    ______ ____
ROOT
ATOM      1  C   UNL     1       0.691  10.774  19.821  0.00  0.00    +0.000 A 
ATOM      2  N   UNL     1       1.217  11.134  18.614  0.00  0.00    +0.000 NA
ATOM      3  C   UNL     1       1.901  10.237  17.890  0.00  0.00    +0.000 A 
ATOM      4  N   UNL     1       2.186   8.974  18.216  0.00  0.00    +0.000 NA
ATOM      5  C   UNL     1       1.704   8.660  19.431  0.00  0.00    +0.000 A 
ATOM      6  C   UNL     1       0.974   9.481  20.276  0.00  0.00    +0.000 A 
ATOM      7  C   UNL     1       0.721   8.671  21.405  0.00  0.00    +0.000 A 
ATOM      8  N   UNL     1       1.267   7.451  21.312  0.00  0.00    +0.000 NA
ATOM      9  N   UNL     1       1.860   7.466  20.090  0.00  0.00    +0.000 N 
ENDROOT
BRANCH   1  10
ATOM     10  N   UNL     1      -0.136  11.700  20.495  0.00  0.00    +0.000 N 
ATOM     11  H   UNL     1      -0.077  11.601  21.505  0.00  0.00    +0.000 HD
BRANCH  10  17
ATOM     12  C   UNL     1      -3.250  11.648  18.433  0.00  0.00    +0.000 A 
ATOM     13  C   UNL     1      -4.157  12.275  19.285  0.00  0.00    +0.000 A 
ATOM     14  C   UNL     1      -3.731  12.748  20.531  0.00  0.00    +0.000 A 
ATOM     15  C   UNL     1      -2.396  12.590  20.956  0.00  0.00    +0.000 A 
ATOM     16  C   UNL     1      -1.974  13.143  22.291  0.00  0.00    +0.000 C 
ATOM     17  C   UNL     1      -1.483  11.944  20.103  0.00  0.00    +0.000 A 
ATOM     18  C   UNL     1      -1.939  11.464  18.861  0.00  0.00    +0.000 A 
BRANCH  12  21
ATOM     19  C   UNL     1      -2.916  10.332  14.893  0.00  0.00    +0.000 C 
ATOM     20  N   UNL     1      -2.656  10.850  16.213  0.00  0.00    +0.000 N 
ATOM     21  C   UNL     1      -3.679  11.130  17.101  0.00  0.00    +0.000 C 
ATOM     22  O   UNL     1      -4.864  10.985  16.846  0.00  0.00    +0.000 OA
ATOM     23  H   UNL     1      -1.752  11.271  16.385  0.00  0.00    +0.000 HD
ENDBRANCH  12  21
ENDBRANCH  10  17
ENDBRANCH   1  10
BRANCH   9  24
ATOM     24  C   UNL     1       2.756   6.394  19.687  0.00  0.00    +0.000 C 
BRANCH  24  25
ATOM     25  C   UNL     1       2.049   5.089  19.420  0.00  0.00    +0.000 A 
ATOM     26  C   UNL     1       1.908   4.612  18.108  0.00  0.00    +0.000 A 
ATOM     27  C   UNL     1       1.324   3.367  17.864  0.00  0.00    +0.000 A 
ATOM     28  C   UNL     1       0.873   2.587  18.927  0.00  0.00    +0.000 A 
ATOM     29  C   UNL     1       0.988   3.060  20.233  0.00  0.00    +0.000 A 
ATOM     30  C   UNL     1       1.564   4.307  20.479  0.00  0.00    +0.000 A 
ENDBRANCH  24  25
ENDBRANCH   9  24
TORSDOF 5
ENDMDL
MODEL 9
REMARK VINA RESULT:      -8.3      1.033      1.375
REMARK  Name = 
REMARK  7 active torsions:
REMARK  status: ('A' for Active; 'I' for Inactive)
REMARK    1  A    between atoms: C_1  and  N_2
REMARK    2  A    between atoms: C_3  and  C_5
REMARK    3  A    between atoms: C_8  and  C_9
REMARK    4  A    between atoms: C_10  and  N_11
REMARK    5  A    between atoms: N_11  and  C_12
REMARK    6  A    between atoms: N_20  and  C_21
REMARK    7  A    between atoms: C_21  and  C_22
REMARK                            x       y       z     vdW  Elec       q    Type
REMARK                         _______ _______ _______ _____ _____    ______ ____
ROOT
ATOM      1  C   UNL     1       1.962   8.003  19.490  0.00  0.00    +0.000 A 
ATOM      2  N   UNL     1       2.453   8.434  18.292  0.00  0.00    +0.000 NA
ATOM      3  C   UNL     1       2.122   9.649  17.832  0.00  0.00    +0.000 A 
ATOM      4  N   UNL     1       1.303  10.538  18.399  0.00  0.00    +0.000 NA
ATOM      5  C   UNL     1       0.790  10.070  19.550  0.00  0.00    +0.000 A 
ATOM      6  C   UNL     1       1.054   8.846  20.144  0.00  0.00    +0.000 A 
ATOM      7  C   UNL     1       0.270   8.858  21.317  0.00  0.00    +0.000 A 
ATOM      8  N   UNL     1      -0.461   9.973  21.451  0.00  0.00    +0.000 NA
ATOM      9  N   UNL     1      -0.121  10.704  20.358  0.00  0.00    +0.000 N 
ENDROOT
BRANCH   1  10
ATOM     10  N   UNL     1       2.437   6.778  20.008  0.00  0.00    +0.000 N 
ATOM     11  H   UNL     1       3.156   6.914  20.714  0.00  0.00    +0.000 HD
BRANCH  10  17
ATOM     12  C   UNL     1       4.202   4.762  17.406  0.00  0.00    +0.000 A 
ATOM     13  C   UNL     1       3.585   3.522  17.551  0.00  0.00    +0.000 A 
ATOM     14  C   UNL     1       2.559   3.358  18.489  0.00  0.00    +0.000 A 
ATOM     15  C   UNL     1       2.140   4.426  19.308  0.00  0.00    +0.000 A 
ATOM     16  C   UNL     1       1.011   4.213  20.280  0.00  0.00    +0.000 C 
ATOM     17  C   UNL     1       2.771   5.676  19.172  0.00  0.00    +0.000 A 
ATOM     18  C   UNL     1       3.811   5.811  18.233  0.00  0.00    +0.000 A 
BRANCH  12  21
ATOM     19  C   UNL     1       6.391   4.077  14.386  0.00  0.00    +0.000 C 
ATOM     20  N   UNL     1       5.387   4.009  15.420  0.00  0.00    +0.000 N 
ATOM     21  C   UNL     1       5.301   4.963  16.417  0.00  0.00    +0.000 C 
ATOM     22  O   UNL     1       6.060   5.914  16.521  0.00  0.00    +0.000 OA
ATOM     23  H   UNL     1       4.930   3.120  15.575  0.00  0.00    +0.000 HD
ENDBRANCH  12  21
ENDBRANCH  10  17
ENDBRANCH   1  10
BRANCH   9  24
ATOM     24  C   UNL     1      -0.861  11.906  20.010  0.00  0.00    +0.000 C 
BRANCH  24  25
ATOM     25  C   UNL     1      -2.146  11.627  19.272  0.00  0.00    +0.000 A 
ATOM     26  C   UNL     1      -2.193  10.647  18.269  0.00  0.00    +0.000 A 
ATOM     27  C   UNL     1      -3.399  10.331  17.640  0.00  0.00    +0.000 A 
ATOM     28  C   UNL     1      -4.570  10.992  18.004  0.00  0.00    +0.000 A 
ATOM     29  C   UNL     1      -4.533  11.984  18.983  0.00  0.00    +0.000 A 
ATOM     30  C   UNL     1      -3.327  12.306  19.608  0.00  0.00    +0.000 A 
ENDBRANCH  24  25
ENDBRANCH   9  24
TORSDOF 5
ENDMDL
