MODEL 1
REMARK VINA RESULT:      -7.2      0.000      0.000
REMARK  Name = 
REMARK  10 active torsions:
REMARK  status: ('A' for Active; 'I' for Inactive)
REMARK    1  A    between atoms: C_1  and  C_2
REMARK    2  A    between atoms: C_2  and  C_3
REMARK    3  A    between atoms: C_2  and  C_4
REMARK    4  A    between atoms: C_4  and  C_5
REMARK    5  A    between atoms: C_5  and  C_22
REMARK    6  A    between atoms: N_6  and  N_7
REMARK    7  A    between atoms: C_8  and  S_9
REMARK    8  A    between atoms: N_10  and  N_11
REMARK    9  A    between atoms: C_12  and  S_13
REMARK   10  A    between atoms: N_14  and  C_15
REMARK                            x       y       z     vdW  Elec       q    Type
REMARK                         _______ _______ _______ _____ _____    ______ ____
ROOT
ATOM      1  N   UNL     1       4.166   4.514  17.253  0.00  0.00    +0.000 NA
ATOM      2  C   UNL     1       3.284   3.710  17.772  0.00  0.00    +0.000 C 
ATOM      3  N   UNL     1       2.620   3.974  18.953  0.00  0.00    +0.000 N 
ATOM      4  H   UNL     1       1.908   3.282  19.175  0.00  0.00    +0.000 HD
ENDROOT
BRANCH   3   5
ATOM      5  N   UNL     1       2.338   5.262  19.306  0.00  0.00    +0.000 NA
ATOM      6  C   UNL     1       2.087   5.565  20.540  0.00  0.00    +0.000 C 
ATOM      7  N   UNL     1       1.774   6.817  20.994  0.00  0.00    +0.000 N 
ATOM      8  H   UNL     1       1.882   6.976  21.987  0.00  0.00    +0.000 HD
BRANCH   7   9
ATOM      9  C   UNL     1       1.532   7.976  20.226  0.00  0.00    +0.000 A 
ATOM     10  C   UNL     1       2.058   8.142  18.936  0.00  0.00    +0.000 A 
ATOM     11  C   UNL     1       1.809   9.296  18.190  0.00  0.00    +0.000 A 
ATOM     12  C   UNL     1       1.033  10.319  18.723  0.00  0.00    +0.000 A 
ATOM     13  C   UNL     1       0.519  10.193  20.012  0.00  0.00    +0.000 A 
ATOM     14  C   UNL     1       0.772   9.037  20.757  0.00  0.00    +0.000 A 
ATOM     15 CL   UNL     1       0.135   8.945  22.365  0.00  0.00    +0.000 Cl
ENDBRANCH   7   9
BRANCH   6  16
ATOM     16  S   UNL     1       2.180   4.382  21.840  0.00  0.00    +0.000 S 
ATOM     17  H   UNL     1       1.211   3.600  21.346  0.00  0.00    +0.000 HD
ENDBRANCH   6  16
ENDBRANCH   3   5
BRANCH   1  19
ATOM     18  C   UNL     1       5.580   5.010  15.569  0.00  0.00    +0.000 C 
ATOM     19  N   UNL     1       4.732   4.136  16.045  0.00  0.00    +0.000 NA
BRANCH  18  20
ATOM     20  C   UNL     1       6.240   4.712  14.254  0.00  0.00    +0.000 A 
ATOM     21  C   UNL     1       5.723   3.715  13.429  0.00  0.00    +0.000 A 
ATOM     22  C   UNL     1       6.359   3.454  12.219  0.00  0.00    +0.000 A 
ATOM     23  C   UNL     1       7.486   4.192  11.871  0.00  0.00    +0.000 A 
ATOM     24  C   UNL     1       7.931   5.161  12.753  0.00  0.00    +0.000 A 
ATOM     25  N   UNL     1       7.337   5.441  13.936  0.00  0.00    +0.000 NA
ENDBRANCH  18  20
BRANCH  18  26
ATOM     26  C   UNL     1       5.965   6.314  16.282  0.00  0.00    +0.000 C 
BRANCH  26  28
ATOM     27  C   UNL     1       7.654   7.553  17.751  0.00  0.00    +0.000 C 
ATOM     28  C   UNL     1       7.362   6.297  16.929  0.00  0.00    +0.000 C 
ATOM     29  C   UNL     1       7.501   5.069  17.838  0.00  0.00    +0.000 C 
ENDBRANCH  26  28
ENDBRANCH  18  26
ENDBRANCH   1  19
BRANCH   2  30
ATOM     30  S   UNL     1       2.823   2.183  17.034  0.00  0.00    +0.000 S 
ATOM     31  H   UNL     1       3.156   2.600  15.805  0.00  0.00    +0.000 HD
ENDBRANCH   2  30
TORSDOF 8
ENDMDL
MODEL 2
REMARK VINA RESULT:      -6.9      1.140      1.375
REMARK  Name = 
REMARK  10 active torsions:
REMARK  status: ('A' for Active; 'I' for Inactive)
REMARK    1  A    between atoms: C_1  and  C_2
REMARK    2  A    between atoms: C_2  and  C_3
REMARK    3  A    between atoms: C_2  and  C_4
REMARK    4  A    between atoms: C_4  and  C_5
REMARK    5  A    between atoms: C_5  and  C_22
REMARK    6  A    between atoms: N_6  and  N_7
REMARK    7  A    between atoms: C_8  and  S_9
REMARK    8  A    between atoms: N_10  and  N_11
REMARK    9  A    between atoms: C_12  and  S_13
REMARK   10  A    between atoms: N_14  and  C_15
REMARK                            x       y       z     vdW  Elec       q    Type
REMARK                         _______ _______ _______ _____ _____    ______ ____
ROOT
ATOM      1  N   UNL     1       4.332   5.830  17.535  0.00  0.00    +0.000 NA
ATOM      2  C   UNL     1       4.226   5.045  18.568  0.00  0.00    +0.000 C 
ATOM      3  N   UNL     1       3.877   5.493  19.826  0.00  0.00    +0.000 N 
ATOM      4  H   UNL     1       3.762   4.740  20.501  0.00  0.00    +0.000 HD
ENDROOT
BRANCH   3   5
ATOM      5  N   UNL     1       3.037   6.559  19.965  0.00  0.00    +0.000 NA
ATOM      6  C   UNL     1       1.807   6.383  20.328  0.00  0.00    +0.000 C 
ATOM      7  N   UNL     1       0.880   7.380  20.476  0.00  0.00    +0.000 N 
ATOM      8  H   UNL     1       0.062   7.156  21.027  0.00  0.00    +0.000 HD
BRANCH   7   9
ATOM      9  C   UNL     1       1.023   8.744  20.145  0.00  0.00    +0.000 A 
ATOM     10  C   UNL     1       1.350   9.169  18.849  0.00  0.00    +0.000 A 
ATOM     11  C   UNL     1       1.487  10.525  18.538  0.00  0.00    +0.000 A 
ATOM     12  C   UNL     1       1.310  11.488  19.525  0.00  0.00    +0.000 A 
ATOM     13  C   UNL     1       1.010  11.094  20.827  0.00  0.00    +0.000 A 
ATOM     14  C   UNL     1       0.875   9.736  21.134  0.00  0.00    +0.000 A 
ATOM     15 CL   UNL     1       0.532   9.301  22.775  0.00  0.00    +0.000 Cl
ENDBRANCH   7   9
BRANCH   6  16
ATOM     16  S   UNL     1       1.164   4.800  20.752  0.00  0.00    +0.000 S 
ATOM     17  H   UNL     1       2.336   4.321  21.190  0.00  0.00    +0.000 HD
ENDBRANCH   6  16
ENDBRANCH   3   5
BRANCH   1  19
ATOM     18  C   UNL     1       5.839   5.582  15.877  0.00  0.00    +0.000 C 
ATOM     19  N   UNL     1       4.659   5.239  16.324  0.00  0.00    +0.000 NA
BRANCH  18  20
ATOM     20  C   UNL     1       6.289   5.015  14.562  0.00  0.00    +0.000 A 
ATOM     21  C   UNL     1       5.521   4.040  13.927  0.00  0.00    +0.000 A 
ATOM     22  C   UNL     1       5.965   3.526  12.714  0.00  0.00    +0.000 A 
ATOM     23  C   UNL     1       7.157   3.998  12.171  0.00  0.00    +0.000 A 
ATOM     24  C   UNL     1       7.856   4.966  12.871  0.00  0.00    +0.000 A 
ATOM     25  N   UNL     1       7.453   5.487  14.053  0.00  0.00    +0.000 NA
ENDBRANCH  18  20
BRANCH  18  26
ATOM     26  C   UNL     1       6.807   6.511  16.623  0.00  0.00    +0.000 C 
BRANCH  26  28
ATOM     27  C   UNL     1       7.960   4.625  17.914  0.00  0.00    +0.000 C 
ATOM     28  C   UNL     1       7.262   5.984  17.997  0.00  0.00    +0.000 C 
ATOM     29  C   UNL     1       8.217   6.990  18.651  0.00  0.00    +0.000 C 
ENDBRANCH  26  28
ENDBRANCH  18  26
ENDBRANCH   1  19
BRANCH   2  30
ATOM     30  S   UNL     1       4.511   3.314  18.493  0.00  0.00    +0.000 S 
ATOM     31  H   UNL     1       5.473   3.445  17.570  0.00  0.00    +0.000 HD
ENDBRANCH   2  30
TORSDOF 8
ENDMDL
MODEL 3
REMARK VINA RESULT:      -6.8      3.544      9.104
REMARK  Name = 
REMARK  10 active torsions:
REMARK  status: ('A' for Active; 'I' for Inactive)
REMARK    1  A    between atoms: C_1  and  C_2
REMARK    2  A    between atoms: C_2  and  C_3
REMARK    3  A    between atoms: C_2  and  C_4
REMARK    4  A    between atoms: C_4  and  C_5
REMARK    5  A    between atoms: C_5  and  C_22
REMARK    6  A    between atoms: N_6  and  N_7
REMARK    7  A    between atoms: C_8  and  S_9
REMARK    8  A    between atoms: N_10  and  N_11
REMARK    9  A    between atoms: C_12  and  S_13
REMARK   10  A    between atoms: N_14  and  C_15
REMARK                            x       y       z     vdW  Elec       q    Type
REMARK                         _______ _______ _______ _____ _____    ______ ____
ROOT
ATOM      1  N   UNL     1       1.197   9.248  19.715  0.00  0.00    +0.000 NA
ATOM      2  C   UNL     1       1.340   8.551  20.805  0.00  0.00    +0.000 C 
ATOM      3  N   UNL     1       1.520   7.183  20.811  0.00  0.00    +0.000 N 
ATOM      4  H   UNL     1       1.694   6.806  21.740  0.00  0.00    +0.000 HD
ENDROOT
BRANCH   3   5
ATOM      5  N   UNL     1       2.178   6.574  19.782  0.00  0.00    +0.000 NA
ATOM      6  C   UNL     1       2.128   5.288  19.639  0.00  0.00    +0.000 C 
ATOM      7  N   UNL     1       2.767   4.581  18.657  0.00  0.00    +0.000 N 
ATOM      8  H   UNL     1       2.427   3.644  18.484  0.00  0.00    +0.000 HD
BRANCH   7   9
ATOM      9  C   UNL     1       3.691   5.066  17.709  0.00  0.00    +0.000 A 
ATOM     10  C   UNL     1       3.883   6.438  17.485  0.00  0.00    +0.000 A 
ATOM     11  C   UNL     1       4.803   6.902  16.541  0.00  0.00    +0.000 A 
ATOM     12  C   UNL     1       5.547   6.000  15.790  0.00  0.00    +0.000 A 
ATOM     13  C   UNL     1       5.360   4.631  15.972  0.00  0.00    +0.000 A 
ATOM     14  C   UNL     1       4.437   4.171  16.917  0.00  0.00    +0.000 A 
ATOM     15 CL   UNL     1       4.221   2.460  17.081  0.00  0.00    +0.000 Cl
ENDBRANCH   7   9
BRANCH   6  16
ATOM     16  S   UNL     1       1.153   4.259  20.684  0.00  0.00    +0.000 S 
ATOM     17  H   UNL     1       2.198   3.574  21.166  0.00  0.00    +0.000 HD
ENDBRANCH   6  16
ENDBRANCH   3   5
BRANCH   1  19
ATOM     18  C   UNL     1      -0.095  11.074  19.435  0.00  0.00    +0.000 C 
ATOM     19  N   UNL     1       1.057  10.620  19.857  0.00  0.00    +0.000 NA
BRANCH  18  20
ATOM     20  C   UNL     1      -0.348  12.551  19.524  0.00  0.00    +0.000 A 
ATOM     21  C   UNL     1       0.308  13.421  18.656  0.00  0.00    +0.000 A 
ATOM     22  C   UNL     1       0.062  14.785  18.765  0.00  0.00    +0.000 A 
ATOM     23  C   UNL     1      -0.829  15.239  19.734  0.00  0.00    +0.000 A 
ATOM     24  C   UNL     1      -1.434  14.304  20.555  0.00  0.00    +0.000 A 
ATOM     25  N   UNL     1      -1.217  12.971  20.475  0.00  0.00    +0.000 NA
ENDBRANCH  18  20
BRANCH  18  26
ATOM     26  C   UNL     1      -1.218  10.188  18.877  0.00  0.00    +0.000 C 
BRANCH  26  28
ATOM     27  C   UNL     1      -2.174   9.872  16.525  0.00  0.00    +0.000 C 
ATOM     28  C   UNL     1      -2.007  10.818  17.715  0.00  0.00    +0.000 C 
ATOM     29  C   UNL     1      -3.396  11.251  18.201  0.00  0.00    +0.000 C 
ENDBRANCH  26  28
ENDBRANCH  18  26
ENDBRANCH   1  19
BRANCH   2  30
ATOM     30  S   UNL     1       1.324   9.264  22.411  0.00  0.00    +0.000 S 
ATOM     31  H   UNL     1       1.770  10.446  21.963  0.00  0.00    +0.000 HD
ENDBRANCH   2  30
TORSDOF 8
ENDMDL
MODEL 4
REMARK VINA RESULT:      -6.8      3.285      8.880
REMARK  Name = 
REMARK  10 active torsions:
REMARK  status: ('A' for Active; 'I' for Inactive)
REMARK    1  A    between atoms: C_1  and  C_2
REMARK    2  A    between atoms: C_2  and  C_3
REMARK    3  A    between atoms: C_2  and  C_4
REMARK    4  A    between atoms: C_4  and  C_5
REMARK    5  A    between atoms: C_5  and  C_22
REMARK    6  A    between atoms: N_6  and  N_7
REMARK    7  A    between atoms: C_8  and  S_9
REMARK    8  A    between atoms: N_10  and  N_11
REMARK    9  A    between atoms: C_12  and  S_13
REMARK   10  A    between atoms: N_14  and  C_15
REMARK                            x       y       z     vdW  Elec       q    Type
REMARK                         _______ _______ _______ _____ _____    ______ ____
ROOT
ATOM      1  N   UNL     1       1.640   9.063  19.604  0.00  0.00    +0.000 NA
ATOM      2  C   UNL     1       1.379   8.152  20.496  0.00  0.00    +0.000 C 
ATOM      3  N   UNL     1       1.756   6.831  20.362  0.00  0.00    +0.000 N 
ATOM      4  H   UNL     1       1.544   6.268  21.183  0.00  0.00    +0.000 HD
ENDROOT
BRANCH   3   5
ATOM      5  N   UNL     1       2.902   6.511  19.693  0.00  0.00    +0.000 NA
ATOM      6  C   UNL     1       2.976   5.420  19.000  0.00  0.00    +0.000 C 
ATOM      7  N   UNL     1       4.082   4.998  18.313  0.00  0.00    +0.000 N 
ATOM      8  H   UNL     1       3.927   4.300  17.597  0.00  0.00    +0.000 HD
BRANCH   7   9
ATOM      9  C   UNL     1       5.372   5.569  18.323  0.00  0.00    +0.000 A 
ATOM     10  C   UNL     1       6.314   5.271  19.318  0.00  0.00    +0.000 A 
ATOM     11  C   UNL     1       7.588   5.846  19.313  0.00  0.00    +0.000 A 
ATOM     12  C   UNL     1       7.944   6.743  18.313  0.00  0.00    +0.000 A 
ATOM     13  C   UNL     1       7.020   7.078  17.325  0.00  0.00    +0.000 A 
ATOM     14  C   UNL     1       5.746   6.501  17.336  0.00  0.00    +0.000 A 
ATOM     15 CL   UNL     1       4.625   6.976  16.103  0.00  0.00    +0.000 Cl
ENDBRANCH   7   9
BRANCH   6  16
ATOM     16  S   UNL     1       1.603   4.337  18.795  0.00  0.00    +0.000 S 
ATOM     17  H   UNL     1       0.683   5.282  19.031  0.00  0.00    +0.000 HD
ENDBRANCH   6  16
ENDBRANCH   3   5
BRANCH   1  19
ATOM     18  C   UNL     1       0.300  10.797  19.076  0.00  0.00    +0.000 C 
ATOM     19  N   UNL     1       1.229  10.357  19.885  0.00  0.00    +0.000 NA
BRANCH  18  20
ATOM     20  C   UNL     1      -0.208  12.196  19.277  0.00  0.00    +0.000 A 
ATOM     21  C   UNL     1       0.255  13.226  18.461  0.00  0.00    +0.000 A 
ATOM     22  C   UNL     1      -0.226  14.513  18.675  0.00  0.00    +0.000 A 
ATOM     23  C   UNL     1      -1.150  14.733  19.692  0.00  0.00    +0.000 A 
ATOM     24  C   UNL     1      -1.553  13.652  20.454  0.00  0.00    +0.000 A 
ATOM     25  N   UNL     1      -1.106  12.387  20.274  0.00  0.00    +0.000 NA
ENDBRANCH  18  20
BRANCH  18  26
ATOM     26  C   UNL     1      -0.325   9.965  17.947  0.00  0.00    +0.000 C 
BRANCH  26  28
ATOM     27  C   UNL     1      -2.131   9.974  16.134  0.00  0.00    +0.000 C 
ATOM     28  C   UNL     1      -1.751  10.394  17.555  0.00  0.00    +0.000 C 
ATOM     29  C   UNL     1      -2.765   9.792  18.535  0.00  0.00    +0.000 C 
ENDBRANCH  26  28
ENDBRANCH  18  26
ENDBRANCH   1  19
BRANCH   2  30
ATOM     30  S   UNL     1       0.512   8.486  21.987  0.00  0.00    +0.000 S 
ATOM     31  H   UNL     1       0.660   7.232  22.433  0.00  0.00    +0.000 HD
ENDBRANCH   2  30
TORSDOF 8
ENDMDL
MODEL 5
REMARK VINA RESULT:      -6.8      6.865     10.443
REMARK  Name = 
REMARK  10 active torsions:
REMARK  status: ('A' for Active; 'I' for Inactive)
REMARK    1  A    between atoms: C_1  and  C_2
REMARK    2  A    between atoms: C_2  and  C_3
REMARK    3  A    between atoms: C_2  and  C_4
REMARK    4  A    between atoms: C_4  and  C_5
REMARK    5  A    between atoms: C_5  and  C_22
REMARK    6  A    between atoms: N_6  and  N_7
REMARK    7  A    between atoms: C_8  and  S_9
REMARK    8  A    between atoms: N_10  and  N_11
REMARK    9  A    between atoms: C_12  and  S_13
REMARK   10  A    between atoms: N_14  and  C_15
REMARK                            x       y       z     vdW  Elec       q    Type
REMARK                         _______ _______ _______ _____ _____    ______ ____
ROOT
ATOM      1  N   UNL     1      -1.747  12.742  20.350  0.00  0.00    +0.000 NA
ATOM      2  C   UNL     1      -1.932  13.424  21.443  0.00  0.00    +0.000 C 
ATOM      3  N   UNL     1      -2.880  14.420  21.563  0.00  0.00    +0.000 N 
ATOM      4  H   UNL     1      -2.947  14.798  22.505  0.00  0.00    +0.000 HD
ENDROOT
BRANCH   3   5
ATOM      5  N   UNL     1      -4.048  14.341  20.862  0.00  0.00    +0.000 NA
ATOM      6  C   UNL     1      -5.179  14.219  21.481  0.00  0.00    +0.000 C 
ATOM      7  N   UNL     1      -6.400  14.110  20.873  0.00  0.00    +0.000 N 
ATOM      8  H   UNL     1      -7.208  14.307  21.449  0.00  0.00    +0.000 HD
BRANCH   7   9
ATOM      9  C   UNL     1      -6.667  13.976  19.494  0.00  0.00    +0.000 A 
ATOM     10  C   UNL     1      -6.671  15.076  18.622  0.00  0.00    +0.000 A 
ATOM     11  C   UNL     1      -6.937  14.925  17.259  0.00  0.00    +0.000 A 
ATOM     12  C   UNL     1      -7.217  13.667  16.737  0.00  0.00    +0.000 A 
ATOM     13  C   UNL     1      -7.245  12.561  17.584  0.00  0.00    +0.000 A 
ATOM     14  C   UNL     1      -6.979  12.716  18.948  0.00  0.00    +0.000 A 
ATOM     15 CL   UNL     1      -7.059  11.313  19.960  0.00  0.00    +0.000 Cl
ENDBRANCH   7   9
BRANCH   6  16
ATOM     16  S   UNL     1      -5.301  14.240  23.237  0.00  0.00    +0.000 S 
ATOM     17  H   UNL     1      -5.474  15.565  23.318  0.00  0.00    +0.000 HD
ENDBRANCH   6  16
ENDBRANCH   3   5
BRANCH   1  19
ATOM     18  C   UNL     1      -0.673  11.087  19.258  0.00  0.00    +0.000 C 
ATOM     19  N   UNL     1      -0.780  11.748  20.382  0.00  0.00    +0.000 NA
BRANCH  18  20
ATOM     20  C   UNL     1       0.332   9.974  19.186  0.00  0.00    +0.000 A 
ATOM     21  C   UNL     1       0.922   9.650  17.966  0.00  0.00    +0.000 A 
ATOM     22  C   UNL     1       1.844   8.609  17.926  0.00  0.00    +0.000 A 
ATOM     23  C   UNL     1       2.148   7.926  19.101  0.00  0.00    +0.000 A 
ATOM     24  C   UNL     1       1.512   8.314  20.266  0.00  0.00    +0.000 A 
ATOM     25  N   UNL     1       0.611   9.321  20.340  0.00  0.00    +0.000 NA
ENDBRANCH  18  20
BRANCH  18  26
ATOM     26  C   UNL     1      -1.493  11.394  17.996  0.00  0.00    +0.000 C 
BRANCH  26  28
ATOM     27  C   UNL     1      -4.003  10.900  17.951  0.00  0.00    +0.000 C 
ATOM     28  C   UNL     1      -2.595  10.364  17.688  0.00  0.00    +0.000 C 
ATOM     29  C   UNL     1      -2.501   9.922  16.223  0.00  0.00    +0.000 C 
ENDBRANCH  26  28
ENDBRANCH  18  26
ENDBRANCH   1  19
BRANCH   2  30
ATOM     30  S   UNL     1      -0.998  13.163  22.908  0.00  0.00    +0.000 S 
ATOM     31  H   UNL     1      -0.744  14.470  23.059  0.00  0.00    +0.000 HD
ENDBRANCH   2  30
TORSDOF 8
ENDMDL
MODEL 6
REMARK VINA RESULT:      -6.7      2.328      3.298
REMARK  Name = 
REMARK  10 active torsions:
REMARK  status: ('A' for Active; 'I' for Inactive)
REMARK    1  A    between atoms: C_1  and  C_2
REMARK    2  A    between atoms: C_2  and  C_3
REMARK    3  A    between atoms: C_2  and  C_4
REMARK    4  A    between atoms: C_4  and  C_5
REMARK    5  A    between atoms: C_5  and  C_22
REMARK    6  A    between atoms: N_6  and  N_7
REMARK    7  A    between atoms: C_8  and  S_9
REMARK    8  A    between atoms: N_10  and  N_11
REMARK    9  A    between atoms: C_12  and  S_13
REMARK   10  A    between atoms: N_14  and  C_15
REMARK                            x       y       z     vdW  Elec       q    Type
REMARK                         _______ _______ _______ _____ _____    ______ ____
ROOT
ATOM      1  N   UNL     1       2.903   7.144  18.438  0.00  0.00    +0.000 NA
ATOM      2  C   UNL     1       2.527   6.682  19.595  0.00  0.00    +0.000 C 
ATOM      3  N   UNL     1       2.031   7.482  20.605  0.00  0.00    +0.000 N 
ATOM      4  H   UNL     1       1.711   6.953  21.413  0.00  0.00    +0.000 HD
ENDROOT
BRANCH   3   5
ATOM      5  N   UNL     1       1.320   8.606  20.301  0.00  0.00    +0.000 NA
ATOM      6  C   UNL     1       0.954   9.425  21.235  0.00  0.00    +0.000 C 
ATOM      7  N   UNL     1       0.223  10.565  21.039  0.00  0.00    +0.000 N 
ATOM      8  H   UNL     1       0.249  11.249  21.784  0.00  0.00    +0.000 HD
BRANCH   7   9
ATOM      9  C   UNL     1      -0.382  11.006  19.844  0.00  0.00    +0.000 A 
ATOM     10  C   UNL     1      -1.227  10.182  19.085  0.00  0.00    +0.000 A 
ATOM     11  C   UNL     1      -1.819  10.634  17.903  0.00  0.00    +0.000 A 
ATOM     12  C   UNL     1      -1.567  11.923  17.446  0.00  0.00    +0.000 A 
ATOM     13  C   UNL     1      -0.711  12.755  18.164  0.00  0.00    +0.000 A 
ATOM     14  C   UNL     1      -0.120  12.297  19.346  0.00  0.00    +0.000 A 
ATOM     15 CL   UNL     1       0.960  13.361  20.184  0.00  0.00    +0.000 Cl
ENDBRANCH   7   9
BRANCH   6  16
ATOM     16  S   UNL     1       1.416   9.203  22.919  0.00  0.00    +0.000 S 
ATOM     17  H   UNL     1       0.203   9.497  23.405  0.00  0.00    +0.000 HD
ENDBRANCH   6  16
ENDBRANCH   3   5
BRANCH   1  19
ATOM     18  C   UNL     1       4.608   6.377  17.178  0.00  0.00    +0.000 C 
ATOM     19  N   UNL     1       3.351   6.221  17.505  0.00  0.00    +0.000 NA
BRANCH  18  20
ATOM     20  C   UNL     1       5.194   5.443  16.160  0.00  0.00    +0.000 A 
ATOM     21  C   UNL     1       5.276   4.080  16.434  0.00  0.00    +0.000 A 
ATOM     22  C   UNL     1       5.832   3.238  15.477  0.00  0.00    +0.000 A 
ATOM     23  C   UNL     1       6.286   3.779  14.278  0.00  0.00    +0.000 A 
ATOM     24  C   UNL     1       6.167   5.145  14.090  0.00  0.00    +0.000 A 
ATOM     25  N   UNL     1       5.633   5.992  15.000  0.00  0.00    +0.000 NA
ENDBRANCH  18  20
BRANCH  18  26
ATOM     26  C   UNL     1       5.532   7.442  17.787  0.00  0.00    +0.000 C 
BRANCH  26  28
ATOM     27  C   UNL     1       7.892   8.425  17.684  0.00  0.00    +0.000 C 
ATOM     28  C   UNL     1       7.034   7.161  17.603  0.00  0.00    +0.000 C 
ATOM     29  C   UNL     1       7.514   6.170  18.671  0.00  0.00    +0.000 C 
ENDBRANCH  26  28
ENDBRANCH  18  26
ENDBRANCH   1  19
BRANCH   2  30
ATOM     30  S   UNL     1       2.601   4.979  20.020  0.00  0.00    +0.000 S 
ATOM     31  H   UNL     1       3.111   4.635  18.830  0.00  0.00    +0.000 HD
ENDBRANCH   2  30
TORSDOF 8
ENDMDL
MODEL 7
REMARK VINA RESULT:      -6.6      5.818      9.028
REMARK  Name = 
REMARK  10 active torsions:
REMARK  status: ('A' for Active; 'I' for Inactive)
REMARK    1  A    between atoms: C_1  and  C_2
REMARK    2  A    between atoms: C_2  and  C_3
REMARK    3  A    between atoms: C_2  and  C_4
REMARK    4  A    between atoms: C_4  and  C_5
REMARK    5  A    between atoms: C_5  and  C_22
REMARK    6  A    between atoms: N_6  and  N_7
REMARK    7  A    between atoms: C_8  and  S_9
REMARK    8  A    between atoms: N_10  and  N_11
REMARK    9  A    between atoms: C_12  and  S_13
REMARK   10  A    between atoms: N_14  and  C_15
REMARK                            x       y       z     vdW  Elec       q    Type
REMARK                         _______ _______ _______ _____ _____    ______ ____
ROOT
ATOM      1  N   UNL     1       0.235  11.374  18.978  0.00  0.00    +0.000 NA
ATOM      2  C   UNL     1      -0.960  11.674  18.559  0.00  0.00    +0.000 C 
ATOM      3  N   UNL     1      -1.511  12.934  18.682  0.00  0.00    +0.000 N 
ATOM      4  H   UNL     1      -2.420  13.019  18.233  0.00  0.00    +0.000 HD
ENDROOT
BRANCH   3   5
ATOM      5  N   UNL     1      -0.711  14.039  18.636  0.00  0.00    +0.000 NA
ATOM      6  C   UNL     1      -0.761  14.927  19.577  0.00  0.00    +0.000 C 
ATOM      7  N   UNL     1      -0.020  16.077  19.614  0.00  0.00    +0.000 N 
ATOM      8  H   UNL     1       0.062  16.530  20.514  0.00  0.00    +0.000 HD
BRANCH   7   9
ATOM      9  C   UNL     1       0.826  16.589  18.607  0.00  0.00    +0.000 A 
ATOM     10  C   UNL     1       2.149  16.152  18.448  0.00  0.00    +0.000 A 
ATOM     11  C   UNL     1       2.973  16.669  17.446  0.00  0.00    +0.000 A 
ATOM     12  C   UNL     1       2.492  17.647  16.583  0.00  0.00    +0.000 A 
ATOM     13  C   UNL     1       1.190  18.119  16.733  0.00  0.00    +0.000 A 
ATOM     14  C   UNL     1       0.369  17.599  17.739  0.00  0.00    +0.000 A 
ATOM     15 CL   UNL     1      -1.231  18.243  17.901  0.00  0.00    +0.000 Cl
ENDBRANCH   7   9
BRANCH   6  16
ATOM     16  S   UNL     1      -1.775  14.734  21.003  0.00  0.00    +0.000 S 
ATOM     17  H   UNL     1      -1.863  16.047  21.252  0.00  0.00    +0.000 HD
ENDBRANCH   6  16
ENDBRANCH   3   5
BRANCH   1  19
ATOM     18  C   UNL     1       1.135   9.493  19.835  0.00  0.00    +0.000 C 
ATOM     19  N   UNL     1       0.673  10.076  18.759  0.00  0.00    +0.000 NA
BRANCH  18  20
ATOM     20  C   UNL     1       1.655   8.090  19.710  0.00  0.00    +0.000 A 
ATOM     21  C   UNL     1       2.377   7.715  18.579  0.00  0.00    +0.000 A 
ATOM     22  C   UNL     1       2.839   6.406  18.486  0.00  0.00    +0.000 A 
ATOM     23  C   UNL     1       2.568   5.515  19.520  0.00  0.00    +0.000 A 
ATOM     24  C   UNL     1       1.842   5.973  20.604  0.00  0.00    +0.000 A 
ATOM     25  N   UNL     1       1.378   7.238  20.728  0.00  0.00    +0.000 NA
ENDBRANCH  18  20
BRANCH  18  26
ATOM     26  C   UNL     1       1.159  10.143  21.226  0.00  0.00    +0.000 C 
BRANCH  26  28
ATOM     27  C   UNL     1       0.028   9.322  23.369  0.00  0.00    +0.000 C 
ATOM     28  C   UNL     1      -0.156  10.007  22.014  0.00  0.00    +0.000 C 
ATOM     29  C   UNL     1      -0.773  11.393  22.242  0.00  0.00    +0.000 C 
ENDBRANCH  26  28
ENDBRANCH  18  26
ENDBRANCH   1  19
BRANCH   2  30
ATOM     30  S   UNL     1      -2.025  10.515  17.780  0.00  0.00    +0.000 S 
ATOM     31  H   UNL     1      -2.372  11.380  16.817  0.00  0.00    +0.000 HD
ENDBRANCH   2  30
TORSDOF 8
ENDMDL
MODEL 8
REMARK VINA RESULT:      -6.6      5.783      9.085
REMARK  Name = 
REMARK  10 active torsions:
REMARK  status: ('A' for Active; 'I' for Inactive)
REMARK    1  A    between atoms: C_1  and  C_2
REMARK    2  A    between atoms: C_2  and  C_3
REMARK    3  A    between atoms: C_2  and  C_4
REMARK    4  A    between atoms: C_4  and  C_5
REMARK    5  A    between atoms: C_5  and  C_22
REMARK    6  A    between atoms: N_6  and  N_7
REMARK    7  A    between atoms: C_8  and  S_9
REMARK    8  A    between atoms: N_10  and  N_11
REMARK    9  A    between atoms: C_12  and  S_13
REMARK   10  A    between atoms: N_14  and  C_15
REMARK                            x       y       z     vdW  Elec       q    Type
REMARK                         _______ _______ _______ _____ _____    ______ ____
ROOT
ATOM      1  N   UNL     1       0.258  11.605  19.032  0.00  0.00    +0.000 NA
ATOM      2  C   UNL     1      -0.963  11.899  18.691  0.00  0.00    +0.000 C 
ATOM      3  N   UNL     1      -1.507  13.160  18.834  0.00  0.00    +0.000 N 
ATOM      4  H   UNL     1      -2.444  13.238  18.447  0.00  0.00    +0.000 HD
ENDROOT
BRANCH   3   5
ATOM      5  N   UNL     1      -0.713  14.264  18.718  0.00  0.00    +0.000 NA
ATOM      6  C   UNL     1      -0.668  15.143  19.668  0.00  0.00    +0.000 C 
ATOM      7  N   UNL     1       0.076  16.292  19.641  0.00  0.00    +0.000 N 
ATOM      8  H   UNL     1       0.248  16.737  20.533  0.00  0.00    +0.000 HD
BRANCH   7   9
ATOM      9  C   UNL     1       0.817  16.813  18.560  0.00  0.00    +0.000 A 
ATOM     10  C   UNL     1       0.281  17.754  17.669  0.00  0.00    +0.000 A 
ATOM     11  C   UNL     1       1.029  18.260  16.603  0.00  0.00    +0.000 A 
ATOM     12  C   UNL     1       2.334  17.825  16.398  0.00  0.00    +0.000 A 
ATOM     13  C   UNL     1       2.884  16.871  17.251  0.00  0.00    +0.000 A 
ATOM     14  C   UNL     1       2.131  16.367  18.316  0.00  0.00    +0.000 A 
ATOM     15 CL   UNL     1       2.853  15.160  19.327  0.00  0.00    +0.000 Cl
ENDBRANCH   7   9
BRANCH   6  16
ATOM     16  S   UNL     1      -1.534  14.938  21.187  0.00  0.00    +0.000 S 
ATOM     17  H   UNL     1      -2.650  14.470  20.613  0.00  0.00    +0.000 HD
ENDBRANCH   6  16
ENDBRANCH   3   5
BRANCH   1  19
ATOM     18  C   UNL     1       1.078   9.685  19.884  0.00  0.00    +0.000 C 
ATOM     19  N   UNL     1       0.682  10.305  18.802  0.00  0.00    +0.000 NA
BRANCH  18  20
ATOM     20  C   UNL     1       1.576   8.276  19.748  0.00  0.00    +0.000 A 
ATOM     21  C   UNL     1       1.379   7.367  20.786  0.00  0.00    +0.000 A 
ATOM     22  C   UNL     1       1.858   6.070  20.637  0.00  0.00    +0.000 A 
ATOM     23  C   UNL     1       2.516   5.719  19.462  0.00  0.00    +0.000 A 
ATOM     24  C   UNL     1       2.669   6.687  18.485  0.00  0.00    +0.000 A 
ATOM     25  N   UNL     1       2.216   7.957  18.597  0.00  0.00    +0.000 NA
ENDBRANCH  18  20
BRANCH  18  26
ATOM     26  C   UNL     1       1.043  10.300  21.290  0.00  0.00    +0.000 C 
BRANCH  26  28
ATOM     27  C   UNL     1      -0.025   9.360  23.417  0.00  0.00    +0.000 C 
ATOM     28  C   UNL     1      -0.261  10.038  22.067  0.00  0.00    +0.000 C 
ATOM     29  C   UNL     1      -1.002  11.361  22.301  0.00  0.00    +0.000 C 
ENDBRANCH  26  28
ENDBRANCH  18  26
ENDBRANCH   1  19
BRANCH   2  30
ATOM     30  S   UNL     1      -2.078  10.729  18.003  0.00  0.00    +0.000 S 
ATOM     31  H   UNL     1      -1.804   9.815  18.943  0.00  0.00    +0.000 HD
ENDBRANCH   2  30
TORSDOF 8
ENDMDL
MODEL 9
REMARK VINA RESULT:      -6.6      6.496     12.228
REMARK  Name = 
REMARK  10 active torsions:
REMARK  status: ('A' for Active; 'I' for Inactive)
REMARK    1  A    between atoms: C_1  and  C_2
REMARK    2  A    between atoms: C_2  and  C_3
REMARK    3  A    between atoms: C_2  and  C_4
REMARK    4  A    between atoms: C_4  and  C_5
REMARK    5  A    between atoms: C_5  and  C_22
REMARK    6  A    between atoms: N_6  and  N_7
REMARK    7  A    between atoms: C_8  and  S_9
REMARK    8  A    between atoms: N_10  and  N_11
REMARK    9  A    between atoms: C_12  and  S_13
REMARK   10  A    between atoms: N_14  and  C_15
REMARK                            x       y       z     vdW  Elec       q    Type
REMARK                         _______ _______ _______ _____ _____    ______ ____
ROOT
ATOM      1  N   UNL     1      -3.472  12.062  19.555  0.00  0.00    +0.000 NA
ATOM      2  C   UNL     1      -3.578  11.699  18.309  0.00  0.00    +0.000 C 
ATOM      3  N   UNL     1      -2.489  11.440  17.501  0.00  0.00    +0.000 N 
ATOM      4  H   UNL     1      -2.748  11.093  16.580  0.00  0.00    +0.000 HD
ENDROOT
BRANCH   3   5
ATOM      5  N   UNL     1      -1.344  10.928  18.038  0.00  0.00    +0.000 NA
ATOM      6  C   UNL     1      -0.371  11.710  18.379  0.00  0.00    +0.000 C 
ATOM      7  N   UNL     1       0.824  11.296  18.904  0.00  0.00    +0.000 N 
ATOM      8  H   UNL     1       1.371  11.998  19.385  0.00  0.00    +0.000 HD
BRANCH   7   9
ATOM      9  C   UNL     1       1.286   9.972  19.054  0.00  0.00    +0.000 A 
ATOM     10  C   UNL     1       1.907   9.273  18.007  0.00  0.00    +0.000 A 
ATOM     11  C   UNL     1       2.359   7.962  18.173  0.00  0.00    +0.000 A 
ATOM     12  C   UNL     1       2.190   7.314  19.391  0.00  0.00    +0.000 A 
ATOM     13  C   UNL     1       1.553   7.973  20.440  0.00  0.00    +0.000 A 
ATOM     14  C   UNL     1       1.101   9.286  20.270  0.00  0.00    +0.000 A 
ATOM     15 CL   UNL     1       0.289  10.048  21.596  0.00  0.00    +0.000 Cl
ENDBRANCH   7   9
BRANCH   6  16
ATOM     16  S   UNL     1      -0.484  13.463  18.266  0.00  0.00    +0.000 S 
ATOM     17  H   UNL     1      -1.086  13.610  19.454  0.00  0.00    +0.000 HD
ENDBRANCH   6  16
ENDBRANCH   3   5
BRANCH   1  19
ATOM     18  C   UNL     1      -4.504  12.992  21.330  0.00  0.00    +0.000 C 
ATOM     19  N   UNL     1      -4.651  12.258  20.258  0.00  0.00    +0.000 NA
BRANCH  18  20
ATOM     20  C   UNL     1      -5.714  13.254  22.179  0.00  0.00    +0.000 A 
ATOM     21  C   UNL     1      -6.202  14.552  22.312  0.00  0.00    +0.000 A 
ATOM     22  C   UNL     1      -7.320  14.767  23.111  0.00  0.00    +0.000 A 
ATOM     23  C   UNL     1      -7.916  13.683  23.750  0.00  0.00    +0.000 A 
ATOM     24  C   UNL     1      -7.363  12.429  23.564  0.00  0.00    +0.000 A 
ATOM     25  N   UNL     1      -6.277  12.185  22.794  0.00  0.00    +0.000 NA
ENDBRANCH  18  20
BRANCH  18  26
ATOM     26  C   UNL     1      -3.175  13.627  21.765  0.00  0.00    +0.000 C 
BRANCH  26  28
ATOM     27  C   UNL     1      -1.270  12.568  23.104  0.00  0.00    +0.000 C 
ATOM     28  C   UNL     1      -2.675  13.171  23.148  0.00  0.00    +0.000 C 
ATOM     29  C   UNL     1      -2.672  14.358  24.119  0.00  0.00    +0.000 C 
ENDBRANCH  26  28
ENDBRANCH  18  26
ENDBRANCH   1  19
BRANCH   2  30
ATOM     30  S   UNL     1      -5.121  11.491  17.497  0.00  0.00    +0.000 S 
ATOM     31  H   UNL     1      -4.759  10.316  16.966  0.00  0.00    +0.000 HD
ENDBRANCH   2  30
TORSDOF 8
ENDMDL
