MODEL 1
REMARK VINA RESULT:      -7.8      0.000      0.000
REMARK  Name = 
REMARK  2 active torsions:
REMARK  status: ('A' for Active; 'I' for Inactive)
REMARK    1  A    between atoms: C_1  and  N_2
REMARK    2  A    between atoms: N_25  and  C_26
REMARK                            x       y       z     vdW  Elec       q    Type
REMARK                         _______ _______ _______ _____ _____    ______ ____
ROOT
ATOM      1  C   UNL     1      -0.496  13.851  18.545  0.00  0.00    +0.000 C 
ATOM      2  N   UNL     1      -0.205  12.679  19.368  0.00  0.00    +0.000 N 
ATOM      3  C   UNL     1       0.688  11.696  18.895  0.00  0.00    +0.000 A 
ATOM      4  C   UNL     1       1.902  11.751  18.205  0.00  0.00    +0.000 A 
ATOM      5  C   UNL     1       2.512  10.524  17.898  0.00  0.00    +0.000 A 
ATOM      6  C   UNL     1       1.917   9.309  18.243  0.00  0.00    +0.000 A 
ATOM      7  C   UNL     1       0.632   9.277  18.781  0.00  0.00    +0.000 A 
ATOM      8  C   UNL     1      -0.005  10.493  19.065  0.00  0.00    +0.000 A 
ATOM      9  C   UNL     1      -1.335  10.914  19.332  0.00  0.00    +0.000 A 
ATOM     10  C   UNL     1      -2.537  11.034  18.572  0.00  0.00    +0.000 A 
ATOM     11  N   UNL     1      -2.390  10.758  17.200  0.00  0.00    +0.000 NA
ATOM     12  C   UNL     1      -3.263  11.258  16.392  0.00  0.00    +0.000 A 
ATOM     13  N   UNL     1      -3.067  11.218  15.053  0.00  0.00    +0.000 N 
ATOM     14  N   UNL     1      -4.411  11.850  16.818  0.00  0.00    +0.000 N 
ATOM     15  C   UNL     1      -4.715  12.076  18.141  0.00  0.00    +0.000 A 
ATOM     16  O   UNL     1      -5.798  12.552  18.449  0.00  0.00    +0.000 OA
ATOM     17  C   UNL     1      -3.624  11.801  19.079  0.00  0.00    +0.000 A 
ATOM     18  C   UNL     1      -3.553  12.330  20.383  0.00  0.00    +0.000 A 
ATOM     19  C   UNL     1      -4.456  12.770  21.405  0.00  0.00    +0.000 A 
ATOM     20  C   UNL     1      -5.854  12.959  21.479  0.00  0.00    +0.000 A 
ATOM     21  C   UNL     1      -6.489  13.138  22.710  0.00  0.00    +0.000 A 
ATOM     22  C   UNL     1      -5.751  13.111  23.882  0.00  0.00    +0.000 A 
ATOM     23  C   UNL     1      -4.360  12.963  23.849  0.00  0.00    +0.000 A 
ATOM     24  C   UNL     1      -3.717  12.808  22.602  0.00  0.00    +0.000 A 
ATOM     25  N   UNL     1      -2.395  12.562  22.274  0.00  0.00    +0.000 N 
ATOM     26  C   UNL     1      -1.374  12.161  23.223  0.00  0.00    +0.000 C 
ATOM     27  C   UNL     1      -2.267  12.447  20.906  0.00  0.00    +0.000 A 
ATOM     28  C   UNL     1      -1.143  12.002  20.186  0.00  0.00    +0.000 A 
ATOM     29  H   UNL     1      -2.282  10.651  14.767  0.00  0.00    +0.000 HD
ATOM     30  H   UNL     1      -3.851  11.262  14.426  0.00  0.00    +0.000 HD
ATOM     31  H   UNL     1      -5.093  12.179  16.162  0.00  0.00    +0.000 HD
ENDROOT
TORSDOF 0
ENDMDL
MODEL 2
REMARK VINA RESULT:      -7.7      2.802      6.471
REMARK  Name = 
REMARK  2 active torsions:
REMARK  status: ('A' for Active; 'I' for Inactive)
REMARK    1  A    between atoms: C_1  and  N_2
REMARK    2  A    between atoms: N_25  and  C_26
REMARK                            x       y       z     vdW  Elec       q    Type
REMARK                         _______ _______ _______ _____ _____    ______ ____
ROOT
ATOM      1  C   UNL     1      -3.698  12.736  21.640  0.00  0.00    +0.000 C 
ATOM      2  N   UNL     1      -2.699  12.688  22.705  0.00  0.00    +0.000 N 
ATOM      3  C   UNL     1      -2.674  13.702  23.685  0.00  0.00    +0.000 A 
ATOM      4  C   UNL     1      -3.668  14.390  24.386  0.00  0.00    +0.000 A 
ATOM      5  C   UNL     1      -3.240  15.359  25.305  0.00  0.00    +0.000 A 
ATOM      6  C   UNL     1      -1.885  15.641  25.489  0.00  0.00    +0.000 A 
ATOM      7  C   UNL     1      -0.923  15.063  24.662  0.00  0.00    +0.000 A 
ATOM      8  C   UNL     1      -1.337  14.114  23.716  0.00  0.00    +0.000 A 
ATOM      9  C   UNL     1      -0.782  13.522  22.551  0.00  0.00    +0.000 A 
ATOM     10  C   UNL     1      -0.471  13.968  21.231  0.00  0.00    +0.000 A 
ATOM     11  N   UNL     1      -0.873  15.286  20.951  0.00  0.00    +0.000 NA
ATOM     12  C   UNL     1      -1.044  15.610  19.713  0.00  0.00    +0.000 A 
ATOM     13  N   UNL     1      -1.634  16.783  19.381  0.00  0.00    +0.000 N 
ATOM     14  N   UNL     1      -0.657  14.813  18.681  0.00  0.00    +0.000 N 
ATOM     15  C   UNL     1      -0.147  13.545  18.837  0.00  0.00    +0.000 A 
ATOM     16  O   UNL     1       0.242  12.916  17.864  0.00  0.00    +0.000 OA
ATOM     17  C   UNL     1      -0.216  13.018  20.202  0.00  0.00    +0.000 A 
ATOM     18  C   UNL     1      -0.147  11.647  20.523  0.00  0.00    +0.000 A 
ATOM     19  C   UNL     1       0.435  10.455  19.983  0.00  0.00    +0.000 A 
ATOM     20  C   UNL     1       1.125  10.139  18.791  0.00  0.00    +0.000 A 
ATOM     21  C   UNL     1       1.824   8.937  18.664  0.00  0.00    +0.000 A 
ATOM     22  C   UNL     1       1.865   8.043  19.722  0.00  0.00    +0.000 A 
ATOM     23  C   UNL     1       1.165   8.301  20.906  0.00  0.00    +0.000 A 
ATOM     24  C   UNL     1       0.439   9.506  21.022  0.00  0.00    +0.000 A 
ATOM     25  N   UNL     1      -0.262  10.057  22.081  0.00  0.00    +0.000 N 
ATOM     26  C   UNL     1      -0.195   9.579  23.449  0.00  0.00    +0.000 C 
ATOM     27  C   UNL     1      -0.769  11.286  21.716  0.00  0.00    +0.000 A 
ATOM     28  C   UNL     1      -1.361  12.251  22.552  0.00  0.00    +0.000 A 
ATOM     29  H   UNL     1      -1.778  17.408  20.161  0.00  0.00    +0.000 HD
ATOM     30  H   UNL     1      -1.455  17.202  18.486  0.00  0.00    +0.000 HD
ATOM     31  H   UNL     1      -0.755  15.119  17.732  0.00  0.00    +0.000 HD
ENDROOT
TORSDOF 0
ENDMDL
MODEL 3
REMARK VINA RESULT:      -7.7      2.272      7.259
REMARK  Name = 
REMARK  2 active torsions:
REMARK  status: ('A' for Active; 'I' for Inactive)
REMARK    1  A    between atoms: C_1  and  N_2
REMARK    2  A    between atoms: N_25  and  C_26
REMARK                            x       y       z     vdW  Elec       q    Type
REMARK                         _______ _______ _______ _____ _____    ______ ____
ROOT
ATOM      1  C   UNL     1      -4.370  15.812  20.857  0.00  0.00    +0.000 C 
ATOM      2  N   UNL     1      -5.195  14.623  21.056  0.00  0.00    +0.000 N 
ATOM      3  C   UNL     1      -6.171  14.612  22.074  0.00  0.00    +0.000 A 
ATOM      4  C   UNL     1      -7.086  15.559  22.540  0.00  0.00    +0.000 A 
ATOM      5  C   UNL     1      -7.917  15.168  23.602  0.00  0.00    +0.000 A 
ATOM      6  C   UNL     1      -7.812  13.902  24.181  0.00  0.00    +0.000 A 
ATOM      7  C   UNL     1      -6.784  13.037  23.811  0.00  0.00    +0.000 A 
ATOM      8  C   UNL     1      -5.925  13.424  22.772  0.00  0.00    +0.000 A 
ATOM      9  C   UNL     1      -4.653  13.016  22.289  0.00  0.00    +0.000 A 
ATOM     10  C   UNL     1      -3.309  13.103  22.762  0.00  0.00    +0.000 A 
ATOM     11  N   UNL     1      -3.155  13.837  23.952  0.00  0.00    +0.000 NA
ATOM     12  C   UNL     1      -1.991  14.337  24.200  0.00  0.00    +0.000 A 
ATOM     13  N   UNL     1      -1.824  15.229  25.205  0.00  0.00    +0.000 N 
ATOM     14  N   UNL     1      -0.881  14.015  23.485  0.00  0.00    +0.000 N 
ATOM     15  C   UNL     1      -0.892  13.216  22.365  0.00  0.00    +0.000 A 
ATOM     16  O   UNL     1       0.158  12.916  21.815  0.00  0.00    +0.000 OA
ATOM     17  C   UNL     1      -2.226  12.871  21.868  0.00  0.00    +0.000 A 
ATOM     18  C   UNL     1      -2.489  12.434  20.555  0.00  0.00    +0.000 A 
ATOM     19  C   UNL     1      -1.808  11.733  19.508  0.00  0.00    +0.000 A 
ATOM     20  C   UNL     1      -0.487  11.263  19.324  0.00  0.00    +0.000 A 
ATOM     21  C   UNL     1      -0.183  10.359  18.304  0.00  0.00    +0.000 A 
ATOM     22  C   UNL     1      -1.185   9.896  17.466  0.00  0.00    +0.000 A 
ATOM     23  C   UNL     1      -2.497  10.363  17.592  0.00  0.00    +0.000 A 
ATOM     24  C   UNL     1      -2.797  11.296  18.608  0.00  0.00    +0.000 A 
ATOM     25  N   UNL     1      -3.996  11.857  19.015  0.00  0.00    +0.000 N 
ATOM     26  C   UNL     1      -5.304  11.393  18.597  0.00  0.00    +0.000 C 
ATOM     27  C   UNL     1      -3.779  12.690  20.093  0.00  0.00    +0.000 A 
ATOM     28  C   UNL     1      -4.747  13.285  20.922  0.00  0.00    +0.000 A 
ATOM     29  H   UNL     1      -2.631  15.337  25.802  0.00  0.00    +0.000 HD
ATOM     30  H   UNL     1      -0.922  15.344  25.632  0.00  0.00    +0.000 HD
ATOM     31  H   UNL     1       0.017  14.380  23.739  0.00  0.00    +0.000 HD
ENDROOT
TORSDOF 0
ENDMDL
MODEL 4
REMARK VINA RESULT:      -7.5     11.255     12.851
REMARK  Name = 
REMARK  2 active torsions:
REMARK  status: ('A' for Active; 'I' for Inactive)
REMARK    1  A    between atoms: C_1  and  N_2
REMARK    2  A    between atoms: N_25  and  C_26
REMARK                            x       y       z     vdW  Elec       q    Type
REMARK                         _______ _______ _______ _____ _____    ______ ____
ROOT
ATOM      1  C   UNL     1       8.087  15.431  18.149  0.00  0.00    +0.000 C 
ATOM      2  N   UNL     1       8.869  16.205  19.110  0.00  0.00    +0.000 N 
ATOM      3  C   UNL     1       9.905  17.045  18.652  0.00  0.00    +0.000 A 
ATOM      4  C   UNL     1      10.033  17.908  17.561  0.00  0.00    +0.000 A 
ATOM      5  C   UNL     1      11.253  18.592  17.434  0.00  0.00    +0.000 A 
ATOM      6  C   UNL     1      12.296  18.395  18.341  0.00  0.00    +0.000 A 
ATOM      7  C   UNL     1      12.205  17.409  19.321  0.00  0.00    +0.000 A 
ATOM      8  C   UNL     1      11.005  16.694  19.443  0.00  0.00    +0.000 A 
ATOM      9  C   UNL     1      10.591  15.487  20.066  0.00  0.00    +0.000 A 
ATOM     10  C   UNL     1      10.817  14.095  19.842  0.00  0.00    +0.000 A 
ATOM     11  N   UNL     1      11.555  13.804  18.680  0.00  0.00    +0.000 NA
ATOM     12  C   UNL     1      11.426  12.626  18.168  0.00  0.00    +0.000 A 
ATOM     13  N   UNL     1      11.930  12.347  16.943  0.00  0.00    +0.000 N 
ATOM     14  N   UNL     1      10.786  11.610  18.806  0.00  0.00    +0.000 N 
ATOM     15  C   UNL     1      10.120  11.750  20.002  0.00  0.00    +0.000 A 
ATOM     16  O   UNL     1       9.627  10.773  20.547  0.00  0.00    +0.000 OA
ATOM     17  C   UNL     1       9.981  13.130  20.471  0.00  0.00    +0.000 A 
ATOM     18  C   UNL     1       9.019  13.551  21.411  0.00  0.00    +0.000 A 
ATOM     19  C   UNL     1       8.294  12.996  22.515  0.00  0.00    +0.000 A 
ATOM     20  C   UNL     1       8.169  11.701  23.069  0.00  0.00    +0.000 A 
ATOM     21  C   UNL     1       7.599  11.515  24.331  0.00  0.00    +0.000 A 
ATOM     22  C   UNL     1       7.164  12.606  25.065  0.00  0.00    +0.000 A 
ATOM     23  C   UNL     1       7.237  13.900  24.536  0.00  0.00    +0.000 A 
ATOM     24  C   UNL     1       7.791  14.084  23.251  0.00  0.00    +0.000 A 
ATOM     25  N   UNL     1       8.063  15.230  22.524  0.00  0.00    +0.000 N 
ATOM     26  C   UNL     1       8.042  16.573  23.069  0.00  0.00    +0.000 C 
ATOM     27  C   UNL     1       8.652  14.892  21.323  0.00  0.00    +0.000 A 
ATOM     28  C   UNL     1       9.261  15.757  20.396  0.00  0.00    +0.000 A 
ATOM     29  H   UNL     1      12.518  13.075  16.562  0.00  0.00    +0.000 HD
ATOM     30  H   UNL     1      12.156  11.401  16.694  0.00  0.00    +0.000 HD
ATOM     31  H   UNL     1      10.751  10.693  18.403  0.00  0.00    +0.000 HD
ENDROOT
TORSDOF 0
ENDMDL
MODEL 5
REMARK VINA RESULT:      -7.0      2.421      6.212
REMARK  Name = 
REMARK  2 active torsions:
REMARK  status: ('A' for Active; 'I' for Inactive)
REMARK    1  A    between atoms: C_1  and  N_2
REMARK    2  A    between atoms: N_25  and  C_26
REMARK                            x       y       z     vdW  Elec       q    Type
REMARK                         _______ _______ _______ _____ _____    ______ ____
ROOT
ATOM      1  C   UNL     1      -2.578  11.971  23.464  0.00  0.00    +0.000 C 
ATOM      2  N   UNL     1      -2.226  13.210  22.774  0.00  0.00    +0.000 N 
ATOM      3  C   UNL     1      -2.277  14.436  23.469  0.00  0.00    +0.000 A 
ATOM      4  C   UNL     1      -1.913  14.826  24.761  0.00  0.00    +0.000 A 
ATOM      5  C   UNL     1      -2.123  16.172  25.098  0.00  0.00    +0.000 A 
ATOM      6  C   UNL     1      -2.694  17.070  24.194  0.00  0.00    +0.000 A 
ATOM      7  C   UNL     1      -3.200  16.621  22.975  0.00  0.00    +0.000 A 
ATOM      8  C   UNL     1      -3.027  15.272  22.634  0.00  0.00    +0.000 A 
ATOM      9  C   UNL     1      -3.592  14.374  21.690  0.00  0.00    +0.000 A 
ATOM     10  C   UNL     1      -4.859  13.738  21.521  0.00  0.00    +0.000 A 
ATOM     11  N   UNL     1      -5.769  13.964  22.569  0.00  0.00    +0.000 NA
ATOM     12  C   UNL     1      -6.723  13.109  22.729  0.00  0.00    +0.000 A 
ATOM     13  N   UNL     1      -7.500  13.141  23.837  0.00  0.00    +0.000 N 
ATOM     14  N   UNL     1      -7.004  12.137  21.819  0.00  0.00    +0.000 N 
ATOM     15  C   UNL     1      -6.246  11.892  20.697  0.00  0.00    +0.000 A 
ATOM     16  O   UNL     1      -6.602  11.044  19.891  0.00  0.00    +0.000 OA
ATOM     17  C   UNL     1      -4.986  12.636  20.630  0.00  0.00    +0.000 A 
ATOM     18  C   UNL     1      -3.891  12.261  19.826  0.00  0.00    +0.000 A 
ATOM     19  C   UNL     1      -3.662  11.563  18.597  0.00  0.00    +0.000 A 
ATOM     20  C   UNL     1      -4.479  10.837  17.700  0.00  0.00    +0.000 A 
ATOM     21  C   UNL     1      -4.019  10.498  16.426  0.00  0.00    +0.000 A 
ATOM     22  C   UNL     1      -2.754  10.888  16.018  0.00  0.00    +0.000 A 
ATOM     23  C   UNL     1      -1.901  11.576  16.888  0.00  0.00    +0.000 A 
ATOM     24  C   UNL     1      -2.359  11.896  18.184  0.00  0.00    +0.000 A 
ATOM     25  N   UNL     1      -1.781  12.626  19.208  0.00  0.00    +0.000 N 
ATOM     26  C   UNL     1      -0.602  13.458  19.060  0.00  0.00    +0.000 C 
ATOM     27  C   UNL     1      -2.648  12.698  20.278  0.00  0.00    +0.000 A 
ATOM     28  C   UNL     1      -2.530  13.508  21.422  0.00  0.00    +0.000 A 
ATOM     29  H   UNL     1      -7.359  13.954  24.418  0.00  0.00    +0.000 HD
ATOM     30  H   UNL     1      -8.425  12.750  23.816  0.00  0.00    +0.000 HD
ATOM     31  H   UNL     1      -7.785  11.524  21.949  0.00  0.00    +0.000 HD
ENDROOT
TORSDOF 0
ENDMDL
MODEL 6
REMARK VINA RESULT:      -6.9      3.678      6.466
REMARK  Name = 
REMARK  2 active torsions:
REMARK  status: ('A' for Active; 'I' for Inactive)
REMARK    1  A    between atoms: C_1  and  N_2
REMARK    2  A    between atoms: N_25  and  C_26
REMARK                            x       y       z     vdW  Elec       q    Type
REMARK                         _______ _______ _______ _____ _____    ______ ____
ROOT
ATOM      1  C   UNL     1      -3.432  13.074  20.417  0.00  0.00    +0.000 C 
ATOM      2  N   UNL     1      -4.312  13.809  21.322  0.00  0.00    +0.000 N 
ATOM      3  C   UNL     1      -4.636  13.261  22.580  0.00  0.00    +0.000 A 
ATOM      4  C   UNL     1      -3.902  12.570  23.547  0.00  0.00    +0.000 A 
ATOM      5  C   UNL     1      -4.593  12.172  24.703  0.00  0.00    +0.000 A 
ATOM      6  C   UNL     1      -5.955  12.432  24.862  0.00  0.00    +0.000 A 
ATOM      7  C   UNL     1      -6.700  12.973  23.817  0.00  0.00    +0.000 A 
ATOM      8  C   UNL     1      -6.031  13.348  22.642  0.00  0.00    +0.000 A 
ATOM      9  C   UNL     1      -6.403  13.651  21.306  0.00  0.00    +0.000 A 
ATOM     10  C   UNL     1      -6.899  12.909  20.192  0.00  0.00    +0.000 A 
ATOM     11  N   UNL     1      -6.973  11.520  20.405  0.00  0.00    +0.000 NA
ATOM     12  C   UNL     1      -6.971  10.755  19.365  0.00  0.00    +0.000 A 
ATOM     13  N   UNL     1      -6.822   9.415  19.495  0.00  0.00    +0.000 N 
ATOM     14  N   UNL     1      -7.111  11.229  18.098  0.00  0.00    +0.000 N 
ATOM     15  C   UNL     1      -7.159  12.566  17.778  0.00  0.00    +0.000 A 
ATOM     16  O   UNL     1      -7.355  12.914  16.622  0.00  0.00    +0.000 OA
ATOM     17  C   UNL     1      -6.863  13.476  18.887  0.00  0.00    +0.000 A 
ATOM     18  C   UNL     1      -6.455  14.814  18.722  0.00  0.00    +0.000 A 
ATOM     19  C   UNL     1      -6.626  15.870  17.769  0.00  0.00    +0.000 A 
ATOM     20  C   UNL     1      -7.218  15.965  16.489  0.00  0.00    +0.000 A 
ATOM     21  C   UNL     1      -7.478  17.210  15.911  0.00  0.00    +0.000 A 
ATOM     22  C   UNL     1      -7.174  18.373  16.599  0.00  0.00    +0.000 A 
ATOM     23  C   UNL     1      -6.554  18.322  17.853  0.00  0.00    +0.000 A 
ATOM     24  C   UNL     1      -6.269  17.063  18.425  0.00  0.00    +0.000 A 
ATOM     25  N   UNL     1      -5.750  16.711  19.659  0.00  0.00    +0.000 N 
ATOM     26  C   UNL     1      -5.598  17.623  20.776  0.00  0.00    +0.000 C 
ATOM     27  C   UNL     1      -5.700  15.337  19.770  0.00  0.00    +0.000 A 
ATOM     28  C   UNL     1      -5.432  14.581  20.925  0.00  0.00    +0.000 A 
ATOM     29  H   UNL     1      -6.865   9.085  20.448  0.00  0.00    +0.000 HD
ATOM     30  H   UNL     1      -7.168   8.798  18.782  0.00  0.00    +0.000 HD
ATOM     31  H   UNL     1      -7.159  10.602  17.318  0.00  0.00    +0.000 HD
ENDROOT
TORSDOF 0
ENDMDL
MODEL 7
REMARK VINA RESULT:      -6.7      2.286      4.810
REMARK  Name = 
REMARK  2 active torsions:
REMARK  status: ('A' for Active; 'I' for Inactive)
REMARK    1  A    between atoms: C_1  and  N_2
REMARK    2  A    between atoms: N_25  and  C_26
REMARK                            x       y       z     vdW  Elec       q    Type
REMARK                         _______ _______ _______ _____ _____    ______ ____
ROOT
ATOM      1  C   UNL     1      -0.094  11.565  21.506  0.00  0.00    +0.000 C 
ATOM      2  N   UNL     1      -0.074  12.241  20.211  0.00  0.00    +0.000 N 
ATOM      3  C   UNL     1       0.974  13.132  19.903  0.00  0.00    +0.000 A 
ATOM      4  C   UNL     1       2.353  13.111  20.129  0.00  0.00    +0.000 A 
ATOM      5  C   UNL     1       3.087  14.213  19.662  0.00  0.00    +0.000 A 
ATOM      6  C   UNL     1       2.464  15.289  19.030  0.00  0.00    +0.000 A 
ATOM      7  C   UNL     1       1.074  15.364  18.965  0.00  0.00    +0.000 A 
ATOM      8  C   UNL     1       0.322  14.285  19.453  0.00  0.00    +0.000 A 
ATOM      9  C   UNL     1      -1.030  14.067  19.828  0.00  0.00    +0.000 A 
ATOM     10  C   UNL     1      -1.872  14.493  20.899  0.00  0.00    +0.000 A 
ATOM     11  N   UNL     1      -1.218  15.246  21.891  0.00  0.00    +0.000 NA
ATOM     12  C   UNL     1      -1.754  15.284  23.065  0.00  0.00    +0.000 A 
ATOM     13  N   UNL     1      -1.076  15.803  24.116  0.00  0.00    +0.000 N 
ATOM     14  N   UNL     1      -3.003  14.814  23.322  0.00  0.00    +0.000 N 
ATOM     15  C   UNL     1      -3.783  14.156  22.399  0.00  0.00    +0.000 A 
ATOM     16  O   UNL     1      -4.924  13.822  22.685  0.00  0.00    +0.000 OA
ATOM     17  C   UNL     1      -3.103  13.821  21.145  0.00  0.00    +0.000 A 
ATOM     18  C   UNL     1      -3.541  12.824  20.252  0.00  0.00    +0.000 A 
ATOM     19  C   UNL     1      -4.775  12.209  19.864  0.00  0.00    +0.000 A 
ATOM     20  C   UNL     1      -6.110  12.287  20.323  0.00  0.00    +0.000 A 
ATOM     21  C   UNL     1      -7.161  11.773  19.560  0.00  0.00    +0.000 A 
ATOM     22  C   UNL     1      -6.906  11.193  18.327  0.00  0.00    +0.000 A 
ATOM     23  C   UNL     1      -5.595  11.064  17.854  0.00  0.00    +0.000 A 
ATOM     24  C   UNL     1      -4.532  11.562  18.638  0.00  0.00    +0.000 A 
ATOM     25  N   UNL     1      -3.173  11.648  18.394  0.00  0.00    +0.000 N 
ATOM     26  C   UNL     1      -2.556  11.437  17.098  0.00  0.00    +0.000 C 
ATOM     27  C   UNL     1      -2.545  12.260  19.458  0.00  0.00    +0.000 A 
ATOM     28  C   UNL     1      -1.216  12.717  19.520  0.00  0.00    +0.000 A 
ATOM     29  H   UNL     1      -0.217  16.269  23.865  0.00  0.00    +0.000 HD
ATOM     30  H   UNL     1      -1.575  16.163  24.910  0.00  0.00    +0.000 HD
ATOM     31  H   UNL     1      -3.410  14.909  24.233  0.00  0.00    +0.000 HD
ENDROOT
TORSDOF 0
ENDMDL
MODEL 8
REMARK VINA RESULT:      -6.7     11.210     12.627
REMARK  Name = 
REMARK  2 active torsions:
REMARK  status: ('A' for Active; 'I' for Inactive)
REMARK    1  A    between atoms: C_1  and  N_2
REMARK    2  A    between atoms: N_25  and  C_26
REMARK                            x       y       z     vdW  Elec       q    Type
REMARK                         _______ _______ _______ _____ _____    ______ ____
ROOT
ATOM      1  C   UNL     1       7.574  14.924  19.578  0.00  0.00    +0.000 C 
ATOM      2  N   UNL     1       8.872  15.506  19.911  0.00  0.00    +0.000 N 
ATOM      3  C   UNL     1       9.881  15.571  18.928  0.00  0.00    +0.000 A 
ATOM      4  C   UNL     1       9.879  15.874  17.564  0.00  0.00    +0.000 A 
ATOM      5  C   UNL     1      11.117  15.831  16.903  0.00  0.00    +0.000 A 
ATOM      6  C   UNL     1      12.288  15.473  17.573  0.00  0.00    +0.000 A 
ATOM      7  C   UNL     1      12.239  15.015  18.889  0.00  0.00    +0.000 A 
ATOM      8  C   UNL     1      11.006  15.023  19.555  0.00  0.00    +0.000 A 
ATOM      9  C   UNL     1      10.470  14.418  20.723  0.00  0.00    +0.000 A 
ATOM     10  C   UNL     1      10.105  13.093  21.109  0.00  0.00    +0.000 A 
ATOM     11  N   UNL     1      10.209  12.138  20.082  0.00  0.00    +0.000 NA
ATOM     12  C   UNL     1       9.504  11.062  20.192  0.00  0.00    +0.000 A 
ATOM     13  N   UNL     1       9.386  10.205  19.150  0.00  0.00    +0.000 N 
ATOM     14  N   UNL     1       8.844  10.725  21.332  0.00  0.00    +0.000 N 
ATOM     15  C   UNL     1       8.764  11.533  22.443  0.00  0.00    +0.000 A 
ATOM     16  O   UNL     1       8.208  11.131  23.455  0.00  0.00    +0.000 OA
ATOM     17  C   UNL     1       9.291  12.887  22.258  0.00  0.00    +0.000 A 
ATOM     18  C   UNL     1       8.955  13.982  23.078  0.00  0.00    +0.000 A 
ATOM     19  C   UNL     1       8.553  14.215  24.433  0.00  0.00    +0.000 A 
ATOM     20  C   UNL     1       8.210  13.383  25.523  0.00  0.00    +0.000 A 
ATOM     21  C   UNL     1       8.126  13.898  26.819  0.00  0.00    +0.000 A 
ATOM     22  C   UNL     1       8.398  15.236  27.053  0.00  0.00    +0.000 A 
ATOM     23  C   UNL     1       8.705  16.100  25.997  0.00  0.00    +0.000 A 
ATOM     24  C   UNL     1       8.765  15.583  24.685  0.00  0.00    +0.000 A 
ATOM     25  N   UNL     1       9.119  16.169  23.482  0.00  0.00    +0.000 N 
ATOM     26  C   UNL     1       9.764  17.462  23.356  0.00  0.00    +0.000 C 
ATOM     27  C   UNL     1       9.064  15.232  22.471  0.00  0.00    +0.000 A 
ATOM     28  C   UNL     1       9.537  15.365  21.154  0.00  0.00    +0.000 A 
ATOM     29  H   UNL     1       9.999  10.410  18.375  0.00  0.00    +0.000 HD
ATOM     30  H   UNL     1       9.165   9.239  19.315  0.00  0.00    +0.000 HD
ATOM     31  H   UNL     1       8.350   9.855  21.401  0.00  0.00    +0.000 HD
ENDROOT
TORSDOF 0
ENDMDL
MODEL 9
REMARK VINA RESULT:      -6.6      3.202      6.777
REMARK  Name = 
REMARK  2 active torsions:
REMARK  status: ('A' for Active; 'I' for Inactive)
REMARK    1  A    between atoms: C_1  and  N_2
REMARK    2  A    between atoms: N_25  and  C_26
REMARK                            x       y       z     vdW  Elec       q    Type
REMARK                         _______ _______ _______ _____ _____    ______ ____
ROOT
ATOM      1  C   UNL     1      -3.777  16.558  22.288  0.00  0.00    +0.000 C 
ATOM      2  N   UNL     1      -3.973  15.916  20.990  0.00  0.00    +0.000 N 
ATOM      3  C   UNL     1      -5.081  16.272  20.195  0.00  0.00    +0.000 A 
ATOM      4  C   UNL     1      -5.707  17.487  19.903  0.00  0.00    +0.000 A 
ATOM      5  C   UNL     1      -6.817  17.438  19.045  0.00  0.00    +0.000 A 
ATOM      6  C   UNL     1      -7.289  16.229  18.533  0.00  0.00    +0.000 A 
ATOM      7  C   UNL     1      -6.753  15.018  18.968  0.00  0.00    +0.000 A 
ATOM      8  C   UNL     1      -5.663  15.047  19.849  0.00  0.00    +0.000 A 
ATOM      9  C   UNL     1      -5.024  14.123  20.719  0.00  0.00    +0.000 A 
ATOM     10  C   UNL     1      -5.362  13.480  21.948  0.00  0.00    +0.000 A 
ATOM     11  N   UNL     1      -6.580  13.903  22.511  0.00  0.00    +0.000 NA
ATOM     12  C   UNL     1      -6.744  13.732  23.780  0.00  0.00    +0.000 A 
ATOM     13  N   UNL     1      -7.788  14.304  24.424  0.00  0.00    +0.000 N 
ATOM     14  N   UNL     1      -5.897  12.988  24.541  0.00  0.00    +0.000 N 
ATOM     15  C   UNL     1      -4.729  12.432  24.072  0.00  0.00    +0.000 A 
ATOM     16  O   UNL     1      -4.054  11.718  24.800  0.00  0.00    +0.000 OA
ATOM     17  C   UNL     1      -4.347  12.849  22.721  0.00  0.00    +0.000 A 
ATOM     18  C   UNL     1      -3.040  12.751  22.205  0.00  0.00    +0.000 A 
ATOM     19  C   UNL     1      -1.881  11.930  22.388  0.00  0.00    +0.000 A 
ATOM     20  C   UNL     1      -1.529  10.895  23.284  0.00  0.00    +0.000 A 
ATOM     21  C   UNL     1      -0.420  10.082  23.040  0.00  0.00    +0.000 A 
ATOM     22  C   UNL     1       0.342  10.271  21.899  0.00  0.00    +0.000 A 
ATOM     23  C   UNL     1       0.050  11.307  21.006  0.00  0.00    +0.000 A 
ATOM     24  C   UNL     1      -1.058  12.143  21.267  0.00  0.00    +0.000 A 
ATOM     25  N   UNL     1      -1.625  13.172  20.534  0.00  0.00    +0.000 N 
ATOM     26  C   UNL     1      -1.310  13.464  19.149  0.00  0.00    +0.000 C 
ATOM     27  C   UNL     1      -2.732  13.660  21.195  0.00  0.00    +0.000 A 
ATOM     28  C   UNL     1      -3.697  14.557  20.700  0.00  0.00    +0.000 A 
ATOM     29  H   UNL     1      -8.470  14.727  23.812  0.00  0.00    +0.000 HD
ATOM     30  H   UNL     1      -8.128  13.910  25.283  0.00  0.00    +0.000 HD
ATOM     31  H   UNL     1      -6.083  12.831  25.513  0.00  0.00    +0.000 HD
ENDROOT
TORSDOF 0
ENDMDL
