MODEL 1
REMARK VINA RESULT:      -7.2      0.000      0.000
REMARK  Name = 
REMARK  7 active torsions:
REMARK  status: ('A' for Active; 'I' for Inactive)
REMARK    1  A    between atoms: C_1  and  N_2
REMARK    2  A    between atoms: N_2  and  C_3
REMARK    3  A    between atoms: N_2  and  S_4
REMARK    4  A    between atoms: S_4  and  C_7
REMARK    5  A    between atoms: C_9  and  N_10
REMARK    6  A    between atoms: C_11  and  C_13
REMARK    7  A    between atoms: C_13  and  N_14
REMARK                            x       y       z     vdW  Elec       q    Type
REMARK                         _______ _______ _______ _____ _____    ______ ____
ROOT
ATOM      1  C   UNL     1       3.614   4.512  18.855  0.00  0.00    +0.000 A 
ATOM      2  C   UNL     1       3.283   5.710  19.517  0.00  0.00    +0.000 A 
ATOM      3  C   UNL     1       2.117   5.829  20.271  0.00  0.00    +0.000 A 
ATOM      4  C   UNL     1       1.213   4.765  20.270  0.00  0.00    +0.000 A 
ATOM      5  C   UNL     1       1.518   3.584  19.580  0.00  0.00    +0.000 A 
ATOM      6  C   UNL     1       2.719   3.441  18.882  0.00  0.00    +0.000 A 
ATOM      7 CL   UNL     1       3.008   1.901  18.162  0.00  0.00    +0.000 Cl
ENDROOT
BRANCH   3   8
ATOM      8  N   UNL     1       1.819   6.977  21.047  0.00  0.00    +0.000 N 
ATOM      9  C   UNL     1       1.596   8.247  20.530  0.00  0.00    +0.000 C 
ATOM     10  O   UNL     1       1.672   8.575  19.346  0.00  0.00    +0.000 OA
ATOM     11  H   UNL     1       1.950   6.865  22.045  0.00  0.00    +0.000 HD
BRANCH   9  12
ATOM     12  C   UNL     1       1.140   9.300  21.545  0.00  0.00    +0.000 C 
BRANCH  12  13
ATOM     13  N   UNL     1       0.289  10.438  20.951  0.00  0.00    +0.000 N 
ATOM     14  C   UNL     1      -0.603   9.947  19.787  0.00  0.00    +0.000 C 
ATOM     15  C   UNL     1      -1.465  11.132  19.271  0.00  0.00    +0.000 C 
ATOM     16  N   UNL     1      -1.205  12.412  19.987  0.00  0.00    +0.000 NA
ATOM     17  C   UNL     1       0.245  12.723  19.849  0.00  0.00    +0.000 C 
ATOM     18  C   UNL     1       1.173  11.600  20.390  0.00  0.00    +0.000 C 
ATOM     19  C   UNL     1      -1.477  12.189  21.429  0.00  0.00    +0.000 C 
ATOM     20  C   UNL     1      -0.632  11.041  22.042  0.00  0.00    +0.000 C 
ENDBRANCH  12  13
ENDBRANCH   9  12
ENDBRANCH   3   8
BRANCH   1  21
ATOM     21  S   UNL     1       5.208   4.471  18.055  0.00  0.00    +0.000 S 
ATOM     22  O   UNL     1       5.029   3.745  16.814  0.00  0.00    +0.000 OA
ATOM     23  O   UNL     1       6.218   4.051  18.998  0.00  0.00    +0.000 OA
BRANCH  21  25
ATOM     24  C   UNL     1       6.824   6.644  17.876  0.00  0.00    +0.000 C 
ATOM     25  N   UNL     1       5.469   6.114  17.660  0.00  0.00    +0.000 NA
ATOM     26  C   UNL     1       4.841   6.598  16.417  0.00  0.00    +0.000 C 
ENDBRANCH  21  25
ENDBRANCH   1  21
TORSDOF 5
ENDMDL
MODEL 2
REMARK VINA RESULT:      -7.2      2.091      3.529
REMARK  Name = 
REMARK  7 active torsions:
REMARK  status: ('A' for Active; 'I' for Inactive)
REMARK    1  A    between atoms: C_1  and  N_2
REMARK    2  A    between atoms: N_2  and  C_3
REMARK    3  A    between atoms: N_2  and  S_4
REMARK    4  A    between atoms: S_4  and  C_7
REMARK    5  A    between atoms: C_9  and  N_10
REMARK    6  A    between atoms: C_11  and  C_13
REMARK    7  A    between atoms: C_13  and  N_14
REMARK                            x       y       z     vdW  Elec       q    Type
REMARK                         _______ _______ _______ _____ _____    ______ ____
ROOT
ATOM      1  C   UNL     1       3.663   4.751  18.381  0.00  0.00    +0.000 A 
ATOM      2  C   UNL     1       2.980   5.752  19.097  0.00  0.00    +0.000 A 
ATOM      3  C   UNL     1       2.978   7.080  18.672  0.00  0.00    +0.000 A 
ATOM      4  C   UNL     1       3.766   7.428  17.572  0.00  0.00    +0.000 A 
ATOM      5  C   UNL     1       4.481   6.440  16.880  0.00  0.00    +0.000 A 
ATOM      6  C   UNL     1       4.426   5.100  17.265  0.00  0.00    +0.000 A 
ATOM      7 CL   UNL     1       5.274   3.980  16.265  0.00  0.00    +0.000 Cl
ENDROOT
BRANCH   3   8
ATOM      8  N   UNL     1       2.201   8.085  19.300  0.00  0.00    +0.000 N 
ATOM      9  C   UNL     1       1.304   8.918  18.645  0.00  0.00    +0.000 C 
ATOM     10  O   UNL     1       1.087   8.947  17.433  0.00  0.00    +0.000 OA
ATOM     11  H   UNL     1       2.465   8.295  20.256  0.00  0.00    +0.000 HD
BRANCH   9  12
ATOM     12  C   UNL     1       0.466   9.825  19.551  0.00  0.00    +0.000 C 
BRANCH  12  13
ATOM     13  N   UNL     1       0.742  11.331  19.385  0.00  0.00    +0.000 N 
ATOM     14  C   UNL     1       2.001  11.597  18.527  0.00  0.00    +0.000 C 
ATOM     15  C   UNL     1       2.190  13.129  18.361  0.00  0.00    +0.000 C 
ATOM     16  N   UNL     1       1.157  13.936  19.069  0.00  0.00    +0.000 NA
ATOM     17  C   UNL     1       1.196  13.559  20.509  0.00  0.00    +0.000 C 
ATOM     18  C   UNL     1       0.966  12.042  20.759  0.00  0.00    +0.000 C 
ATOM     19  C   UNL     1      -0.171  13.538  18.541  0.00  0.00    +0.000 C 
ATOM     20  C   UNL     1      -0.463  12.022  18.696  0.00  0.00    +0.000 C 
ENDBRANCH  12  13
ENDBRANCH   9  12
ENDBRANCH   3   8
BRANCH   1  21
ATOM     21  S   UNL     1       3.448   3.080  18.970  0.00  0.00    +0.000 S 
ATOM     22  O   UNL     1       4.652   2.743  19.704  0.00  0.00    +0.000 OA
ATOM     23  O   UNL     1       3.001   2.234  17.889  0.00  0.00    +0.000 OA
BRANCH  21  25
ATOM     24  C   UNL     1       0.834   2.854  19.662  0.00  0.00    +0.000 C 
ATOM     25  N   UNL     1       2.180   3.245  20.105  0.00  0.00    +0.000 NA
ATOM     26  C   UNL     1       2.483   2.838  21.490  0.00  0.00    +0.000 C 
ENDBRANCH  21  25
ENDBRANCH   1  21
TORSDOF 5
ENDMDL
MODEL 3
REMARK VINA RESULT:      -7.2      2.003      3.500
REMARK  Name = 
REMARK  7 active torsions:
REMARK  status: ('A' for Active; 'I' for Inactive)
REMARK    1  A    between atoms: C_1  and  N_2
REMARK    2  A    between atoms: N_2  and  C_3
REMARK    3  A    between atoms: N_2  and  S_4
REMARK    4  A    between atoms: S_4  and  C_7
REMARK    5  A    between atoms: C_9  and  N_10
REMARK    6  A    between atoms: C_11  and  C_13
REMARK    7  A    between atoms: C_13  and  N_14
REMARK                            x       y       z     vdW  Elec       q    Type
REMARK                         _______ _______ _______ _____ _____    ______ ____
ROOT
ATOM      1  C   UNL     1       3.980   4.765  18.265  0.00  0.00    +0.000 A 
ATOM      2  C   UNL     1       2.926   5.627  18.621  0.00  0.00    +0.000 A 
ATOM      3  C   UNL     1       2.852   6.930  18.131  0.00  0.00    +0.000 A 
ATOM      4  C   UNL     1       3.912   7.412  17.359  0.00  0.00    +0.000 A 
ATOM      5  C   UNL     1       4.985   6.569  17.035  0.00  0.00    +0.000 A 
ATOM      6  C   UNL     1       5.022   5.243  17.469  0.00  0.00    +0.000 A 
ATOM      7 CL   UNL     1       6.351   4.293  16.914  0.00  0.00    +0.000 Cl
ENDROOT
BRANCH   3   8
ATOM      8  N   UNL     1       1.743   7.779  18.372  0.00  0.00    +0.000 N 
ATOM      9  C   UNL     1       1.651   9.100  17.954  0.00  0.00    +0.000 C 
ATOM     10  O   UNL     1       2.522   9.741  17.367  0.00  0.00    +0.000 OA
ATOM     11  H   UNL     1       1.067   7.421  19.037  0.00  0.00    +0.000 HD
BRANCH   9  12
ATOM     12  C   UNL     1       0.296   9.774  18.196  0.00  0.00    +0.000 C 
BRANCH  12  13
ATOM     13  N   UNL     1       0.192  10.548  19.524  0.00  0.00    +0.000 N 
ATOM     14  C   UNL     1       1.239  11.683  19.615  0.00  0.00    +0.000 C 
ATOM     15  C   UNL     1       1.044  12.448  20.953  0.00  0.00    +0.000 C 
ATOM     16  N   UNL     1      -0.051  11.898  21.798  0.00  0.00    +0.000 NA
ATOM     17  C   UNL     1       0.253  10.463  22.059  0.00  0.00    +0.000 C 
ATOM     18  C   UNL     1       0.414   9.620  20.763  0.00  0.00    +0.000 C 
ATOM     19  C   UNL     1      -1.306  11.950  21.008  0.00  0.00    +0.000 C 
ATOM     20  C   UNL     1      -1.216  11.180  19.664  0.00  0.00    +0.000 C 
ENDBRANCH  12  13
ENDBRANCH   9  12
ENDBRANCH   3   8
BRANCH   1  21
ATOM     21  S   UNL     1       3.854   3.086  18.856  0.00  0.00    +0.000 S 
ATOM     22  O   UNL     1       4.938   2.898  19.799  0.00  0.00    +0.000 OA
ATOM     23  O   UNL     1       3.705   2.184  17.738  0.00  0.00    +0.000 OA
BRANCH  21  25
ATOM     24  C   UNL     1       1.239   2.424  19.149  0.00  0.00    +0.000 C 
ATOM     25  N   UNL     1       2.394   3.112  19.745  0.00  0.00    +0.000 NA
ATOM     26  C   UNL     1       2.509   2.911  21.201  0.00  0.00    +0.000 C 
ENDBRANCH  21  25
ENDBRANCH   1  21
TORSDOF 5
ENDMDL
MODEL 4
REMARK VINA RESULT:      -7.2      2.010      3.514
REMARK  Name = 
REMARK  7 active torsions:
REMARK  status: ('A' for Active; 'I' for Inactive)
REMARK    1  A    between atoms: C_1  and  N_2
REMARK    2  A    between atoms: N_2  and  C_3
REMARK    3  A    between atoms: N_2  and  S_4
REMARK    4  A    between atoms: S_4  and  C_7
REMARK    5  A    between atoms: C_9  and  N_10
REMARK    6  A    between atoms: C_11  and  C_13
REMARK    7  A    between atoms: C_13  and  N_14
REMARK                            x       y       z     vdW  Elec       q    Type
REMARK                         _______ _______ _______ _____ _____    ______ ____
ROOT
ATOM      1  C   UNL     1       3.962   4.785  18.263  0.00  0.00    +0.000 A 
ATOM      2  C   UNL     1       2.903   5.646  18.610  0.00  0.00    +0.000 A 
ATOM      3  C   UNL     1       2.827   6.946  18.114  0.00  0.00    +0.000 A 
ATOM      4  C   UNL     1       3.889   7.427  17.344  0.00  0.00    +0.000 A 
ATOM      5  C   UNL     1       4.966   6.586  17.028  0.00  0.00    +0.000 A 
ATOM      6  C   UNL     1       5.006   5.262  17.469  0.00  0.00    +0.000 A 
ATOM      7 CL   UNL     1       6.340   4.314  16.924  0.00  0.00    +0.000 Cl
ENDROOT
BRANCH   3   8
ATOM      8  N   UNL     1       1.715   7.792  18.346  0.00  0.00    +0.000 N 
ATOM      9  C   UNL     1       1.637   9.124  17.957  0.00  0.00    +0.000 C 
ATOM     10  O   UNL     1       2.525   9.775  17.408  0.00  0.00    +0.000 OA
ATOM     11  H   UNL     1       1.021   7.421  18.984  0.00  0.00    +0.000 HD
BRANCH   9  12
ATOM     12  C   UNL     1       0.278   9.795  18.179  0.00  0.00    +0.000 C 
BRANCH  12  13
ATOM     13  N   UNL     1       0.144  10.544  19.519  0.00  0.00    +0.000 N 
ATOM     14  C   UNL     1       0.335   9.602  20.730  0.00  0.00    +0.000 C 
ATOM     15  C   UNL     1       0.236  10.430  22.040  0.00  0.00    +0.000 C 
ATOM     16  N   UNL     1      -0.037  11.876  21.810  0.00  0.00    +0.000 NA
ATOM     17  C   UNL     1      -1.301  11.982  21.029  0.00  0.00    +0.000 C 
ATOM     18  C   UNL     1      -1.259  11.214  19.678  0.00  0.00    +0.000 C 
ATOM     19  C   UNL     1       1.056  12.415  20.962  0.00  0.00    +0.000 C 
ATOM     20  C   UNL     1       1.208  11.668  19.611  0.00  0.00    +0.000 C 
ENDBRANCH  12  13
ENDBRANCH   9  12
ENDBRANCH   3   8
BRANCH   1  21
ATOM     21  S   UNL     1       3.839   3.108  18.861  0.00  0.00    +0.000 S 
ATOM     22  O   UNL     1       4.927   2.924  19.801  0.00  0.00    +0.000 OA
ATOM     23  O   UNL     1       3.684   2.202  17.748  0.00  0.00    +0.000 OA
BRANCH  21  25
ATOM     24  C   UNL     1       1.222   2.455  19.165  0.00  0.00    +0.000 C 
ATOM     25  N   UNL     1       2.382   3.138  19.756  0.00  0.00    +0.000 NA
ATOM     26  C   UNL     1       2.503   2.935  21.212  0.00  0.00    +0.000 C 
ENDBRANCH  21  25
ENDBRANCH   1  21
TORSDOF 5
ENDMDL
MODEL 5
REMARK VINA RESULT:      -7.2      0.488      1.201
REMARK  Name = 
REMARK  7 active torsions:
REMARK  status: ('A' for Active; 'I' for Inactive)
REMARK    1  A    between atoms: C_1  and  N_2
REMARK    2  A    between atoms: N_2  and  C_3
REMARK    3  A    between atoms: N_2  and  S_4
REMARK    4  A    between atoms: S_4  and  C_7
REMARK    5  A    between atoms: C_9  and  N_10
REMARK    6  A    between atoms: C_11  and  C_13
REMARK    7  A    between atoms: C_13  and  N_14
REMARK                            x       y       z     vdW  Elec       q    Type
REMARK                         _______ _______ _______ _____ _____    ______ ____
ROOT
ATOM      1  C   UNL     1       3.607   4.555  18.954  0.00  0.00    +0.000 A 
ATOM      2  C   UNL     1       3.259   5.813  19.481  0.00  0.00    +0.000 A 
ATOM      3  C   UNL     1       2.116   5.987  20.260  0.00  0.00    +0.000 A 
ATOM      4  C   UNL     1       1.251   4.903  20.422  0.00  0.00    +0.000 A 
ATOM      5  C   UNL     1       1.573   3.657  19.866  0.00  0.00    +0.000 A 
ATOM      6  C   UNL     1       2.753   3.468  19.144  0.00  0.00    +0.000 A 
ATOM      7 CL   UNL     1       3.070   1.862  18.602  0.00  0.00    +0.000 Cl
ENDROOT
BRANCH   3   8
ATOM      8  N   UNL     1       1.805   7.210  20.905  0.00  0.00    +0.000 N 
ATOM      9  C   UNL     1       1.580   8.415  20.251  0.00  0.00    +0.000 C 
ATOM     10  O   UNL     1       1.666   8.614  19.039  0.00  0.00    +0.000 OA
ATOM     11  H   UNL     1       1.929   7.208  21.910  0.00  0.00    +0.000 HD
BRANCH   9  12
ATOM     12  C   UNL     1       1.110   9.569  21.143  0.00  0.00    +0.000 C 
BRANCH  12  13
ATOM     13  N   UNL     1       0.296  10.654  20.412  0.00  0.00    +0.000 N 
ATOM     14  C   UNL     1       1.194  11.564  19.542  0.00  0.00    +0.000 C 
ATOM     15  C   UNL     1       0.304  12.598  18.800  0.00  0.00    +0.000 C 
ATOM     16  N   UNL     1      -1.145  12.475  19.123  0.00  0.00    +0.000 NA
ATOM     17  C   UNL     1      -1.295  12.621  20.597  0.00  0.00    +0.000 C 
ATOM     18  C   UNL     1      -0.468  11.585  21.409  0.00  0.00    +0.000 C 
ATOM     19  C   UNL     1      -1.575  11.101  18.765  0.00  0.00    +0.000 C 
ATOM     20  C   UNL     1      -0.761   9.996  19.488  0.00  0.00    +0.000 C 
ENDBRANCH  12  13
ENDBRANCH   9  12
ENDBRANCH   3   8
BRANCH   1  21
ATOM     21  S   UNL     1       5.173   4.467  18.103  0.00  0.00    +0.000 S 
ATOM     22  O   UNL     1       4.940   3.715  16.887  0.00  0.00    +0.000 OA
ATOM     23  O   UNL     1       6.207   4.053  19.022  0.00  0.00    +0.000 OA
BRANCH  21  25
ATOM     24  C   UNL     1       6.793   6.636  17.907  0.00  0.00    +0.000 C 
ATOM     25  N   UNL     1       5.448   6.095  17.659  0.00  0.00    +0.000 NA
ATOM     26  C   UNL     1       4.868   6.532  16.375  0.00  0.00    +0.000 C 
ENDBRANCH  21  25
ENDBRANCH   1  21
TORSDOF 5
ENDMDL
MODEL 6
REMARK VINA RESULT:      -7.1      2.012      3.395
REMARK  Name = 
REMARK  7 active torsions:
REMARK  status: ('A' for Active; 'I' for Inactive)
REMARK    1  A    between atoms: C_1  and  N_2
REMARK    2  A    between atoms: N_2  and  C_3
REMARK    3  A    between atoms: N_2  and  S_4
REMARK    4  A    between atoms: S_4  and  C_7
REMARK    5  A    between atoms: C_9  and  N_10
REMARK    6  A    between atoms: C_11  and  C_13
REMARK    7  A    between atoms: C_13  and  N_14
REMARK                            x       y       z     vdW  Elec       q    Type
REMARK                         _______ _______ _______ _____ _____    ______ ____
ROOT
ATOM      1  C   UNL     1       3.923   4.786  18.296  0.00  0.00    +0.000 A 
ATOM      2  C   UNL     1       2.864   5.648  18.637  0.00  0.00    +0.000 A 
ATOM      3  C   UNL     1       2.801   6.954  18.154  0.00  0.00    +0.000 A 
ATOM      4  C   UNL     1       3.876   7.438  17.404  0.00  0.00    +0.000 A 
ATOM      5  C   UNL     1       4.953   6.596  17.095  0.00  0.00    +0.000 A 
ATOM      6  C   UNL     1       4.981   5.267  17.522  0.00  0.00    +0.000 A 
ATOM      7 CL   UNL     1       6.318   4.318  16.987  0.00  0.00    +0.000 Cl
ENDROOT
BRANCH   3   8
ATOM      8  N   UNL     1       1.689   7.803  18.379  0.00  0.00    +0.000 N 
ATOM      9  C   UNL     1       1.610   9.130  17.974  0.00  0.00    +0.000 C 
ATOM     10  O   UNL     1       2.497   9.775  17.415  0.00  0.00    +0.000 OA
ATOM     11  H   UNL     1       0.997   7.440  19.023  0.00  0.00    +0.000 HD
BRANCH   9  12
ATOM     12  C   UNL     1       0.252   9.804  18.192  0.00  0.00    +0.000 C 
BRANCH  12  13
ATOM     13  N   UNL     1       0.132  10.595  19.508  0.00  0.00    +0.000 N 
ATOM     14  C   UNL     1      -1.262  11.246  19.668  0.00  0.00    +0.000 C 
ATOM     15  C   UNL     1      -1.326  11.983  21.033  0.00  0.00    +0.000 C 
ATOM     16  N   UNL     1      -0.060  11.903  21.812  0.00  0.00    +0.000 NA
ATOM     17  C   UNL     1       1.029  12.466  20.968  0.00  0.00    +0.000 C 
ATOM     18  C   UNL     1       1.187  11.746  19.599  0.00  0.00    +0.000 C 
ATOM     19  C   UNL     1       0.247  10.468  22.035  0.00  0.00    +0.000 C 
ATOM     20  C   UNL     1       0.366   9.655  20.719  0.00  0.00    +0.000 C 
ENDBRANCH  12  13
ENDBRANCH   9  12
ENDBRANCH   3   8
BRANCH   1  21
ATOM     21  S   UNL     1       3.783   3.104  18.874  0.00  0.00    +0.000 S 
ATOM     22  O   UNL     1       4.874   2.896  19.806  0.00  0.00    +0.000 OA
ATOM     23  O   UNL     1       3.613   2.213  17.751  0.00  0.00    +0.000 OA
BRANCH  21  25
ATOM     24  C   UNL     1       1.156   2.492  19.174  0.00  0.00    +0.000 C 
ATOM     25  N   UNL     1       2.332   3.139  19.777  0.00  0.00    +0.000 NA
ATOM     26  C   UNL     1       2.454   2.899  21.226  0.00  0.00    +0.000 C 
ENDBRANCH  21  25
ENDBRANCH   1  21
TORSDOF 5
ENDMDL
MODEL 7
REMARK VINA RESULT:      -7.1      2.082      3.625
REMARK  Name = 
REMARK  7 active torsions:
REMARK  status: ('A' for Active; 'I' for Inactive)
REMARK    1  A    between atoms: C_1  and  N_2
REMARK    2  A    between atoms: N_2  and  C_3
REMARK    3  A    between atoms: N_2  and  S_4
REMARK    4  A    between atoms: S_4  and  C_7
REMARK    5  A    between atoms: C_9  and  N_10
REMARK    6  A    between atoms: C_11  and  C_13
REMARK    7  A    between atoms: C_13  and  N_14
REMARK                            x       y       z     vdW  Elec       q    Type
REMARK                         _______ _______ _______ _____ _____    ______ ____
ROOT
ATOM      1  C   UNL     1       3.561   4.714  18.308  0.00  0.00    +0.000 A 
ATOM      2  C   UNL     1       2.901   5.705  19.059  0.00  0.00    +0.000 A 
ATOM      3  C   UNL     1       2.941   7.048  18.689  0.00  0.00    +0.000 A 
ATOM      4  C   UNL     1       3.747   7.417  17.609  0.00  0.00    +0.000 A 
ATOM      5  C   UNL     1       4.439   6.438  16.882  0.00  0.00    +0.000 A 
ATOM      6  C   UNL     1       4.342   5.085  17.213  0.00  0.00    +0.000 A 
ATOM      7 CL   UNL     1       5.166   3.982  16.174  0.00  0.00    +0.000 Cl
ENDROOT
BRANCH   3   8
ATOM      8  N   UNL     1       2.189   8.050  19.351  0.00  0.00    +0.000 N 
ATOM      9  C   UNL     1       1.304   8.920  18.727  0.00  0.00    +0.000 C 
ATOM     10  O   UNL     1       1.080   8.988  17.518  0.00  0.00    +0.000 OA
ATOM     11  H   UNL     1       2.463   8.226  20.310  0.00  0.00    +0.000 HD
BRANCH   9  12
ATOM     12  C   UNL     1       0.490   9.816  19.666  0.00  0.00    +0.000 C 
BRANCH  12  13
ATOM     13  N   UNL     1       0.663  11.327  19.421  0.00  0.00    +0.000 N 
ATOM     14  C   UNL     1       0.807  12.115  20.744  0.00  0.00    +0.000 C 
ATOM     15  C   UNL     1       1.027  13.617  20.420  0.00  0.00    +0.000 C 
ATOM     16  N   UNL     1       1.017  13.919  18.962  0.00  0.00    +0.000 NA
ATOM     17  C   UNL     1      -0.284  13.452  18.409  0.00  0.00    +0.000 C 
ATOM     18  C   UNL     1      -0.553  11.940  18.654  0.00  0.00    +0.000 C 
ATOM     19  C   UNL     1       2.087  13.111  18.324  0.00  0.00    +0.000 C 
ATOM     20  C   UNL     1       1.930  11.587  18.566  0.00  0.00    +0.000 C 
ENDBRANCH  12  13
ENDBRANCH   9  12
ENDBRANCH   3   8
BRANCH   1  21
ATOM     21  S   UNL     1       3.293   3.028  18.827  0.00  0.00    +0.000 S 
ATOM     22  O   UNL     1       4.508   2.603  19.493  0.00  0.00    +0.000 OA
ATOM     23  O   UNL     1       2.763   2.256  17.728  0.00  0.00    +0.000 OA
BRANCH  21  25
ATOM     24  C   UNL     1       0.711   2.820  19.638  0.00  0.00    +0.000 C 
ATOM     25  N   UNL     1       2.080   3.194  20.022  0.00  0.00    +0.000 NA
ATOM     26  C   UNL     1       2.442   2.771  21.387  0.00  0.00    +0.000 C 
ENDBRANCH  21  25
ENDBRANCH   1  21
TORSDOF 5
ENDMDL
MODEL 8
REMARK VINA RESULT:      -7.1      3.780      8.005
REMARK  Name = 
REMARK  7 active torsions:
REMARK  status: ('A' for Active; 'I' for Inactive)
REMARK    1  A    between atoms: C_1  and  N_2
REMARK    2  A    between atoms: N_2  and  C_3
REMARK    3  A    between atoms: N_2  and  S_4
REMARK    4  A    between atoms: S_4  and  C_7
REMARK    5  A    between atoms: C_9  and  N_10
REMARK    6  A    between atoms: C_11  and  C_13
REMARK    7  A    between atoms: C_13  and  N_14
REMARK                            x       y       z     vdW  Elec       q    Type
REMARK                         _______ _______ _______ _____ _____    ______ ____
ROOT
ATOM      1  C   UNL     1      -0.045  10.433  20.373  0.00  0.00    +0.000 A 
ATOM      2  C   UNL     1       0.852   9.385  20.094  0.00  0.00    +0.000 A 
ATOM      3  C   UNL     1       1.262   8.493  21.084  0.00  0.00    +0.000 A 
ATOM      4  C   UNL     1       0.851   8.725  22.399  0.00  0.00    +0.000 A 
ATOM      5  C   UNL     1      -0.010   9.792  22.689  0.00  0.00    +0.000 A 
ATOM      6  C   UNL     1      -0.476  10.642  21.684  0.00  0.00    +0.000 A 
ATOM      7 CL   UNL     1      -1.607  11.851  22.167  0.00  0.00    +0.000 Cl
ENDROOT
BRANCH   3   8
ATOM      8  N   UNL     1       2.065   7.358  20.810  0.00  0.00    +0.000 N 
ATOM      9  C   UNL     1       2.515   6.992  19.548  0.00  0.00    +0.000 C 
ATOM     10  O   UNL     1       2.248   7.556  18.487  0.00  0.00    +0.000 OA
ATOM     11  H   UNL     1       2.157   6.704  21.578  0.00  0.00    +0.000 HD
BRANCH   9  12
ATOM     12  C   UNL     1       3.494   5.814  19.515  0.00  0.00    +0.000 C 
BRANCH  12  13
ATOM     13  N   UNL     1       2.828   4.426  19.510  0.00  0.00    +0.000 N 
ATOM     14  C   UNL     1       1.641   4.357  18.521  0.00  0.00    +0.000 C 
ATOM     15  C   UNL     1       1.051   2.921  18.532  0.00  0.00    +0.000 C 
ATOM     16  N   UNL     1       1.738   2.004  19.483  0.00  0.00    +0.000 NA
ATOM     17  C   UNL     1       1.656   2.611  20.840  0.00  0.00    +0.000 C 
ATOM     18  C   UNL     1       2.272   4.036  20.918  0.00  0.00    +0.000 C 
ATOM     19  C   UNL     1       3.172   1.949  19.106  0.00  0.00    +0.000 C 
ATOM     20  C   UNL     1       3.858   3.341  19.101  0.00  0.00    +0.000 C 
ENDBRANCH  12  13
ENDBRANCH   9  12
ENDBRANCH   3   8
BRANCH   1  21
ATOM     21  S   UNL     1      -0.587  11.396  18.971  0.00  0.00    +0.000 S 
ATOM     22  O   UNL     1       0.174  10.928  17.830  0.00  0.00    +0.000 OA
ATOM     23  O   UNL     1      -0.588  12.799  19.312  0.00  0.00    +0.000 OA
BRANCH  21  25
ATOM     24  C   UNL     1      -3.253  11.894  18.903  0.00  0.00    +0.000 C 
ATOM     25  N   UNL     1      -2.202  10.876  18.764  0.00  0.00    +0.000 NA
ATOM     26  C   UNL     1      -2.449   9.925  17.664  0.00  0.00    +0.000 C 
ENDBRANCH  21  25
ENDBRANCH   1  21
TORSDOF 5
ENDMDL
MODEL 9
REMARK VINA RESULT:      -7.0      2.131      3.496
REMARK  Name = 
REMARK  7 active torsions:
REMARK  status: ('A' for Active; 'I' for Inactive)
REMARK    1  A    between atoms: C_1  and  N_2
REMARK    2  A    between atoms: N_2  and  C_3
REMARK    3  A    between atoms: N_2  and  S_4
REMARK    4  A    between atoms: S_4  and  C_7
REMARK    5  A    between atoms: C_9  and  N_10
REMARK    6  A    between atoms: C_11  and  C_13
REMARK    7  A    between atoms: C_13  and  N_14
REMARK                            x       y       z     vdW  Elec       q    Type
REMARK                         _______ _______ _______ _____ _____    ______ ____
ROOT
ATOM      1  C   UNL     1       3.572   4.964  18.268  0.00  0.00    +0.000 A 
ATOM      2  C   UNL     1       2.566   5.885  18.618  0.00  0.00    +0.000 A 
ATOM      3  C   UNL     1       2.576   7.193  18.137  0.00  0.00    +0.000 A 
ATOM      4  C   UNL     1       3.673   7.617  17.382  0.00  0.00    +0.000 A 
ATOM      5  C   UNL     1       4.697   6.714  17.065  0.00  0.00    +0.000 A 
ATOM      6  C   UNL     1       4.651   5.385  17.489  0.00  0.00    +0.000 A 
ATOM      7 CL   UNL     1       5.927   4.362  16.943  0.00  0.00    +0.000 Cl
ENDROOT
BRANCH   3   8
ATOM      8  N   UNL     1       1.517   8.105  18.371  0.00  0.00    +0.000 N 
ATOM      9  C   UNL     1       1.247   8.712  19.592  0.00  0.00    +0.000 C 
ATOM     10  O   UNL     1       1.844   8.515  20.650  0.00  0.00    +0.000 OA
ATOM     11  H   UNL     1       0.832   8.166  17.626  0.00  0.00    +0.000 HD
BRANCH   9  12
ATOM     12  C   UNL     1       0.146   9.776  19.568  0.00  0.00    +0.000 C 
BRANCH  12  13
ATOM     13  N   UNL     1       0.651  11.218  19.370  0.00  0.00    +0.000 N 
ATOM     14  C   UNL     1      -0.431  12.130  18.747  0.00  0.00    +0.000 C 
ATOM     15  C   UNL     1       0.129  13.572  18.622  0.00  0.00    +0.000 C 
ATOM     16  N   UNL     1       1.535  13.707  19.095  0.00  0.00    +0.000 NA
ATOM     17  C   UNL     1       2.371  12.755  18.314  0.00  0.00    +0.000 C 
ATOM     18  C   UNL     1       1.898  11.278  18.429  0.00  0.00    +0.000 C 
ATOM     19  C   UNL     1       1.579  13.277  20.515  0.00  0.00    +0.000 C 
ATOM     20  C   UNL     1       1.068  11.829  20.733  0.00  0.00    +0.000 C 
ENDBRANCH  12  13
ENDBRANCH   9  12
ENDBRANCH   3   8
BRANCH   1  21
ATOM     21  S   UNL     1       3.338   3.291  18.843  0.00  0.00    +0.000 S 
ATOM     22  O   UNL     1       4.386   3.038  19.812  0.00  0.00    +0.000 OA
ATOM     23  O   UNL     1       3.168   2.405  17.716  0.00  0.00    +0.000 OA
BRANCH  21  25
ATOM     24  C   UNL     1       0.706   2.688  19.116  0.00  0.00    +0.000 C 
ATOM     25  N   UNL     1       1.860   3.393  19.695  0.00  0.00    +0.000 NA
ATOM     26  C   UNL     1       1.939   3.279  21.164  0.00  0.00    +0.000 C 
ENDBRANCH  21  25
ENDBRANCH   1  21
TORSDOF 5
ENDMDL
