MODEL 1
REMARK VINA RESULT:      -8.1      0.000      0.000
REMARK  Name = 
REMARK  7 active torsions:
REMARK  status: ('A' for Active; 'I' for Inactive)
REMARK    1  A    between atoms: C_1  and  O_2
REMARK    2  A    between atoms: O_2  and  C_3
REMARK    3  A    between atoms: C_3  and  C_4
REMARK    4  A    between atoms: C_4  and  N_5
REMARK    5  A    between atoms: C_7  and  C_8
REMARK    6  A    between atoms: C_11  and  C_12
REMARK    7  A    between atoms: N_14  and  C_15
REMARK                            x       y       z     vdW  Elec       q    Type
REMARK                         _______ _______ _______ _____ _____    ______ ____
ROOT
ATOM      1  C   UNL     1       2.062   8.091  19.170  0.00  0.00    +0.000 A 
ATOM      2  C   UNL     1       2.306   8.746  17.981  0.00  0.00    +0.000 A 
ATOM      3  S   UNL     1       1.488  10.246  17.970  0.00  0.00    +0.000 S 
ATOM      4  C   UNL     1       0.866   9.907  19.540  0.00  0.00    +0.000 A 
ATOM      5  N   UNL     1       1.282   8.778  20.076  0.00  0.00    +0.000 NA
ENDROOT
BRANCH   4   6
ATOM      6  C   UNL     1      -0.110  10.798  20.247  0.00  0.00    +0.000 A 
ATOM      7  C   UNL     1       0.089  11.365  21.490  0.00  0.00    +0.000 A 
ATOM      8  N   UNL     1      -0.989  12.162  21.767  0.00  0.00    +0.000 N 
ATOM      9  C   UNL     1      -1.113  12.977  22.954  0.00  0.00    +0.000 C 
ATOM     10  C   UNL     1      -1.912  12.093  20.746  0.00  0.00    +0.000 A 
ATOM     11  C   UNL     1      -3.163  12.714  20.593  0.00  0.00    +0.000 A 
ATOM     12  C   UNL     1      -3.894  12.450  19.430  0.00  0.00    +0.000 A 
ATOM     13  C   UNL     1      -3.384  11.604  18.450  0.00  0.00    +0.000 A 
ATOM     14 BR   UNL     1      -4.402  11.252  16.894  0.00  0.00    +0.000 Br
ATOM     15  C   UNL     1      -2.133  11.003  18.598  0.00  0.00    +0.000 A 
ATOM     16  C   UNL     1      -1.380  11.240  19.769  0.00  0.00    +0.000 A 
ENDBRANCH   4   6
BRANCH   1  19
ATOM     17  N   UNL     1       2.624   4.755  20.508  0.00  0.00    +0.000 N 
ATOM     18  C   UNL     1       1.907   5.924  20.450  0.00  0.00    +0.000 A 
ATOM     19  C   UNL     1       2.478   6.727  19.485  0.00  0.00    +0.000 A 
ATOM     20  C   UNL     1       3.566   6.011  18.911  0.00  0.00    +0.000 A 
ATOM     21  C   UNL     1       4.526   6.251  17.911  0.00  0.00    +0.000 A 
ATOM     22  C   UNL     1       5.471   5.259  17.656  0.00  0.00    +0.000 A 
ATOM     23  C   UNL     1       5.415   4.079  18.385  0.00  0.00    +0.000 A 
ATOM     24  N   UNL     1       4.511   3.786  19.347  0.00  0.00    +0.000 NA
ATOM     25  C   UNL     1       3.625   4.778  19.568  0.00  0.00    +0.000 A 
BRANCH  17  26
ATOM     26  C   UNL     1       2.386   3.703  21.476  0.00  0.00    +0.000 C 
BRANCH  26  27
ATOM     27  C   UNL     1       1.231   2.792  21.072  0.00  0.00    +0.000 C 
BRANCH  27  29
ATOM     28  C   UNL     1       0.816   2.372  18.796  0.00  0.00    +0.000 C 
ATOM     29  O   UNL     1       1.603   2.021  19.928  0.00  0.00    +0.000 OA
ENDBRANCH  27  29
ENDBRANCH  26  27
ENDBRANCH  17  26
ENDBRANCH   1  19
TORSDOF 5
ENDMDL
MODEL 2
REMARK VINA RESULT:      -7.8      3.856      8.867
REMARK  Name = 
REMARK  7 active torsions:
REMARK  status: ('A' for Active; 'I' for Inactive)
REMARK    1  A    between atoms: C_1  and  O_2
REMARK    2  A    between atoms: O_2  and  C_3
REMARK    3  A    between atoms: C_3  and  C_4
REMARK    4  A    between atoms: C_4  and  N_5
REMARK    5  A    between atoms: C_7  and  C_8
REMARK    6  A    between atoms: C_11  and  C_12
REMARK    7  A    between atoms: N_14  and  C_15
REMARK                            x       y       z     vdW  Elec       q    Type
REMARK                         _______ _______ _______ _____ _____    ______ ____
ROOT
ATOM      1  C   UNL     1      -0.212  10.041  19.895  0.00  0.00    +0.000 A 
ATOM      2  C   UNL     1       0.126   9.883  21.222  0.00  0.00    +0.000 A 
ATOM      3  S   UNL     1       1.431   8.788  21.359  0.00  0.00    +0.000 S 
ATOM      4  C   UNL     1       1.441   8.602  19.646  0.00  0.00    +0.000 A 
ATOM      5  N   UNL     1       0.571   9.349  18.997  0.00  0.00    +0.000 NA
ENDROOT
BRANCH   4   6
ATOM      6  C   UNL     1       2.337   7.638  18.930  0.00  0.00    +0.000 A 
ATOM      7  C   UNL     1       3.140   7.951  17.851  0.00  0.00    +0.000 A 
ATOM      8  N   UNL     1       3.854   6.833  17.519  0.00  0.00    +0.000 N 
ATOM      9  C   UNL     1       4.856   6.787  16.477  0.00  0.00    +0.000 C 
ATOM     10  C   UNL     1       3.501   5.777  18.332  0.00  0.00    +0.000 A 
ATOM     11  C   UNL     1       3.945   4.445  18.356  0.00  0.00    +0.000 A 
ATOM     12  C   UNL     1       3.396   3.582  19.310  0.00  0.00    +0.000 A 
ATOM     13  C   UNL     1       2.444   4.041  20.215  0.00  0.00    +0.000 A 
ATOM     14 BR   UNL     1       1.705   2.848  21.484  0.00  0.00    +0.000 Br
ATOM     15  C   UNL     1       2.018   5.371  20.199  0.00  0.00    +0.000 A 
ATOM     16  C   UNL     1       2.545   6.259  19.236  0.00  0.00    +0.000 A 
ENDBRANCH   4   6
BRANCH   1  19
ATOM     17  N   UNL     1      -3.117  12.160  19.342  0.00  0.00    +0.000 N 
ATOM     18  C   UNL     1      -2.050  11.755  20.104  0.00  0.00    +0.000 A 
ATOM     19  C   UNL     1      -1.366  10.788  19.399  0.00  0.00    +0.000 A 
ATOM     20  C   UNL     1      -2.021  10.616  18.147  0.00  0.00    +0.000 A 
ATOM     21  C   UNL     1      -1.837   9.816  17.004  0.00  0.00    +0.000 A 
ATOM     22  C   UNL     1      -2.752   9.942  15.960  0.00  0.00    +0.000 A 
ATOM     23  C   UNL     1      -3.788  10.856  16.086  0.00  0.00    +0.000 A 
ATOM     24  N   UNL     1      -4.009  11.660  17.151  0.00  0.00    +0.000 NA
ATOM     25  C   UNL     1      -3.108  11.495  18.141  0.00  0.00    +0.000 A 
BRANCH  17  26
ATOM     26  C   UNL     1      -4.129  13.096  19.793  0.00  0.00    +0.000 C 
BRANCH  26  27
ATOM     27  C   UNL     1      -5.061  12.487  20.834  0.00  0.00    +0.000 C 
BRANCH  27  29
ATOM     28  C   UNL     1      -7.317  12.180  21.422  0.00  0.00    +0.000 C 
ATOM     29  O   UNL     1      -6.420  12.714  20.455  0.00  0.00    +0.000 OA
ENDBRANCH  27  29
ENDBRANCH  26  27
ENDBRANCH  17  26
ENDBRANCH   1  19
TORSDOF 5
ENDMDL
MODEL 3
REMARK VINA RESULT:      -7.7      3.619      8.768
REMARK  Name = 
REMARK  7 active torsions:
REMARK  status: ('A' for Active; 'I' for Inactive)
REMARK    1  A    between atoms: C_1  and  O_2
REMARK    2  A    between atoms: O_2  and  C_3
REMARK    3  A    between atoms: C_3  and  C_4
REMARK    4  A    between atoms: C_4  and  N_5
REMARK    5  A    between atoms: C_7  and  C_8
REMARK    6  A    between atoms: C_11  and  C_12
REMARK    7  A    between atoms: N_14  and  C_15
REMARK                            x       y       z     vdW  Elec       q    Type
REMARK                         _______ _______ _______ _____ _____    ______ ____
ROOT
ATOM      1  C   UNL     1       0.302   9.550  19.970  0.00  0.00    +0.000 A 
ATOM      2  C   UNL     1       0.540   9.029  21.225  0.00  0.00    +0.000 A 
ATOM      3  S   UNL     1       1.731   7.808  21.126  0.00  0.00    +0.000 S 
ATOM      4  C   UNL     1       1.833   8.060  19.424  0.00  0.00    +0.000 A 
ATOM      5  N   UNL     1       1.077   9.031  18.956  0.00  0.00    +0.000 NA
ENDROOT
BRANCH   4   6
ATOM      6  C   UNL     1       2.684   7.221  18.520  0.00  0.00    +0.000 A 
ATOM      7  C   UNL     1       3.717   7.695  17.735  0.00  0.00    +0.000 A 
ATOM      8  N   UNL     1       4.293   6.625  17.107  0.00  0.00    +0.000 N 
ATOM      9  C   UNL     1       5.454   6.715  16.249  0.00  0.00    +0.000 C 
ATOM     10  C   UNL     1       3.629   5.462  17.430  0.00  0.00    +0.000 A 
ATOM     11  C   UNL     1       3.842   4.135  17.020  0.00  0.00    +0.000 A 
ATOM     12  C   UNL     1       2.992   3.144  17.520  0.00  0.00    +0.000 A 
ATOM     13  C   UNL     1       1.971   3.469  18.407  0.00  0.00    +0.000 A 
ATOM     14 BR   UNL     1       0.824   2.110  19.055  0.00  0.00    +0.000 Br
ATOM     15  C   UNL     1       1.773   4.786  18.826  0.00  0.00    +0.000 A 
ATOM     16  C   UNL     1       2.608   5.809  18.325  0.00  0.00    +0.000 A 
ENDBRANCH   4   6
BRANCH   1  19
ATOM     17  N   UNL     1      -2.196  12.191  19.824  0.00  0.00    +0.000 N 
ATOM     18  C   UNL     1      -1.131  11.574  20.430  0.00  0.00    +0.000 A 
ATOM     19  C   UNL     1      -0.746  10.513  19.639  0.00  0.00    +0.000 A 
ATOM     20  C   UNL     1      -1.588  10.497  18.491  0.00  0.00    +0.000 A 
ATOM     21  C   UNL     1      -1.720   9.703  17.337  0.00  0.00    +0.000 A 
ATOM     22  C   UNL     1      -2.729  10.023  16.431  0.00  0.00    +0.000 A 
ATOM     23  C   UNL     1      -3.546  11.113  16.698  0.00  0.00    +0.000 A 
ATOM     24  N   UNL     1      -3.462  11.919  17.781  0.00  0.00    +0.000 NA
ATOM     25  C   UNL     1      -2.480  11.564  18.635  0.00  0.00    +0.000 A 
BRANCH  17  26
ATOM     26  C   UNL     1      -2.940  13.289  20.409  0.00  0.00    +0.000 C 
BRANCH  26  27
ATOM     27  C   UNL     1      -3.307  13.031  21.866  0.00  0.00    +0.000 C 
BRANCH  27  29
ATOM     28  C   UNL     1      -5.588  13.059  22.437  0.00  0.00    +0.000 C 
ATOM     29  O   UNL     1      -4.516  12.271  21.931  0.00  0.00    +0.000 OA
ENDBRANCH  27  29
ENDBRANCH  26  27
ENDBRANCH  17  26
ENDBRANCH   1  19
TORSDOF 5
ENDMDL
MODEL 4
REMARK VINA RESULT:      -7.7      2.727      3.863
REMARK  Name = 
REMARK  7 active torsions:
REMARK  status: ('A' for Active; 'I' for Inactive)
REMARK    1  A    between atoms: C_1  and  O_2
REMARK    2  A    between atoms: O_2  and  C_3
REMARK    3  A    between atoms: C_3  and  C_4
REMARK    4  A    between atoms: C_4  and  N_5
REMARK    5  A    between atoms: C_7  and  C_8
REMARK    6  A    between atoms: C_11  and  C_12
REMARK    7  A    between atoms: N_14  and  C_15
REMARK                            x       y       z     vdW  Elec       q    Type
REMARK                         _______ _______ _______ _____ _____    ______ ____
ROOT
ATOM      1  C   UNL     1       2.382   7.655  18.801  0.00  0.00    +0.000 A 
ATOM      2  C   UNL     1       2.002   8.154  17.573  0.00  0.00    +0.000 A 
ATOM      3  S   UNL     1       1.062   9.565  17.788  0.00  0.00    +0.000 S 
ATOM      4  C   UNL     1       1.225   9.400  19.496  0.00  0.00    +0.000 A 
ATOM      5  N   UNL     1       1.979   8.395  19.891  0.00  0.00    +0.000 NA
ENDROOT
BRANCH   4   6
ATOM      6  C   UNL     1       0.534  10.297  20.477  0.00  0.00    +0.000 A 
ATOM      7  C   UNL     1      -0.338   9.875  21.461  0.00  0.00    +0.000 A 
ATOM      8  N   UNL     1      -0.708  10.970  22.194  0.00  0.00    +0.000 N 
ATOM      9  C   UNL     1      -1.563  10.918  23.358  0.00  0.00    +0.000 C 
ATOM     10  C   UNL     1      -0.129  12.110  21.680  0.00  0.00    +0.000 A 
ATOM     11  C   UNL     1      -0.227  13.453  22.080  0.00  0.00    +0.000 A 
ATOM     12  C   UNL     1       0.485  14.413  21.353  0.00  0.00    +0.000 A 
ATOM     13  C   UNL     1       1.276  14.040  20.272  0.00  0.00    +0.000 A 
ATOM     14 BR   UNL     1       2.215  15.361  19.296  0.00  0.00    +0.000 Br
ATOM     15  C   UNL     1       1.384  12.701  19.888  0.00  0.00    +0.000 A 
ATOM     16  C   UNL     1       0.665  11.713  20.595  0.00  0.00    +0.000 A 
ENDBRANCH   4   6
BRANCH   1  19
ATOM     17  N   UNL     1       4.587   4.763  18.870  0.00  0.00    +0.000 N 
ATOM     18  C   UNL     1       4.317   6.063  18.522  0.00  0.00    +0.000 A 
ATOM     19  C   UNL     1       3.074   6.388  19.022  0.00  0.00    +0.000 A 
ATOM     20  C   UNL     1       2.577   5.254  19.726  0.00  0.00    +0.000 A 
ATOM     21  C   UNL     1       1.411   4.935  20.444  0.00  0.00    +0.000 A 
ATOM     22  C   UNL     1       1.301   3.654  20.982  0.00  0.00    +0.000 A 
ATOM     23  C   UNL     1       2.346   2.760  20.799  0.00  0.00    +0.000 A 
ATOM     24  N   UNL     1       3.494   3.012  20.130  0.00  0.00    +0.000 NA
ATOM     25  C   UNL     1       3.552   4.258  19.617  0.00  0.00    +0.000 A 
BRANCH  17  26
ATOM     26  C   UNL     1       5.762   4.033  18.436  0.00  0.00    +0.000 C 
BRANCH  26  27
ATOM     27  C   UNL     1       6.939   4.953  18.134  0.00  0.00    +0.000 C 
BRANCH  27  29
ATOM     28  C   UNL     1       7.076   4.717  15.798  0.00  0.00    +0.000 C 
ATOM     29  O   UNL     1       7.697   4.424  17.044  0.00  0.00    +0.000 OA
ENDBRANCH  27  29
ENDBRANCH  26  27
ENDBRANCH  17  26
ENDBRANCH   1  19
TORSDOF 5
ENDMDL
MODEL 5
REMARK VINA RESULT:      -7.6      3.196      4.400
REMARK  Name = 
REMARK  7 active torsions:
REMARK  status: ('A' for Active; 'I' for Inactive)
REMARK    1  A    between atoms: C_1  and  O_2
REMARK    2  A    between atoms: O_2  and  C_3
REMARK    3  A    between atoms: C_3  and  C_4
REMARK    4  A    between atoms: C_4  and  N_5
REMARK    5  A    between atoms: C_7  and  C_8
REMARK    6  A    between atoms: C_11  and  C_12
REMARK    7  A    between atoms: N_14  and  C_15
REMARK                            x       y       z     vdW  Elec       q    Type
REMARK                         _______ _______ _______ _____ _____    ______ ____
ROOT
ATOM      1  C   UNL     1       1.975   7.712  19.503  0.00  0.00    +0.000 A 
ATOM      2  C   UNL     1       1.903   7.588  20.874  0.00  0.00    +0.000 A 
ATOM      3  S   UNL     1       0.990   8.877  21.524  0.00  0.00    +0.000 S 
ATOM      4  C   UNL     1       0.766   9.506  19.936  0.00  0.00    +0.000 A 
ATOM      5  N   UNL     1       1.284   8.778  18.968  0.00  0.00    +0.000 NA
ENDROOT
BRANCH   4   6
ATOM      6  C   UNL     1       0.072  10.804  19.656  0.00  0.00    +0.000 A 
ATOM      7  C   UNL     1      -1.292  11.007  19.729  0.00  0.00    +0.000 A 
ATOM      8  N   UNL     1      -1.536  12.329  19.473  0.00  0.00    +0.000 N 
ATOM      9  C   UNL     1      -2.845  12.939  19.524  0.00  0.00    +0.000 C 
ATOM     10  C   UNL     1      -0.359  12.988  19.189  0.00  0.00    +0.000 A 
ATOM     11  C   UNL     1      -0.114  14.329  18.852  0.00  0.00    +0.000 A 
ATOM     12  C   UNL     1       1.208  14.720  18.610  0.00  0.00    +0.000 A 
ATOM     13  C   UNL     1       2.247  13.801  18.715  0.00  0.00    +0.000 A 
ATOM     14 BR   UNL     1       4.023  14.352  18.366  0.00  0.00    +0.000 Br
ATOM     15  C   UNL     1       2.001  12.472  19.066  0.00  0.00    +0.000 A 
ATOM     16  C   UNL     1       0.675  12.048  19.301  0.00  0.00    +0.000 A 
ENDBRANCH   4   6
BRANCH   1  19
ATOM     17  N   UNL     1       4.280   6.270  17.087  0.00  0.00    +0.000 N 
ATOM     18  C   UNL     1       3.829   7.326  17.838  0.00  0.00    +0.000 A 
ATOM     19  C   UNL     1       2.785   6.878  18.618  0.00  0.00    +0.000 A 
ATOM     20  C   UNL     1       2.609   5.490  18.356  0.00  0.00    +0.000 A 
ATOM     21  C   UNL     1       1.749   4.471  18.805  0.00  0.00    +0.000 A 
ATOM     22  C   UNL     1       1.898   3.197  18.259  0.00  0.00    +0.000 A 
ATOM     23  C   UNL     1       2.891   2.988  17.313  0.00  0.00    +0.000 A 
ATOM     24  N   UNL     1       3.755   3.921  16.852  0.00  0.00    +0.000 NA
ATOM     25  C   UNL     1       3.566   5.140  17.399  0.00  0.00    +0.000 A 
BRANCH  17  26
ATOM     26  C   UNL     1       5.308   6.377  16.069  0.00  0.00    +0.000 C 
BRANCH  26  27
ATOM     27  C   UNL     1       6.710   6.187  16.637  0.00  0.00    +0.000 C 
BRANCH  27  29
ATOM     28  C   UNL     1       6.820   4.821  14.726  0.00  0.00    +0.000 C 
ATOM     29  O   UNL     1       7.562   5.623  15.637  0.00  0.00    +0.000 OA
ENDBRANCH  27  29
ENDBRANCH  26  27
ENDBRANCH  17  26
ENDBRANCH   1  19
TORSDOF 5
ENDMDL
MODEL 6
REMARK VINA RESULT:      -7.6      3.885      8.958
REMARK  Name = 
REMARK  7 active torsions:
REMARK  status: ('A' for Active; 'I' for Inactive)
REMARK    1  A    between atoms: C_1  and  O_2
REMARK    2  A    between atoms: O_2  and  C_3
REMARK    3  A    between atoms: C_3  and  C_4
REMARK    4  A    between atoms: C_4  and  N_5
REMARK    5  A    between atoms: C_7  and  C_8
REMARK    6  A    between atoms: C_11  and  C_12
REMARK    7  A    between atoms: N_14  and  C_15
REMARK                            x       y       z     vdW  Elec       q    Type
REMARK                         _______ _______ _______ _____ _____    ______ ____
ROOT
ATOM      1  C   UNL     1      -0.122  10.014  20.130  0.00  0.00    +0.000 A 
ATOM      2  C   UNL     1       0.210   9.798  21.451  0.00  0.00    +0.000 A 
ATOM      3  S   UNL     1       1.483   8.662  21.548  0.00  0.00    +0.000 S 
ATOM      4  C   UNL     1       1.491   8.539  19.829  0.00  0.00    +0.000 A 
ATOM      5  N   UNL     1       0.643   9.333  19.207  0.00  0.00    +0.000 NA
ENDROOT
BRANCH   4   6
ATOM      6  C   UNL     1       2.360   7.577  19.078  0.00  0.00    +0.000 A 
ATOM      7  C   UNL     1       3.156   7.902  17.998  0.00  0.00    +0.000 A 
ATOM      8  N   UNL     1       3.845   6.779  17.630  0.00  0.00    +0.000 N 
ATOM      9  C   UNL     1       4.833   6.741  16.574  0.00  0.00    +0.000 C 
ATOM     10  C   UNL     1       3.483   5.711  18.421  0.00  0.00    +0.000 A 
ATOM     11  C   UNL     1       3.903   4.370  18.408  0.00  0.00    +0.000 A 
ATOM     12  C   UNL     1       3.349   3.494  19.348  0.00  0.00    +0.000 A 
ATOM     13  C   UNL     1       2.417   3.948  20.275  0.00  0.00    +0.000 A 
ATOM     14 BR   UNL     1       1.672   2.738  21.524  0.00  0.00    +0.000 Br
ATOM     15  C   UNL     1       2.015   5.285  20.296  0.00  0.00    +0.000 A 
ATOM     16  C   UNL     1       2.547   6.188  19.349  0.00  0.00    +0.000 A 
ENDBRANCH   4   6
BRANCH   1  19
ATOM     17  N   UNL     1      -2.950  12.250  19.648  0.00  0.00    +0.000 N 
ATOM     18  C   UNL     1      -1.889  11.794  20.389  0.00  0.00    +0.000 A 
ATOM     19  C   UNL     1      -1.252  10.812  19.661  0.00  0.00    +0.000 A 
ATOM     20  C   UNL     1      -1.931  10.682  18.416  0.00  0.00    +0.000 A 
ATOM     21  C   UNL     1      -1.795   9.891  17.261  0.00  0.00    +0.000 A 
ATOM     22  C   UNL     1      -2.718  10.066  16.232  0.00  0.00    +0.000 A 
ATOM     23  C   UNL     1      -3.717  11.017  16.385  0.00  0.00    +0.000 A 
ATOM     24  N   UNL     1      -3.892  11.814  17.463  0.00  0.00    +0.000 NA
ATOM     25  C   UNL     1      -2.984  11.602  18.438  0.00  0.00    +0.000 A 
BRANCH  17  26
ATOM     26  C   UNL     1      -3.919  13.217  20.125  0.00  0.00    +0.000 C 
BRANCH  26  27
ATOM     27  C   UNL     1      -3.365  14.089  21.247  0.00  0.00    +0.000 C 
BRANCH  27  29
ATOM     28  C   UNL     1      -1.541  15.490  20.758  0.00  0.00    +0.000 C 
ATOM     29  O   UNL     1      -2.956  15.352  20.718  0.00  0.00    +0.000 OA
ENDBRANCH  27  29
ENDBRANCH  26  27
ENDBRANCH  17  26
ENDBRANCH   1  19
TORSDOF 5
ENDMDL
MODEL 7
REMARK VINA RESULT:      -7.6      2.924      4.175
REMARK  Name = 
REMARK  7 active torsions:
REMARK  status: ('A' for Active; 'I' for Inactive)
REMARK    1  A    between atoms: C_1  and  O_2
REMARK    2  A    between atoms: O_2  and  C_3
REMARK    3  A    between atoms: C_3  and  C_4
REMARK    4  A    between atoms: C_4  and  N_5
REMARK    5  A    between atoms: C_7  and  C_8
REMARK    6  A    between atoms: C_11  and  C_12
REMARK    7  A    between atoms: N_14  and  C_15
REMARK                            x       y       z     vdW  Elec       q    Type
REMARK                         _______ _______ _______ _____ _____    ______ ____
ROOT
ATOM      1  C   UNL     1       1.993   7.600  19.528  0.00  0.00    +0.000 A 
ATOM      2  C   UNL     1       1.585   7.329  20.817  0.00  0.00    +0.000 A 
ATOM      3  S   UNL     1       0.898   8.731  21.512  0.00  0.00    +0.000 S 
ATOM      4  C   UNL     1       1.202   9.592  20.050  0.00  0.00    +0.000 A 
ATOM      5  N   UNL     1       1.728   8.875  19.078  0.00  0.00    +0.000 NA
ENDROOT
BRANCH   4   6
ATOM      6  C   UNL     1       0.935  11.057  19.889  0.00  0.00    +0.000 A 
ATOM      7  C   UNL     1       1.607  11.897  19.023  0.00  0.00    +0.000 A 
ATOM      8  N   UNL     1       1.038  13.137  19.112  0.00  0.00    +0.000 N 
ATOM      9  C   UNL     1       1.428  14.271  18.304  0.00  0.00    +0.000 C 
ATOM     10  C   UNL     1       0.032  13.139  20.054  0.00  0.00    +0.000 A 
ATOM     11  C   UNL     1      -0.811  14.170  20.500  0.00  0.00    +0.000 A 
ATOM     12  C   UNL     1      -1.755  13.872  21.489  0.00  0.00    +0.000 A 
ATOM     13  C   UNL     1      -1.857  12.584  22.004  0.00  0.00    +0.000 A 
ATOM     14 BR   UNL     1      -3.131  12.213  23.353  0.00  0.00    +0.000 Br
ATOM     15  C   UNL     1      -1.028  11.558  21.547  0.00  0.00    +0.000 A 
ATOM     16  C   UNL     1      -0.057  11.834  20.559  0.00  0.00    +0.000 A 
ENDBRANCH   4   6
BRANCH   1  19
ATOM     17  N   UNL     1       4.214   5.938  17.174  0.00  0.00    +0.000 N 
ATOM     18  C   UNL     1       3.836   7.040  17.901  0.00  0.00    +0.000 A 
ATOM     19  C   UNL     1       2.748   6.689  18.671  0.00  0.00    +0.000 A 
ATOM     20  C   UNL     1       2.468   5.315  18.429  0.00  0.00    +0.000 A 
ATOM     21  C   UNL     1       1.523   4.374  18.879  0.00  0.00    +0.000 A 
ATOM     22  C   UNL     1       1.580   3.084  18.357  0.00  0.00    +0.000 A 
ATOM     23  C   UNL     1       2.568   2.780  17.431  0.00  0.00    +0.000 A 
ATOM     24  N   UNL     1       3.509   3.635  16.970  0.00  0.00    +0.000 NA
ATOM     25  C   UNL     1       3.408   4.874  17.493  0.00  0.00    +0.000 A 
BRANCH  17  26
ATOM     26  C   UNL     1       5.262   5.947  16.173  0.00  0.00    +0.000 C 
BRANCH  26  27
ATOM     27  C   UNL     1       6.645   5.722  16.775  0.00  0.00    +0.000 C 
BRANCH  27  29
ATOM     28  C   UNL     1       7.665   7.676  17.596  0.00  0.00    +0.000 C 
ATOM     29  O   UNL     1       7.492   6.831  16.464  0.00  0.00    +0.000 OA
ENDBRANCH  27  29
ENDBRANCH  26  27
ENDBRANCH  17  26
ENDBRANCH   1  19
TORSDOF 5
ENDMDL
MODEL 8
REMARK VINA RESULT:      -7.6      3.148      4.519
REMARK  Name = 
REMARK  7 active torsions:
REMARK  status: ('A' for Active; 'I' for Inactive)
REMARK    1  A    between atoms: C_1  and  O_2
REMARK    2  A    between atoms: O_2  and  C_3
REMARK    3  A    between atoms: C_3  and  C_4
REMARK    4  A    between atoms: C_4  and  N_5
REMARK    5  A    between atoms: C_7  and  C_8
REMARK    6  A    between atoms: C_11  and  C_12
REMARK    7  A    between atoms: N_14  and  C_15
REMARK                            x       y       z     vdW  Elec       q    Type
REMARK                         _______ _______ _______ _____ _____    ______ ____
ROOT
ATOM      1  C   UNL     1       2.125   7.399  19.311  0.00  0.00    +0.000 A 
ATOM      2  C   UNL     1       2.136   7.479  20.687  0.00  0.00    +0.000 A 
ATOM      3  S   UNL     1       1.181   8.802  21.196  0.00  0.00    +0.000 S 
ATOM      4  C   UNL     1       0.833   9.171  19.549  0.00  0.00    +0.000 A 
ATOM      5  N   UNL     1       1.341   8.334  18.669  0.00  0.00    +0.000 NA
ENDROOT
BRANCH   4   6
ATOM      6  C   UNL     1       0.046  10.374  19.126  0.00  0.00    +0.000 A 
ATOM      7  C   UNL     1      -1.271  10.356  18.711  0.00  0.00    +0.000 A 
ATOM      8  N   UNL     1      -1.655  11.648  18.474  0.00  0.00    +0.000 N 
ATOM      9  C   UNL     1      -2.992  12.040  18.087  0.00  0.00    +0.000 C 
ATOM     10  C   UNL     1      -0.600  12.510  18.683  0.00  0.00    +0.000 A 
ATOM     11  C   UNL     1      -0.512  13.905  18.550  0.00  0.00    +0.000 A 
ATOM     12  C   UNL     1       0.713  14.520  18.834  0.00  0.00    +0.000 A 
ATOM     13  C   UNL     1       1.805  13.764  19.246  0.00  0.00    +0.000 A 
ATOM     14 BR   UNL     1       3.454  14.620  19.606  0.00  0.00    +0.000 Br
ATOM     15  C   UNL     1       1.708  12.379  19.393  0.00  0.00    +0.000 A 
ATOM     16  C   UNL     1       0.488  11.731  19.100  0.00  0.00    +0.000 A 
ENDBRANCH   4   6
BRANCH   1  19
ATOM     17  N   UNL     1       4.476   5.731  17.092  0.00  0.00    +0.000 N 
ATOM     18  C   UNL     1       4.042   6.842  17.770  0.00  0.00    +0.000 A 
ATOM     19  C   UNL     1       2.935   6.485  18.510  0.00  0.00    +0.000 A 
ATOM     20  C   UNL     1       2.700   5.097  18.299  0.00  0.00    +0.000 A 
ATOM     21  C   UNL     1       1.765   4.144  18.744  0.00  0.00    +0.000 A 
ATOM     22  C   UNL     1       1.875   2.841  18.264  0.00  0.00    +0.000 A 
ATOM     23  C   UNL     1       2.905   2.538  17.384  0.00  0.00    +0.000 A 
ATOM     24  N   UNL     1       3.839   3.404  16.932  0.00  0.00    +0.000 NA
ATOM     25  C   UNL     1       3.687   4.654  17.413  0.00  0.00    +0.000 A 
BRANCH  17  26
ATOM     26  C   UNL     1       5.560   5.739  16.129  0.00  0.00    +0.000 C 
BRANCH  26  27
ATOM     27  C   UNL     1       6.930   5.732  16.797  0.00  0.00    +0.000 C 
BRANCH  27  29
ATOM     28  C   UNL     1       7.725   7.769  17.663  0.00  0.00    +0.000 C 
ATOM     29  O   UNL     1       7.615   6.952  16.503  0.00  0.00    +0.000 OA
ENDBRANCH  27  29
ENDBRANCH  26  27
ENDBRANCH  17  26
ENDBRANCH   1  19
TORSDOF 5
ENDMDL
MODEL 9
REMARK VINA RESULT:      -7.5      1.631      3.074
REMARK  Name = 
REMARK  7 active torsions:
REMARK  status: ('A' for Active; 'I' for Inactive)
REMARK    1  A    between atoms: C_1  and  O_2
REMARK    2  A    between atoms: O_2  and  C_3
REMARK    3  A    between atoms: C_3  and  C_4
REMARK    4  A    between atoms: C_4  and  N_5
REMARK    5  A    between atoms: C_7  and  C_8
REMARK    6  A    between atoms: C_11  and  C_12
REMARK    7  A    between atoms: N_14  and  C_15
REMARK                            x       y       z     vdW  Elec       q    Type
REMARK                         _______ _______ _______ _____ _____    ______ ____
ROOT
ATOM      1  C   UNL     1       2.504   7.682  18.871  0.00  0.00    +0.000 A 
ATOM      2  C   UNL     1       2.628   8.351  17.672  0.00  0.00    +0.000 A 
ATOM      3  S   UNL     1       1.675   9.769  17.701  0.00  0.00    +0.000 S 
ATOM      4  C   UNL     1       1.165   9.382  19.300  0.00  0.00    +0.000 A 
ATOM      5  N   UNL     1       1.710   8.298  19.814  0.00  0.00    +0.000 NA
ENDROOT
BRANCH   4   6
ATOM      6  C   UNL     1       0.148  10.182  20.055  0.00  0.00    +0.000 A 
ATOM      7  C   UNL     1       0.250  10.549  21.382  0.00  0.00    +0.000 A 
ATOM      8  N   UNL     1      -0.834  11.324  21.690  0.00  0.00    +0.000 N 
ATOM      9  C   UNL     1      -1.044  11.954  22.974  0.00  0.00    +0.000 C 
ATOM     10  C   UNL     1      -1.670  11.436  20.600  0.00  0.00    +0.000 A 
ATOM     11  C   UNL     1      -2.895  12.107  20.444  0.00  0.00    +0.000 A 
ATOM     12  C   UNL     1      -3.530  12.042  19.200  0.00  0.00    +0.000 A 
ATOM     13  C   UNL     1      -2.954  11.340  18.146  0.00  0.00    +0.000 A 
ATOM     14 BR   UNL     1      -3.843  11.255  16.478  0.00  0.00    +0.000 Br
ATOM     15  C   UNL     1      -1.728  10.689  18.300  0.00  0.00    +0.000 A 
ATOM     16  C   UNL     1      -1.072  10.726  19.550  0.00  0.00    +0.000 A 
ENDBRANCH   4   6
BRANCH   1  19
ATOM     17  N   UNL     1       4.464   4.638  19.229  0.00  0.00    +0.000 N 
ATOM     18  C   UNL     1       4.348   5.962  18.889  0.00  0.00    +0.000 A 
ATOM     19  C   UNL     1       3.059   6.363  19.165  0.00  0.00    +0.000 A 
ATOM     20  C   UNL     1       2.367   5.250  19.723  0.00  0.00    +0.000 A 
ATOM     21  C   UNL     1       1.070   4.996  20.204  0.00  0.00    +0.000 A 
ATOM     22  C   UNL     1       0.778   3.713  20.663  0.00  0.00    +0.000 A 
ATOM     23  C   UNL     1       1.779   2.752  20.638  0.00  0.00    +0.000 A 
ATOM     24  N   UNL     1       3.045   2.938  20.200  0.00  0.00    +0.000 NA
ATOM     25  C   UNL     1       3.277   4.190  19.755  0.00  0.00    +0.000 A 
BRANCH  17  26
ATOM     26  C   UNL     1       5.648   3.837  18.988  0.00  0.00    +0.000 C 
BRANCH  26  27
ATOM     27  C   UNL     1       6.647   4.538  18.075  0.00  0.00    +0.000 C 
BRANCH  27  29
ATOM     28  C   UNL     1       7.931   6.401  18.716  0.00  0.00    +0.000 C 
ATOM     29  O   UNL     1       7.764   4.993  18.842  0.00  0.00    +0.000 OA
ENDBRANCH  27  29
ENDBRANCH  26  27
ENDBRANCH  17  26
ENDBRANCH   1  19
TORSDOF 5
ENDMDL
