MODEL 1
REMARK VINA RESULT:      -8.3      0.000      0.000
REMARK  Name = 
REMARK  7 active torsions:
REMARK  status: ('A' for Active; 'I' for Inactive)
REMARK    1  A    between atoms: C_1  and  C_2
REMARK    2  A    between atoms: C_4  and  C_5
REMARK    3  A    between atoms: C_7  and  N_8
REMARK    4  A    between atoms: C_13  and  O_14
REMARK    5  A    between atoms: O_14  and  C_15
REMARK    6  A    between atoms: C_18  and  C_19
REMARK    7  A    between atoms: C_19  and  O_20
REMARK                            x       y       z     vdW  Elec       q    Type
REMARK                         _______ _______ _______ _____ _____    ______ ____
ROOT
ATOM      1  N   UNL     1       2.123   7.466  18.994  0.00  0.00    +0.000 N 
ATOM      2  N   UNL     1       1.882   7.160  20.323  0.00  0.00    +0.000 NA
ATOM      3  C   UNL     1       1.363   8.085  21.062  0.00  0.00    +0.000 A 
ATOM      4  C   UNL     1       0.892   9.390  20.589  0.00  0.00    +0.000 A 
ATOM      5 CL   UNL     1       0.099  10.404  21.721  0.00  0.00    +0.000 Cl
ATOM      6  C   UNL     1       1.025   9.658  19.293  0.00  0.00    +0.000 A 
ATOM      7  C   UNL     1       1.859   8.733  18.449  0.00  0.00    +0.000 A 
ATOM      8  O   UNL     1       2.209   9.134  17.340  0.00  0.00    +0.000 OA
ENDROOT
BRANCH   1  15
ATOM      9  C   UNL     1       2.343   2.682  17.563  0.00  0.00    +0.000 C 
ATOM     10  C   UNL     1       2.931   4.063  17.570  0.00  0.00    +0.000 A 
ATOM     11  C   UNL     1       4.141   4.322  16.917  0.00  0.00    +0.000 A 
ATOM     12  C   UNL     1       4.679   5.608  16.923  0.00  0.00    +0.000 A 
ATOM     13  C   UNL     1       5.998   5.922  16.281  0.00  0.00    +0.000 C 
ATOM     14  C   UNL     1       3.993   6.637  17.581  0.00  0.00    +0.000 A 
ATOM     15  C   UNL     1       2.795   6.415  18.272  0.00  0.00    +0.000 A 
ATOM     16  C   UNL     1       2.275   5.108  18.248  0.00  0.00    +0.000 A 
ENDBRANCH   1  15
BRANCH   6  17
ATOM     17  O   UNL     1       0.485  10.818  18.735  0.00  0.00    +0.000 OA
BRANCH  17  18
ATOM     18  C   UNL     1      -0.849  10.846  18.384  0.00  0.00    +0.000 A 
ATOM     19  C   UNL     1      -1.440   9.973  17.467  0.00  0.00    +0.000 A 
ATOM     20  C   UNL     1      -2.790  10.106  17.136  0.00  0.00    +0.000 A 
ATOM     21  C   UNL     1      -3.591  11.066  17.765  0.00  0.00    +0.000 A 
ATOM     22  C   UNL     1      -2.997  11.934  18.693  0.00  0.00    +0.000 A 
ATOM     23  C   UNL     1      -1.635  11.822  19.002  0.00  0.00    +0.000 A 
BRANCH  21  24
ATOM     24  C   UNL     1      -5.045  11.178  17.384  0.00  0.00    +0.000 C 
BRANCH  24  25
ATOM     25  O   UNL     1      -5.425  12.527  17.152  0.00  0.00    +0.000 OA
ATOM     26  H   UNL     1      -4.624  13.065  17.274  0.00  0.00    +0.000 HD
ENDBRANCH  24  25
ENDBRANCH  21  24
ENDBRANCH  17  18
ENDBRANCH   6  17
TORSDOF 5
ENDMDL
MODEL 2
REMARK VINA RESULT:      -8.2      0.099      1.724
REMARK  Name = 
REMARK  7 active torsions:
REMARK  status: ('A' for Active; 'I' for Inactive)
REMARK    1  A    between atoms: C_1  and  C_2
REMARK    2  A    between atoms: C_4  and  C_5
REMARK    3  A    between atoms: C_7  and  N_8
REMARK    4  A    between atoms: C_13  and  O_14
REMARK    5  A    between atoms: O_14  and  C_15
REMARK    6  A    between atoms: C_18  and  C_19
REMARK    7  A    between atoms: C_19  and  O_20
REMARK                            x       y       z     vdW  Elec       q    Type
REMARK                         _______ _______ _______ _____ _____    ______ ____
ROOT
ATOM      1  N   UNL     1       2.102   7.498  19.071  0.00  0.00    +0.000 N 
ATOM      2  N   UNL     1       1.861   7.218  20.406  0.00  0.00    +0.000 NA
ATOM      3  C   UNL     1       1.344   8.156  21.128  0.00  0.00    +0.000 A 
ATOM      4  C   UNL     1       0.873   9.452  20.630  0.00  0.00    +0.000 A 
ATOM      5 CL   UNL     1       0.080  10.487  21.743  0.00  0.00    +0.000 Cl
ATOM      6  C   UNL     1       1.004   9.695  19.330  0.00  0.00    +0.000 A 
ATOM      7  C   UNL     1       1.837   8.755  18.502  0.00  0.00    +0.000 A 
ATOM      8  O   UNL     1       2.186   9.135  17.385  0.00  0.00    +0.000 OA
ENDROOT
BRANCH   1  15
ATOM      9  C   UNL     1       5.832   5.965  16.118  0.00  0.00    +0.000 C 
ATOM     10  C   UNL     1       4.589   5.661  16.904  0.00  0.00    +0.000 A 
ATOM     11  C   UNL     1       4.061   4.366  16.923  0.00  0.00    +0.000 A 
ATOM     12  C   UNL     1       2.910   4.089  17.658  0.00  0.00    +0.000 A 
ATOM     13  C   UNL     1       2.279   2.728  17.667  0.00  0.00    +0.000 C 
ATOM     14  C   UNL     1       2.295   5.117  18.384  0.00  0.00    +0.000 A 
ATOM     15  C   UNL     1       2.772   6.434  18.369  0.00  0.00    +0.000 A 
ATOM     16  C   UNL     1       3.936   6.683  17.618  0.00  0.00    +0.000 A 
ENDBRANCH   1  15
BRANCH   6  17
ATOM     17  O   UNL     1       0.464  10.845  18.750  0.00  0.00    +0.000 OA
BRANCH  17  18
ATOM     18  C   UNL     1      -0.874  10.871  18.412  0.00  0.00    +0.000 A 
ATOM     19  C   UNL     1      -1.465  10.021  17.473  0.00  0.00    +0.000 A 
ATOM     20  C   UNL     1      -2.820  10.151  17.159  0.00  0.00    +0.000 A 
ATOM     21  C   UNL     1      -3.624  11.083  17.824  0.00  0.00    +0.000 A 
ATOM     22  C   UNL     1      -3.029  11.927  18.774  0.00  0.00    +0.000 A 
ATOM     23  C   UNL     1      -1.664  11.819  19.068  0.00  0.00    +0.000 A 
BRANCH  21  24
ATOM     24  C   UNL     1      -5.083  11.193  17.460  0.00  0.00    +0.000 C 
BRANCH  24  25
ATOM     25  O   UNL     1      -5.414  12.498  17.006  0.00  0.00    +0.000 OA
ATOM     26  H   UNL     1      -6.384  12.536  16.958  0.00  0.00    +0.000 HD
ENDBRANCH  24  25
ENDBRANCH  21  24
ENDBRANCH  17  18
ENDBRANCH   6  17
TORSDOF 5
ENDMDL
MODEL 3
REMARK VINA RESULT:      -7.8      0.383      2.008
REMARK  Name = 
REMARK  7 active torsions:
REMARK  status: ('A' for Active; 'I' for Inactive)
REMARK    1  A    between atoms: C_1  and  C_2
REMARK    2  A    between atoms: C_4  and  C_5
REMARK    3  A    between atoms: C_7  and  N_8
REMARK    4  A    between atoms: C_13  and  O_14
REMARK    5  A    between atoms: O_14  and  C_15
REMARK    6  A    between atoms: C_18  and  C_19
REMARK    7  A    between atoms: C_19  and  O_20
REMARK                            x       y       z     vdW  Elec       q    Type
REMARK                         _______ _______ _______ _____ _____    ______ ____
ROOT
ATOM      1  N   UNL     1       2.213   7.193  19.052  0.00  0.00    +0.000 N 
ATOM      2  N   UNL     1       1.863   6.889  20.357  0.00  0.00    +0.000 NA
ATOM      3  C   UNL     1       1.369   7.840  21.078  0.00  0.00    +0.000 A 
ATOM      4  C   UNL     1       1.029   9.183  20.600  0.00  0.00    +0.000 A 
ATOM      5 CL   UNL     1       0.242  10.239  21.698  0.00  0.00    +0.000 Cl
ATOM      6  C   UNL     1       1.264   9.458  19.321  0.00  0.00    +0.000 A 
ATOM      7  C   UNL     1       2.079   8.484  18.514  0.00  0.00    +0.000 A 
ATOM      8  O   UNL     1       2.530   8.872  17.437  0.00  0.00    +0.000 OA
ENDROOT
BRANCH   1  15
ATOM      9  C   UNL     1       5.850   5.539  16.049  0.00  0.00    +0.000 C 
ATOM     10  C   UNL     1       4.620   5.272  16.866  0.00  0.00    +0.000 A 
ATOM     11  C   UNL     1       4.069   3.987  16.920  0.00  0.00    +0.000 A 
ATOM     12  C   UNL     1       2.929   3.745  17.684  0.00  0.00    +0.000 A 
ATOM     13  C   UNL     1       2.273   2.396  17.731  0.00  0.00    +0.000 C 
ATOM     14  C   UNL     1       2.348   4.797  18.404  0.00  0.00    +0.000 A 
ATOM     15  C   UNL     1       2.849   6.104  18.355  0.00  0.00    +0.000 A 
ATOM     16  C   UNL     1       4.000   6.318  17.575  0.00  0.00    +0.000 A 
ENDBRANCH   1  15
BRANCH   6  17
ATOM     17  O   UNL     1       0.850  10.663  18.750  0.00  0.00    +0.000 OA
BRANCH  17  18
ATOM     18  C   UNL     1      -0.496  10.893  18.551  0.00  0.00    +0.000 A 
ATOM     19  C   UNL     1      -1.236  11.865  19.229  0.00  0.00    +0.000 A 
ATOM     20  C   UNL     1      -2.607  11.997  18.998  0.00  0.00    +0.000 A 
ATOM     21  C   UNL     1      -3.251  11.208  18.037  0.00  0.00    +0.000 A 
ATOM     22  C   UNL     1      -2.501  10.241  17.350  0.00  0.00    +0.000 A 
ATOM     23  C   UNL     1      -1.133  10.088  17.604  0.00  0.00    +0.000 A 
BRANCH  21  24
ATOM     24  C   UNL     1      -4.731  11.380  17.813  0.00  0.00    +0.000 C 
BRANCH  24  25
ATOM     25  O   UNL     1      -5.002  12.343  16.804  0.00  0.00    +0.000 OA
ATOM     26  H   UNL     1      -4.594  12.009  15.986  0.00  0.00    +0.000 HD
ENDBRANCH  24  25
ENDBRANCH  21  24
ENDBRANCH  17  18
ENDBRANCH   6  17
TORSDOF 5
ENDMDL
MODEL 4
REMARK VINA RESULT:      -7.5      4.081      8.352
REMARK  Name = 
REMARK  7 active torsions:
REMARK  status: ('A' for Active; 'I' for Inactive)
REMARK    1  A    between atoms: C_1  and  C_2
REMARK    2  A    between atoms: C_4  and  C_5
REMARK    3  A    between atoms: C_7  and  N_8
REMARK    4  A    between atoms: C_13  and  O_14
REMARK    5  A    between atoms: O_14  and  C_15
REMARK    6  A    between atoms: C_18  and  C_19
REMARK    7  A    between atoms: C_19  and  O_20
REMARK                            x       y       z     vdW  Elec       q    Type
REMARK                         _______ _______ _______ _____ _____    ______ ____
ROOT
ATOM      1  N   UNL     1       2.255   6.117  19.967  0.00  0.00    +0.000 N 
ATOM      2  N   UNL     1       1.373   5.114  20.333  0.00  0.00    +0.000 NA
ATOM      3  C   UNL     1       1.721   3.895  20.082  0.00  0.00    +0.000 A 
ATOM      4  C   UNL     1       3.023   3.471  19.559  0.00  0.00    +0.000 A 
ATOM      5 CL   UNL     1       3.321   1.787  19.446  0.00  0.00    +0.000 Cl
ATOM      6  C   UNL     1       3.918   4.418  19.298  0.00  0.00    +0.000 A 
ATOM      7  C   UNL     1       3.473   5.855  19.317  0.00  0.00    +0.000 A 
ATOM      8  O   UNL     1       4.217   6.690  18.804  0.00  0.00    +0.000 OA
ENDROOT
BRANCH   1  15
ATOM      9  C   UNL     1       0.054   9.438  22.986  0.00  0.00    +0.000 C 
ATOM     10  C   UNL     1       0.647   9.091  21.651  0.00  0.00    +0.000 A 
ATOM     11  C   UNL     1       0.668  10.032  20.617  0.00  0.00    +0.000 A 
ATOM     12  C   UNL     1       1.225   9.705  19.382  0.00  0.00    +0.000 A 
ATOM     13  C   UNL     1       1.223  10.664  18.228  0.00  0.00    +0.000 C 
ATOM     14  C   UNL     1       1.771   8.429  19.191  0.00  0.00    +0.000 A 
ATOM     15  C   UNL     1       1.744   7.446  20.189  0.00  0.00    +0.000 A 
ATOM     16  C   UNL     1       1.176   7.806  21.425  0.00  0.00    +0.000 A 
ENDBRANCH   1  15
BRANCH   6  17
ATOM     17  O   UNL     1       5.225   4.097  18.924  0.00  0.00    +0.000 OA
BRANCH  17  18
ATOM     18  C   UNL     1       5.622   4.281  17.615  0.00  0.00    +0.000 A 
ATOM     19  C   UNL     1       4.803   4.053  16.506  0.00  0.00    +0.000 A 
ATOM     20  C   UNL     1       5.304   4.220  15.213  0.00  0.00    +0.000 A 
ATOM     21  C   UNL     1       6.609   4.682  15.004  0.00  0.00    +0.000 A 
ATOM     22  C   UNL     1       7.424   4.919  16.121  0.00  0.00    +0.000 A 
ATOM     23  C   UNL     1       6.932   4.723  17.417  0.00  0.00    +0.000 A 
BRANCH  21  24
ATOM     24  C   UNL     1       7.114   4.852  13.595  0.00  0.00    +0.000 C 
BRANCH  24  25
ATOM     25  O   UNL     1       8.232   5.727  13.540  0.00  0.00    +0.000 OA
ATOM     26  H   UNL     1       8.470   5.813  12.600  0.00  0.00    +0.000 HD
ENDBRANCH  24  25
ENDBRANCH  21  24
ENDBRANCH  17  18
ENDBRANCH   6  17
TORSDOF 5
ENDMDL
MODEL 5
REMARK VINA RESULT:      -7.5      1.355      1.848
REMARK  Name = 
REMARK  7 active torsions:
REMARK  status: ('A' for Active; 'I' for Inactive)
REMARK    1  A    between atoms: C_1  and  C_2
REMARK    2  A    between atoms: C_4  and  C_5
REMARK    3  A    between atoms: C_7  and  N_8
REMARK    4  A    between atoms: C_13  and  O_14
REMARK    5  A    between atoms: O_14  and  C_15
REMARK    6  A    between atoms: C_18  and  C_19
REMARK    7  A    between atoms: C_19  and  O_20
REMARK                            x       y       z     vdW  Elec       q    Type
REMARK                         _______ _______ _______ _____ _____    ______ ____
ROOT
ATOM      1  N   UNL     1       1.668   7.953  20.088  0.00  0.00    +0.000 N 
ATOM      2  N   UNL     1       1.589   8.244  21.440  0.00  0.00    +0.000 NA
ATOM      3  C   UNL     1       1.216   9.436  21.772  0.00  0.00    +0.000 A 
ATOM      4  C   UNL     1       0.749  10.471  20.846  0.00  0.00    +0.000 A 
ATOM      5 CL   UNL     1       0.159  11.931  21.523  0.00  0.00    +0.000 Cl
ATOM      6  C   UNL     1       0.723  10.171  19.551  0.00  0.00    +0.000 A 
ATOM      7  C   UNL     1       1.394   8.905  19.092  0.00  0.00    +0.000 A 
ATOM      8  O   UNL     1       1.614   8.780  17.888  0.00  0.00    +0.000 OA
ENDROOT
BRANCH   1  15
ATOM      9  C   UNL     1       1.989   3.107  21.267  0.00  0.00    +0.000 C 
ATOM     10  C   UNL     1       2.374   4.255  20.380  0.00  0.00    +0.000 A 
ATOM     11  C   UNL     1       3.262   4.063  19.316  0.00  0.00    +0.000 A 
ATOM     12  C   UNL     1       3.611   5.133  18.494  0.00  0.00    +0.000 A 
ATOM     13  C   UNL     1       4.598   4.986  17.373  0.00  0.00    +0.000 C 
ATOM     14  C   UNL     1       3.058   6.396  18.737  0.00  0.00    +0.000 A 
ATOM     15  C   UNL     1       2.189   6.639  19.809  0.00  0.00    +0.000 A 
ATOM     16  C   UNL     1       1.854   5.540  20.622  0.00  0.00    +0.000 A 
ENDBRANCH   1  15
BRANCH   6  17
ATOM     17  O   UNL     1       0.169  11.047  18.615  0.00  0.00    +0.000 OA
BRANCH  17  18
ATOM     18  C   UNL     1      -1.199  11.068  18.430  0.00  0.00    +0.000 A 
ATOM     19  C   UNL     1      -2.050  12.037  18.967  0.00  0.00    +0.000 A 
ATOM     20  C   UNL     1      -3.429  11.953  18.767  0.00  0.00    +0.000 A 
ATOM     21  C   UNL     1      -3.978  10.941  17.971  0.00  0.00    +0.000 A 
ATOM     22  C   UNL     1      -3.118   9.976  17.425  0.00  0.00    +0.000 A 
ATOM     23  C   UNL     1      -1.738  10.042  17.651  0.00  0.00    +0.000 A 
BRANCH  21  24
ATOM     24  C   UNL     1      -5.471  10.883  17.776  0.00  0.00    +0.000 C 
BRANCH  24  25
ATOM     25  O   UNL     1      -5.917  11.861  16.846  0.00  0.00    +0.000 OA
ATOM     26  H   UNL     1      -6.859  12.013  17.035  0.00  0.00    +0.000 HD
ENDBRANCH  24  25
ENDBRANCH  21  24
ENDBRANCH  17  18
ENDBRANCH   6  17
TORSDOF 5
ENDMDL
MODEL 6
REMARK VINA RESULT:      -7.5      4.053      8.472
REMARK  Name = 
REMARK  7 active torsions:
REMARK  status: ('A' for Active; 'I' for Inactive)
REMARK    1  A    between atoms: C_1  and  C_2
REMARK    2  A    between atoms: C_4  and  C_5
REMARK    3  A    between atoms: C_7  and  N_8
REMARK    4  A    between atoms: C_13  and  O_14
REMARK    5  A    between atoms: O_14  and  C_15
REMARK    6  A    between atoms: C_18  and  C_19
REMARK    7  A    between atoms: C_19  and  O_20
REMARK                            x       y       z     vdW  Elec       q    Type
REMARK                         _______ _______ _______ _____ _____    ______ ____
ROOT
ATOM      1  N   UNL     1       2.537   6.170  19.966  0.00  0.00    +0.000 N 
ATOM      2  N   UNL     1       1.897   5.106  20.578  0.00  0.00    +0.000 NA
ATOM      3  C   UNL     1       2.416   3.932  20.426  0.00  0.00    +0.000 A 
ATOM      4  C   UNL     1       3.692   3.644  19.767  0.00  0.00    +0.000 A 
ATOM      5 CL   UNL     1       4.261   2.028  19.814  0.00  0.00    +0.000 Cl
ATOM      6  C   UNL     1       4.369   4.671  19.262  0.00  0.00    +0.000 A 
ATOM      7  C   UNL     1       3.687   6.009  19.176  0.00  0.00    +0.000 A 
ATOM      8  O   UNL     1       4.202   6.867  18.459  0.00  0.00    +0.000 OA
ENDROOT
BRANCH   1  15
ATOM      9  C   UNL     1       1.170  10.574  18.036  0.00  0.00    +0.000 C 
ATOM     10  C   UNL     1       1.165   9.600  19.178  0.00  0.00    +0.000 A 
ATOM     11  C   UNL     1       0.521   9.917  20.379  0.00  0.00    +0.000 A 
ATOM     12  C   UNL     1       0.517   9.006  21.433  0.00  0.00    +0.000 A 
ATOM     13  C   UNL     1      -0.115   9.323  22.757  0.00  0.00    +0.000 C 
ATOM     14  C   UNL     1       1.154   7.768  21.275  0.00  0.00    +0.000 A 
ATOM     15  C   UNL     1       1.835   7.422  20.101  0.00  0.00    +0.000 A 
ATOM     16  C   UNL     1       1.822   8.361  19.054  0.00  0.00    +0.000 A 
ENDBRANCH   1  15
BRANCH   6  17
ATOM     17  O   UNL     1       5.652   4.506  18.737  0.00  0.00    +0.000 OA
BRANCH  17  18
ATOM     18  C   UNL     1       5.820   4.417  17.370  0.00  0.00    +0.000 A 
ATOM     19  C   UNL     1       4.845   3.947  16.486  0.00  0.00    +0.000 A 
ATOM     20  C   UNL     1       5.119   3.846  15.121  0.00  0.00    +0.000 A 
ATOM     21  C   UNL     1       6.346   4.277  14.603  0.00  0.00    +0.000 A 
ATOM     22  C   UNL     1       7.319   4.758  15.492  0.00  0.00    +0.000 A 
ATOM     23  C   UNL     1       7.055   4.830  16.866  0.00  0.00    +0.000 A 
BRANCH  21  24
ATOM     24  C   UNL     1       6.606   4.155  13.123  0.00  0.00    +0.000 C 
BRANCH  24  25
ATOM     25  O   UNL     1       6.273   2.863  12.636  0.00  0.00    +0.000 OA
ATOM     26  H   UNL     1       6.161   2.950  11.674  0.00  0.00    +0.000 HD
ENDBRANCH  24  25
ENDBRANCH  21  24
ENDBRANCH  17  18
ENDBRANCH   6  17
TORSDOF 5
ENDMDL
MODEL 7
REMARK VINA RESULT:      -7.4      1.373      2.475
REMARK  Name = 
REMARK  7 active torsions:
REMARK  status: ('A' for Active; 'I' for Inactive)
REMARK    1  A    between atoms: C_1  and  C_2
REMARK    2  A    between atoms: C_4  and  C_5
REMARK    3  A    between atoms: C_7  and  N_8
REMARK    4  A    between atoms: C_13  and  O_14
REMARK    5  A    between atoms: O_14  and  C_15
REMARK    6  A    between atoms: C_18  and  C_19
REMARK    7  A    between atoms: C_19  and  O_20
REMARK                            x       y       z     vdW  Elec       q    Type
REMARK                         _______ _______ _______ _____ _____    ______ ____
ROOT
ATOM      1  N   UNL     1       1.682   7.845  20.203  0.00  0.00    +0.000 N 
ATOM      2  N   UNL     1       1.611   8.154  21.551  0.00  0.00    +0.000 NA
ATOM      3  C   UNL     1       1.279   9.362  21.868  0.00  0.00    +0.000 A 
ATOM      4  C   UNL     1       0.850  10.402  20.929  0.00  0.00    +0.000 A 
ATOM      5 CL   UNL     1       0.311  11.890  21.586  0.00  0.00    +0.000 Cl
ATOM      6  C   UNL     1       0.816  10.087  19.637  0.00  0.00    +0.000 A 
ATOM      7  C   UNL     1       1.443   8.793  19.195  0.00  0.00    +0.000 A 
ATOM      8  O   UNL     1       1.660   8.647  17.993  0.00  0.00    +0.000 OA
ENDROOT
BRANCH   1  15
ATOM      9  C   UNL     1       4.722   4.768  17.698  0.00  0.00    +0.000 C 
ATOM     10  C   UNL     1       3.631   4.976  18.708  0.00  0.00    +0.000 A 
ATOM     11  C   UNL     1       3.050   3.884  19.362  0.00  0.00    +0.000 A 
ATOM     12  C   UNL     1       2.042   4.085  20.302  0.00  0.00    +0.000 A 
ATOM     13  C   UNL     1       1.354   2.942  20.989  0.00  0.00    +0.000 C 
ATOM     14  C   UNL     1       1.623   5.390  20.593  0.00  0.00    +0.000 A 
ATOM     15  C   UNL     1       2.157   6.510  19.941  0.00  0.00    +0.000 A 
ATOM     16  C   UNL     1       3.173   6.276  18.997  0.00  0.00    +0.000 A 
ENDBRANCH   1  15
BRANCH   6  17
ATOM     17  O   UNL     1       0.294  10.971  18.689  0.00  0.00    +0.000 OA
BRANCH  17  18
ATOM     18  C   UNL     1      -1.072  11.042  18.505  0.00  0.00    +0.000 A 
ATOM     19  C   UNL     1      -1.900  11.986  19.118  0.00  0.00    +0.000 A 
ATOM     20  C   UNL     1      -3.280  11.953  18.911  0.00  0.00    +0.000 A 
ATOM     21  C   UNL     1      -3.852  11.023  18.035  0.00  0.00    +0.000 A 
ATOM     22  C   UNL     1      -3.015  10.084  17.413  0.00  0.00    +0.000 A 
ATOM     23  C   UNL     1      -1.634  10.096  17.645  0.00  0.00    +0.000 A 
BRANCH  21  24
ATOM     24  C   UNL     1      -5.346  11.020  17.834  0.00  0.00    +0.000 C 
BRANCH  24  25
ATOM     25  O   UNL     1      -5.711  11.614  16.597  0.00  0.00    +0.000 OA
ATOM     26  H   UNL     1      -6.351  12.316  16.805  0.00  0.00    +0.000 HD
ENDBRANCH  24  25
ENDBRANCH  21  24
ENDBRANCH  17  18
ENDBRANCH   6  17
TORSDOF 5
ENDMDL
MODEL 8
REMARK VINA RESULT:      -7.3      1.436      2.301
REMARK  Name = 
REMARK  7 active torsions:
REMARK  status: ('A' for Active; 'I' for Inactive)
REMARK    1  A    between atoms: C_1  and  C_2
REMARK    2  A    between atoms: C_4  and  C_5
REMARK    3  A    between atoms: C_7  and  N_8
REMARK    4  A    between atoms: C_13  and  O_14
REMARK    5  A    between atoms: O_14  and  C_15
REMARK    6  A    between atoms: C_18  and  C_19
REMARK    7  A    between atoms: C_19  and  O_20
REMARK                            x       y       z     vdW  Elec       q    Type
REMARK                         _______ _______ _______ _____ _____    ______ ____
ROOT
ATOM      1  N   UNL     1       1.661   7.868  20.168  0.00  0.00    +0.000 N 
ATOM      2  N   UNL     1       1.576   8.171  21.516  0.00  0.00    +0.000 NA
ATOM      3  C   UNL     1       1.225   9.373  21.835  0.00  0.00    +0.000 A 
ATOM      4  C   UNL     1       0.788  10.411  20.897  0.00  0.00    +0.000 A 
ATOM      5 CL   UNL     1       0.223  11.889  21.556  0.00  0.00    +0.000 Cl
ATOM      6  C   UNL     1       0.766  10.100  19.604  0.00  0.00    +0.000 A 
ATOM      7  C   UNL     1       1.415   8.817  19.161  0.00  0.00    +0.000 A 
ATOM      8  O   UNL     1       1.643   8.678  17.960  0.00  0.00    +0.000 OA
ENDROOT
BRANCH   1  15
ATOM      9  C   UNL     1       4.633   4.821  17.548  0.00  0.00    +0.000 C 
ATOM     10  C   UNL     1       3.598   5.022  18.616  0.00  0.00    +0.000 A 
ATOM     11  C   UNL     1       3.087   3.928  19.323  0.00  0.00    +0.000 A 
ATOM     12  C   UNL     1       2.130   4.122  20.317  0.00  0.00    +0.000 A 
ATOM     13  C   UNL     1       1.515   2.976  21.066  0.00  0.00    +0.000 C 
ATOM     14  C   UNL     1       1.693   5.422  20.607  0.00  0.00    +0.000 A 
ATOM     15  C   UNL     1       2.156   6.541  19.903  0.00  0.00    +0.000 A 
ATOM     16  C   UNL     1       3.122   6.314  18.906  0.00  0.00    +0.000 A 
ENDBRANCH   1  15
BRANCH   6  17
ATOM     17  O   UNL     1       0.239  10.980  18.656  0.00  0.00    +0.000 OA
BRANCH  17  18
ATOM     18  C   UNL     1      -1.109  10.936  18.364  0.00  0.00    +0.000 A 
ATOM     19  C   UNL     1      -1.699   9.996  17.515  0.00  0.00    +0.000 A 
ATOM     20  C   UNL     1      -3.067  10.056  17.239  0.00  0.00    +0.000 A 
ATOM     21  C   UNL     1      -3.882  11.012  17.857  0.00  0.00    +0.000 A 
ATOM     22  C   UNL     1      -3.286  11.948  18.716  0.00  0.00    +0.000 A 
ATOM     23  C   UNL     1      -1.909  11.907  18.970  0.00  0.00    +0.000 A 
BRANCH  21  24
ATOM     24  C   UNL     1      -5.354  11.046  17.535  0.00  0.00    +0.000 C 
BRANCH  24  25
ATOM     25  O   UNL     1      -6.127  10.423  18.551  0.00  0.00    +0.000 OA
ATOM     26  H   UNL     1      -6.257   9.500  18.273  0.00  0.00    +0.000 HD
ENDBRANCH  24  25
ENDBRANCH  21  24
ENDBRANCH  17  18
ENDBRANCH   6  17
TORSDOF 5
ENDMDL
MODEL 9
REMARK VINA RESULT:      -7.3      2.501      3.958
REMARK  Name = 
REMARK  7 active torsions:
REMARK  status: ('A' for Active; 'I' for Inactive)
REMARK    1  A    between atoms: C_1  and  C_2
REMARK    2  A    between atoms: C_4  and  C_5
REMARK    3  A    between atoms: C_7  and  N_8
REMARK    4  A    between atoms: C_13  and  O_14
REMARK    5  A    between atoms: O_14  and  C_15
REMARK    6  A    between atoms: C_18  and  C_19
REMARK    7  A    between atoms: C_19  and  O_20
REMARK                            x       y       z     vdW  Elec       q    Type
REMARK                         _______ _______ _______ _____ _____    ______ ____
ROOT
ATOM      1  N   UNL     1       2.054   7.727  19.042  0.00  0.00    +0.000 N 
ATOM      2  N   UNL     1       1.872   7.534  20.401  0.00  0.00    +0.000 NA
ATOM      3  C   UNL     1       1.348   8.503  21.075  0.00  0.00    +0.000 A 
ATOM      4  C   UNL     1       0.814   9.744  20.508  0.00  0.00    +0.000 A 
ATOM      5 CL   UNL     1       0.026  10.829  21.576  0.00  0.00    +0.000 Cl
ATOM      6  C   UNL     1       0.889   9.900  19.189  0.00  0.00    +0.000 A 
ATOM      7  C   UNL     1       1.724   8.931  18.397  0.00  0.00    +0.000 A 
ATOM      8  O   UNL     1       2.019   9.242  17.244  0.00  0.00    +0.000 OA
ENDROOT
BRANCH   1  15
ATOM      9  C   UNL     1       5.890   6.072  16.297  0.00  0.00    +0.000 C 
ATOM     10  C   UNL     1       4.605   5.805  17.026  0.00  0.00    +0.000 A 
ATOM     11  C   UNL     1       4.051   4.521  17.040  0.00  0.00    +0.000 A 
ATOM     12  C   UNL     1       2.860   4.279  17.723  0.00  0.00    +0.000 A 
ATOM     13  C   UNL     1       2.201   2.931  17.723  0.00  0.00    +0.000 C 
ATOM     14  C   UNL     1       2.231   5.331  18.402  0.00  0.00    +0.000 A 
ATOM     15  C   UNL     1       2.736   6.638  18.389  0.00  0.00    +0.000 A 
ATOM     16  C   UNL     1       3.939   6.852  17.691  0.00  0.00    +0.000 A 
ENDBRANCH   1  15
BRANCH   6  17
ATOM     17  O   UNL     1       0.288  10.987  18.552  0.00  0.00    +0.000 OA
BRANCH  17  18
ATOM     18  C   UNL     1       0.900  12.224  18.595  0.00  0.00    +0.000 A 
ATOM     19  C   UNL     1       2.269  12.431  18.407  0.00  0.00    +0.000 A 
ATOM     20  C   UNL     1       2.809  13.714  18.515  0.00  0.00    +0.000 A 
ATOM     21  C   UNL     1       1.985  14.822  18.745  0.00  0.00    +0.000 A 
ATOM     22  C   UNL     1       0.609  14.611  18.922  0.00  0.00    +0.000 A 
ATOM     23  C   UNL     1       0.071  13.320  18.844  0.00  0.00    +0.000 A 
BRANCH  21  24
ATOM     24  C   UNL     1       2.604  16.192  18.853  0.00  0.00    +0.000 C 
BRANCH  24  25
ATOM     25  O   UNL     1       2.850  16.760  17.574  0.00  0.00    +0.000 OA
ATOM     26  H   UNL     1       3.375  17.565  17.726  0.00  0.00    +0.000 HD
ENDBRANCH  24  25
ENDBRANCH  21  24
ENDBRANCH  17  18
ENDBRANCH   6  17
TORSDOF 5
ENDMDL
