MODEL 1
REMARK VINA RESULT:      -9.0      0.000      0.000
REMARK  Name = 
REMARK  8 active torsions:
REMARK  status: ('A' for Active; 'I' for Inactive)
REMARK    1  A    between atoms: C_1  and  C_2
REMARK    2  A    between atoms: C_2  and  C_3
REMARK    3  A    between atoms: C_3  and  N_4
REMARK    4  A    between atoms: C_6  and  C_7
REMARK    5  A    between atoms: N_9  and  C_10
REMARK    6  A    between atoms: C_10  and  C_11
REMARK    7  A    between atoms: C_26  and  C_27
REMARK    8  A    between atoms: N_29  and  N_30
REMARK                            x       y       z     vdW  Elec       q    Type
REMARK                         _______ _______ _______ _____ _____    ______ ____
ROOT
ATOM      1  C   UNL     1       2.645   6.487  19.469  0.00  0.00    +0.000 A 
ATOM      2  C   UNL     1       3.941   6.332  19.030  0.00  0.00    +0.000 A 
ATOM      3  N   UNL     1       4.267   5.008  19.124  0.00  0.00    +0.000 N 
ATOM      4  C   UNL     1       3.198   4.285  19.612  0.00  0.00    +0.000 A 
ATOM      5  C   UNL     1       3.088   2.918  19.917  0.00  0.00    +0.000 A 
ATOM      6  C   UNL     1       1.878   2.451  20.428  0.00  0.00    +0.000 A 
ATOM      7  C   UNL     1       0.805   3.315  20.614  0.00  0.00    +0.000 A 
ATOM      8  C   UNL     1       0.925   4.678  20.315  0.00  0.00    +0.000 A 
ATOM      9  C   UNL     1       2.146   5.189  19.811  0.00  0.00    +0.000 A 
ENDROOT
BRANCH   1  12
ATOM     10  N   UNL     1       1.058   9.468  20.505  0.00  0.00    +0.000 N 
ATOM     11  N   UNL     1       1.652   8.292  20.793  0.00  0.00    +0.000 NA
ATOM     12  C   UNL     1       1.960   7.772  19.604  0.00  0.00    +0.000 A 
ATOM     13  C   UNL     1       1.595   8.627  18.553  0.00  0.00    +0.000 A 
ATOM     14  C   UNL     1       1.006   9.733  19.149  0.00  0.00    +0.000 A 
BRANCH  14  15
ATOM     15  C   UNL     1       0.450  10.931  18.558  0.00  0.00    +0.000 C 
ATOM     16  O   UNL     1       0.980  12.040  18.628  0.00  0.00    +0.000 OA
ATOM     17  N   UNL     1      -0.760  10.751  17.889  0.00  0.00    +0.000 N 
ATOM     18  H   UNL     1      -1.137   9.821  17.743  0.00  0.00    +0.000 HD
BRANCH  17  19
ATOM     19  N   UNL     1      -1.373  11.835  17.217  0.00  0.00    +0.000 NA
ATOM     20  H   UNL     1      -2.148  11.443  16.662  0.00  0.00    +0.000 HD
ATOM     21  H   UNL     1      -0.714  12.185  16.516  0.00  0.00    +0.000 HD
ENDBRANCH  17  19
ENDBRANCH  14  15
BRANCH  10  22
ATOM     22  C   UNL     1       0.594  10.325  21.592  0.00  0.00    +0.000 C 
BRANCH  22  24
ATOM     23  C   UNL     1      -1.307  10.726  23.217  0.00  0.00    +0.000 C 
ATOM     24  C   UNL     1      -0.435   9.686  22.533  0.00  0.00    +0.000 C 
ENDBRANCH  22  24
ENDBRANCH  10  22
ENDBRANCH   1  12
BRANCH   3  25
ATOM     25  C   UNL     1       5.579   4.457  18.786  0.00  0.00    +0.000 C 
BRANCH  25  26
ATOM     26  C   UNL     1       5.930   4.617  17.320  0.00  0.00    +0.000 A 
ATOM     27  C   UNL     1       5.356   3.777  16.344  0.00  0.00    +0.000 A 
ATOM     28  C   UNL     1       5.741   3.851  15.005  0.00  0.00    +0.000 A 
ATOM     29  C   UNL     1       6.718   4.762  14.621  0.00  0.00    +0.000 A 
ATOM     30 CL   UNL     1       7.227   4.820  12.979  0.00  0.00    +0.000 Cl
ATOM     31  C   UNL     1       7.297   5.611  15.557  0.00  0.00    +0.000 A 
ATOM     32  C   UNL     1       6.907   5.538  16.899  0.00  0.00    +0.000 A 
ATOM     33 CL   UNL     1       7.685   6.615  18.003  0.00  0.00    +0.000 Cl
ENDBRANCH  25  26
ENDBRANCH   3  25
TORSDOF 7
ENDMDL
MODEL 2
REMARK VINA RESULT:      -8.9      1.324      2.297
REMARK  Name = 
REMARK  8 active torsions:
REMARK  status: ('A' for Active; 'I' for Inactive)
REMARK    1  A    between atoms: C_1  and  C_2
REMARK    2  A    between atoms: C_2  and  C_3
REMARK    3  A    between atoms: C_3  and  N_4
REMARK    4  A    between atoms: C_6  and  C_7
REMARK    5  A    between atoms: N_9  and  C_10
REMARK    6  A    between atoms: C_10  and  C_11
REMARK    7  A    between atoms: C_26  and  C_27
REMARK    8  A    between atoms: N_29  and  N_30
REMARK                            x       y       z     vdW  Elec       q    Type
REMARK                         _______ _______ _______ _____ _____    ______ ____
ROOT
ATOM      1  C   UNL     1       2.672   6.349  19.646  0.00  0.00    +0.000 A 
ATOM      2  C   UNL     1       3.972   6.215  19.215  0.00  0.00    +0.000 A 
ATOM      3  N   UNL     1       4.297   4.888  19.249  0.00  0.00    +0.000 N 
ATOM      4  C   UNL     1       3.223   4.142  19.691  0.00  0.00    +0.000 A 
ATOM      5  C   UNL     1       3.110   2.763  19.930  0.00  0.00    +0.000 A 
ATOM      6  C   UNL     1       1.895   2.273  20.406  0.00  0.00    +0.000 A 
ATOM      7  C   UNL     1       0.819   3.128  20.620  0.00  0.00    +0.000 A 
ATOM      8  C   UNL     1       0.943   4.503  20.386  0.00  0.00    +0.000 A 
ATOM      9  C   UNL     1       2.169   5.037  19.921  0.00  0.00    +0.000 A 
ENDROOT
BRANCH   1  12
ATOM     10  N   UNL     1       0.941   9.416  19.378  0.00  0.00    +0.000 N 
ATOM     11  N   UNL     1       1.508   8.334  18.808  0.00  0.00    +0.000 NA
ATOM     12  C   UNL     1       1.985   7.627  19.833  0.00  0.00    +0.000 A 
ATOM     13  C   UNL     1       1.696   8.237  21.064  0.00  0.00    +0.000 A 
ATOM     14  C   UNL     1       1.014   9.405  20.759  0.00  0.00    +0.000 A 
BRANCH  14  15
ATOM     15  C   UNL     1       0.465  10.423  21.628  0.00  0.00    +0.000 C 
ATOM     16  O   UNL     1       0.851  11.591  21.646  0.00  0.00    +0.000 OA
ATOM     17  N   UNL     1      -0.555   9.988  22.474  0.00  0.00    +0.000 N 
ATOM     18  H   UNL     1      -0.941   9.055  22.381  0.00  0.00    +0.000 HD
BRANCH  17  19
ATOM     19  N   UNL     1      -1.215  10.903  23.328  0.00  0.00    +0.000 NA
ATOM     20  H   UNL     1      -0.922  11.848  23.037  0.00  0.00    +0.000 HD
ATOM     21  H   UNL     1      -0.824  10.797  24.267  0.00  0.00    +0.000 HD
ENDBRANCH  17  19
ENDBRANCH  14  15
BRANCH  10  22
ATOM     22  C   UNL     1       0.296  10.420  18.535  0.00  0.00    +0.000 C 
BRANCH  22  24
ATOM     23  C   UNL     1      -1.782  10.024  17.141  0.00  0.00    +0.000 C 
ATOM     24  C   UNL     1      -1.237  10.369  18.518  0.00  0.00    +0.000 C 
ENDBRANCH  22  24
ENDBRANCH  10  22
ENDBRANCH   1  12
BRANCH   3  25
ATOM     25  C   UNL     1       5.613   4.352  18.900  0.00  0.00    +0.000 C 
BRANCH  25  26
ATOM     26  C   UNL     1       5.977   4.573  17.446  0.00  0.00    +0.000 A 
ATOM     27  C   UNL     1       5.394   3.788  16.429  0.00  0.00    +0.000 A 
ATOM     28  C   UNL     1       5.789   3.917  15.097  0.00  0.00    +0.000 A 
ATOM     29  C   UNL     1       6.784   4.826  14.760  0.00  0.00    +0.000 A 
ATOM     30 CL   UNL     1       7.305   4.949  13.126  0.00  0.00    +0.000 Cl
ATOM     31  C   UNL     1       7.373   5.621  15.737  0.00  0.00    +0.000 A 
ATOM     32  C   UNL     1       6.972   5.493  17.072  0.00  0.00    +0.000 A 
ATOM     33 CL   UNL     1       7.763   6.504  18.230  0.00  0.00    +0.000 Cl
ENDBRANCH  25  26
ENDBRANCH   3  25
TORSDOF 7
ENDMDL
MODEL 3
REMARK VINA RESULT:      -8.6      1.348      2.368
REMARK  Name = 
REMARK  8 active torsions:
REMARK  status: ('A' for Active; 'I' for Inactive)
REMARK    1  A    between atoms: C_1  and  C_2
REMARK    2  A    between atoms: C_2  and  C_3
REMARK    3  A    between atoms: C_3  and  N_4
REMARK    4  A    between atoms: C_6  and  C_7
REMARK    5  A    between atoms: N_9  and  C_10
REMARK    6  A    between atoms: C_10  and  C_11
REMARK    7  A    between atoms: C_26  and  C_27
REMARK    8  A    between atoms: N_29  and  N_30
REMARK                            x       y       z     vdW  Elec       q    Type
REMARK                         _______ _______ _______ _____ _____    ______ ____
ROOT
ATOM      1  C   UNL     1       2.772   6.247  19.465  0.00  0.00    +0.000 A 
ATOM      2  C   UNL     1       4.077   6.111  19.049  0.00  0.00    +0.000 A 
ATOM      3  N   UNL     1       4.366   4.777  18.983  0.00  0.00    +0.000 N 
ATOM      4  C   UNL     1       3.262   4.029  19.342  0.00  0.00    +0.000 A 
ATOM      5  C   UNL     1       3.107   2.639  19.467  0.00  0.00    +0.000 A 
ATOM      6  C   UNL     1       1.869   2.147  19.878  0.00  0.00    +0.000 A 
ATOM      7  C   UNL     1       0.813   3.013  20.140  0.00  0.00    +0.000 A 
ATOM      8  C   UNL     1       0.978   4.398  20.021  0.00  0.00    +0.000 A 
ATOM      9  C   UNL     1       2.228   4.932  19.623  0.00  0.00    +0.000 A 
ENDROOT
BRANCH   1  12
ATOM     10  N   UNL     1       1.236   9.428  19.418  0.00  0.00    +0.000 N 
ATOM     11  N   UNL     1       1.846   8.409  18.780  0.00  0.00    +0.000 NA
ATOM     12  C   UNL     1       2.117   7.525  19.742  0.00  0.00    +0.000 A 
ATOM     13  C   UNL     1       1.651   7.961  20.992  0.00  0.00    +0.000 A 
ATOM     14  C   UNL     1       1.078   9.204  20.773  0.00  0.00    +0.000 A 
BRANCH  14  15
ATOM     15  C   UNL     1       0.433  10.114  21.695  0.00  0.00    +0.000 C 
ATOM     16  O   UNL     1       0.722  11.306  21.797  0.00  0.00    +0.000 OA
ATOM     17  N   UNL     1      -0.561   9.543  22.488  0.00  0.00    +0.000 N 
ATOM     18  H   UNL     1      -0.868   8.590  22.326  0.00  0.00    +0.000 HD
BRANCH  17  19
ATOM     19  N   UNL     1      -1.307  10.343  23.385  0.00  0.00    +0.000 NA
ATOM     20  H   UNL     1      -2.252   9.934  23.436  0.00  0.00    +0.000 HD
ATOM     21  H   UNL     1      -1.453  11.257  22.948  0.00  0.00    +0.000 HD
ENDBRANCH  17  19
ENDBRANCH  14  15
BRANCH  10  22
ATOM     22  C   UNL     1       0.783  10.587  18.654  0.00  0.00    +0.000 C 
BRANCH  22  24
ATOM     23  C   UNL     1       1.216  13.083  18.628  0.00  0.00    +0.000 C 
ATOM     24  C   UNL     1       1.824  11.698  18.475  0.00  0.00    +0.000 C 
ENDBRANCH  22  24
ENDBRANCH  10  22
ENDBRANCH   1  12
BRANCH   3  25
ATOM     25  C   UNL     1       5.673   4.233  18.617  0.00  0.00    +0.000 C 
BRANCH  25  26
ATOM     26  C   UNL     1       6.040   4.492  17.169  0.00  0.00    +0.000 A 
ATOM     27  C   UNL     1       5.552   3.660  16.141  0.00  0.00    +0.000 A 
ATOM     28  C   UNL     1       5.956   3.829  14.817  0.00  0.00    +0.000 A 
ATOM     29  C   UNL     1       6.866   4.830  14.499  0.00  0.00    +0.000 A 
ATOM     30 CL   UNL     1       7.401   5.008  12.874  0.00  0.00    +0.000 Cl
ATOM     31  C   UNL     1       7.360   5.674  15.488  0.00  0.00    +0.000 A 
ATOM     32  C   UNL     1       6.950   5.505  16.815  0.00  0.00    +0.000 A 
ATOM     33 CL   UNL     1       7.621   6.582  17.988  0.00  0.00    +0.000 Cl
ENDBRANCH  25  26
ENDBRANCH   3  25
TORSDOF 7
ENDMDL
MODEL 4
REMARK VINA RESULT:      -8.3      4.531      8.927
REMARK  Name = 
REMARK  8 active torsions:
REMARK  status: ('A' for Active; 'I' for Inactive)
REMARK    1  A    between atoms: C_1  and  C_2
REMARK    2  A    between atoms: C_2  and  C_3
REMARK    3  A    between atoms: C_3  and  N_4
REMARK    4  A    between atoms: C_6  and  C_7
REMARK    5  A    between atoms: N_9  and  C_10
REMARK    6  A    between atoms: C_10  and  C_11
REMARK    7  A    between atoms: C_26  and  C_27
REMARK    8  A    between atoms: N_29  and  N_30
REMARK                            x       y       z     vdW  Elec       q    Type
REMARK                         _______ _______ _______ _____ _____    ______ ____
ROOT
ATOM      1  C   UNL     1       1.539   8.865  19.010  0.00  0.00    +0.000 A 
ATOM      2  C   UNL     1       0.983   9.819  18.189  0.00  0.00    +0.000 A 
ATOM      3  N   UNL     1       0.183  10.624  18.952  0.00  0.00    +0.000 N 
ATOM      4  C   UNL     1       0.211  10.216  20.270  0.00  0.00    +0.000 A 
ATOM      5  C   UNL     1      -0.484  10.706  21.388  0.00  0.00    +0.000 A 
ATOM      6  C   UNL     1      -0.283  10.079  22.617  0.00  0.00    +0.000 A 
ATOM      7  C   UNL     1       0.597   9.008  22.732  0.00  0.00    +0.000 A 
ATOM      8  C   UNL     1       1.281   8.521  21.610  0.00  0.00    +0.000 A 
ATOM      9  C   UNL     1       1.084   9.123  20.344  0.00  0.00    +0.000 A 
ENDROOT
BRANCH   1  12
ATOM     10  N   UNL     1       3.976   6.735  17.596  0.00  0.00    +0.000 N 
ATOM     11  N   UNL     1       3.460   7.966  17.786  0.00  0.00    +0.000 NA
ATOM     12  C   UNL     1       2.387   7.765  18.552  0.00  0.00    +0.000 A 
ATOM     13  C   UNL     1       2.231   6.409  18.882  0.00  0.00    +0.000 A 
ATOM     14  C   UNL     1       3.272   5.742  18.253  0.00  0.00    +0.000 A 
BRANCH  14  15
ATOM     15  C   UNL     1       3.617   4.337  18.247  0.00  0.00    +0.000 C 
ATOM     16  O   UNL     1       3.238   3.541  17.389  0.00  0.00    +0.000 OA
ATOM     17  N   UNL     1       4.424   3.925  19.307  0.00  0.00    +0.000 N 
ATOM     18  H   UNL     1       4.819   4.602  19.950  0.00  0.00    +0.000 HD
BRANCH  17  19
ATOM     19  N   UNL     1       4.880   2.587  19.379  0.00  0.00    +0.000 NA
ATOM     20  H   UNL     1       5.527   2.535  20.179  0.00  0.00    +0.000 HD
ATOM     21  H   UNL     1       5.472   2.411  18.564  0.00  0.00    +0.000 HD
ENDBRANCH  17  19
ENDBRANCH  14  15
BRANCH  10  22
ATOM     22  C   UNL     1       5.188   6.578  16.797  0.00  0.00    +0.000 C 
BRANCH  22  24
ATOM     23  C   UNL     1       7.432   7.559  17.445  0.00  0.00    +0.000 C 
ATOM     24  C   UNL     1       6.479   6.385  17.602  0.00  0.00    +0.000 C 
ENDBRANCH  22  24
ENDBRANCH  10  22
ENDBRANCH   1  12
BRANCH   3  25
ATOM     25  C   UNL     1      -0.612  11.733  18.425  0.00  0.00    +0.000 C 
BRANCH  25  26
ATOM     26  C   UNL     1      -2.102  11.454  18.440  0.00  0.00    +0.000 A 
ATOM     27  C   UNL     1      -2.661  10.477  17.591  0.00  0.00    +0.000 A 
ATOM     28  C   UNL     1      -4.040  10.276  17.526  0.00  0.00    +0.000 A 
ATOM     29  C   UNL     1      -4.886  11.059  18.302  0.00  0.00    +0.000 A 
ATOM     30 CL   UNL     1      -6.589  10.844  18.187  0.00  0.00    +0.000 Cl
ATOM     31  C   UNL     1      -4.366  12.025  19.156  0.00  0.00    +0.000 A 
ATOM     32  C   UNL     1      -2.982  12.222  19.223  0.00  0.00    +0.000 A 
ATOM     33 CL   UNL     1      -2.414  13.453  20.296  0.00  0.00    +0.000 Cl
ENDBRANCH  25  26
ENDBRANCH   3  25
TORSDOF 7
ENDMDL
MODEL 5
REMARK VINA RESULT:      -8.3      4.231      8.774
REMARK  Name = 
REMARK  8 active torsions:
REMARK  status: ('A' for Active; 'I' for Inactive)
REMARK    1  A    between atoms: C_1  and  C_2
REMARK    2  A    between atoms: C_2  and  C_3
REMARK    3  A    between atoms: C_3  and  N_4
REMARK    4  A    between atoms: C_6  and  C_7
REMARK    5  A    between atoms: N_9  and  C_10
REMARK    6  A    between atoms: C_10  and  C_11
REMARK    7  A    between atoms: C_26  and  C_27
REMARK    8  A    between atoms: N_29  and  N_30
REMARK                            x       y       z     vdW  Elec       q    Type
REMARK                         _______ _______ _______ _____ _____    ______ ____
ROOT
ATOM      1  C   UNL     1       1.064   8.808  20.029  0.00  0.00    +0.000 A 
ATOM      2  C   UNL     1       0.739   9.642  18.983  0.00  0.00    +0.000 A 
ATOM      3  N   UNL     1      -0.028  10.661  19.475  0.00  0.00    +0.000 N 
ATOM      4  C   UNL     1      -0.207  10.514  20.835  0.00  0.00    +0.000 A 
ATOM      5  C   UNL     1      -0.953  11.283  21.743  0.00  0.00    +0.000 A 
ATOM      6  C   UNL     1      -0.979  10.885  23.079  0.00  0.00    +0.000 A 
ATOM      7  C   UNL     1      -0.269   9.766  23.501  0.00  0.00    +0.000 A 
ATOM      8  C   UNL     1       0.467   9.001  22.588  0.00  0.00    +0.000 A 
ATOM      9  C   UNL     1       0.499   9.366  21.220  0.00  0.00    +0.000 A 
ENDROOT
BRANCH   1  12
ATOM     10  N   UNL     1       2.422   5.553  20.236  0.00  0.00    +0.000 N 
ATOM     11  N   UNL     1       1.569   6.500  20.676  0.00  0.00    +0.000 NA
ATOM     12  C   UNL     1       1.805   7.554  19.893  0.00  0.00    +0.000 A 
ATOM     13  C   UNL     1       2.786   7.274  18.928  0.00  0.00    +0.000 A 
ATOM     14  C   UNL     1       3.185   5.966  19.159  0.00  0.00    +0.000 A 
BRANCH  14  15
ATOM     15  C   UNL     1       4.159   5.149  18.470  0.00  0.00    +0.000 C 
ATOM     16  O   UNL     1       3.945   4.583  17.398  0.00  0.00    +0.000 OA
ATOM     17  N   UNL     1       5.390   5.030  19.114  0.00  0.00    +0.000 N 
ATOM     18  H   UNL     1       5.596   5.581  19.940  0.00  0.00    +0.000 HD
BRANCH  17  19
ATOM     19  N   UNL     1       6.446   4.307  18.511  0.00  0.00    +0.000 NA
ATOM     20  H   UNL     1       7.275   4.431  19.111  0.00  0.00    +0.000 HD
ATOM     21  H   UNL     1       6.694   4.780  17.638  0.00  0.00    +0.000 HD
ENDBRANCH  17  19
ENDBRANCH  14  15
BRANCH  10  22
ATOM     22  C   UNL     1       2.428   4.239  20.872  0.00  0.00    +0.000 C 
BRANCH  22  24
ATOM     23  C   UNL     1       1.133   2.623  19.412  0.00  0.00    +0.000 C 
ATOM     24  C   UNL     1       1.138   3.427  20.702  0.00  0.00    +0.000 C 
ENDBRANCH  22  24
ENDBRANCH  10  22
ENDBRANCH   1  12
BRANCH   3  25
ATOM     25  C   UNL     1      -0.602  11.729  18.657  0.00  0.00    +0.000 C 
BRANCH  25  26
ATOM     26  C   UNL     1      -2.110  11.637  18.534  0.00  0.00    +0.000 A 
ATOM     27  C   UNL     1      -2.950  12.403  19.369  0.00  0.00    +0.000 A 
ATOM     28  C   UNL     1      -4.337  12.259  19.331  0.00  0.00    +0.000 A 
ATOM     29  C   UNL     1      -4.908  11.336  18.463  0.00  0.00    +0.000 A 
ATOM     30 CL   UNL     1      -6.615  11.124  18.451  0.00  0.00    +0.000 Cl
ATOM     31  C   UNL     1      -4.109  10.572  17.620  0.00  0.00    +0.000 A 
ATOM     32  C   UNL     1      -2.718  10.721  17.657  0.00  0.00    +0.000 A 
ATOM     33 CL   UNL     1      -1.793   9.724  16.591  0.00  0.00    +0.000 Cl
ENDBRANCH  25  26
ENDBRANCH   3  25
TORSDOF 7
ENDMDL
MODEL 6
REMARK VINA RESULT:      -8.3      1.022      1.330
REMARK  Name = 
REMARK  8 active torsions:
REMARK  status: ('A' for Active; 'I' for Inactive)
REMARK    1  A    between atoms: C_1  and  C_2
REMARK    2  A    between atoms: C_2  and  C_3
REMARK    3  A    between atoms: C_3  and  N_4
REMARK    4  A    between atoms: C_6  and  C_7
REMARK    5  A    between atoms: N_9  and  C_10
REMARK    6  A    between atoms: C_10  and  C_11
REMARK    7  A    between atoms: C_26  and  C_27
REMARK    8  A    between atoms: N_29  and  N_30
REMARK                            x       y       z     vdW  Elec       q    Type
REMARK                         _______ _______ _______ _____ _____    ______ ____
ROOT
ATOM      1  C   UNL     1       2.717   6.408  19.547  0.00  0.00    +0.000 A 
ATOM      2  C   UNL     1       4.021   6.228  19.144  0.00  0.00    +0.000 A 
ATOM      3  N   UNL     1       4.334   4.906  19.292  0.00  0.00    +0.000 N 
ATOM      4  C   UNL     1       3.247   4.208  19.780  0.00  0.00    +0.000 A 
ATOM      5  C   UNL     1       3.119   2.853  20.130  0.00  0.00    +0.000 A 
ATOM      6  C   UNL     1       1.894   2.414  20.629  0.00  0.00    +0.000 A 
ATOM      7  C   UNL     1       0.824   3.293  20.759  0.00  0.00    +0.000 A 
ATOM      8  C   UNL     1       0.962   4.643  20.414  0.00  0.00    +0.000 A 
ATOM      9  C   UNL     1       2.199   5.126  19.922  0.00  0.00    +0.000 A 
ENDROOT
BRANCH   1  12
ATOM     10  N   UNL     1       1.126   9.433  20.438  0.00  0.00    +0.000 N 
ATOM     11  N   UNL     1       1.700   8.262  20.782  0.00  0.00    +0.000 NA
ATOM     12  C   UNL     1       2.040   7.702  19.620  0.00  0.00    +0.000 A 
ATOM     13  C   UNL     1       1.715   8.527  18.531  0.00  0.00    +0.000 A 
ATOM     14  C   UNL     1       1.118   9.655  19.073  0.00  0.00    +0.000 A 
BRANCH  14  15
ATOM     15  C   UNL     1       0.592  10.838  18.428  0.00  0.00    +0.000 C 
ATOM     16  O   UNL     1       1.225  11.885  18.293  0.00  0.00    +0.000 OA
ATOM     17  N   UNL     1      -0.717  10.721  17.960  0.00  0.00    +0.000 N 
ATOM     18  H   UNL     1      -1.195   9.827  17.980  0.00  0.00    +0.000 HD
BRANCH  17  19
ATOM     19  N   UNL     1      -1.322  11.790  17.257  0.00  0.00    +0.000 NA
ATOM     20  H   UNL     1      -0.706  12.608  17.369  0.00  0.00    +0.000 HD
ATOM     21  H   UNL     1      -2.179  12.049  17.754  0.00  0.00    +0.000 HD
ENDBRANCH  17  19
ENDBRANCH  14  15
BRANCH  10  22
ATOM     22  C   UNL     1       0.637  10.328  21.483  0.00  0.00    +0.000 C 
BRANCH  22  24
ATOM     23  C   UNL     1      -1.169  10.480  23.253  0.00  0.00    +0.000 C 
ATOM     24  C   UNL     1      -0.050   9.635  22.667  0.00  0.00    +0.000 C 
ENDBRANCH  22  24
ENDBRANCH  10  22
ENDBRANCH   1  12
BRANCH   3  25
ATOM     25  C   UNL     1       5.648   4.332  19.005  0.00  0.00    +0.000 C 
BRANCH  25  26
ATOM     26  C   UNL     1       6.026   4.418  17.540  0.00  0.00    +0.000 A 
ATOM     27  C   UNL     1       7.226   5.042  17.139  0.00  0.00    +0.000 A 
ATOM     28  C   UNL     1       7.541   5.211  15.791  0.00  0.00    +0.000 A 
ATOM     29  C   UNL     1       6.654   4.769  14.817  0.00  0.00    +0.000 A 
ATOM     30 CL   UNL     1       7.019   5.021  13.156  0.00  0.00    +0.000 Cl
ATOM     31  C   UNL     1       5.466   4.142  15.178  0.00  0.00    +0.000 A 
ATOM     32  C   UNL     1       5.154   3.969  16.532  0.00  0.00    +0.000 A 
ATOM     33 CL   UNL     1       3.653   3.197  16.899  0.00  0.00    +0.000 Cl
ENDBRANCH  25  26
ENDBRANCH   3  25
TORSDOF 7
ENDMDL
MODEL 7
REMARK VINA RESULT:      -8.3      4.404      8.773
REMARK  Name = 
REMARK  8 active torsions:
REMARK  status: ('A' for Active; 'I' for Inactive)
REMARK    1  A    between atoms: C_1  and  C_2
REMARK    2  A    between atoms: C_2  and  C_3
REMARK    3  A    between atoms: C_3  and  N_4
REMARK    4  A    between atoms: C_6  and  C_7
REMARK    5  A    between atoms: N_9  and  C_10
REMARK    6  A    between atoms: C_10  and  C_11
REMARK    7  A    between atoms: C_26  and  C_27
REMARK    8  A    between atoms: N_29  and  N_30
REMARK                            x       y       z     vdW  Elec       q    Type
REMARK                         _______ _______ _______ _____ _____    ______ ____
ROOT
ATOM      1  C   UNL     1       1.085   9.262  19.541  0.00  0.00    +0.000 A 
ATOM      2  C   UNL     1       0.578  10.158  18.627  0.00  0.00    +0.000 A 
ATOM      3  N   UNL     1      -0.261  11.011  19.287  0.00  0.00    +0.000 N 
ATOM      4  C   UNL     1      -0.309  10.694  20.629  0.00  0.00    +0.000 A 
ATOM      5  C   UNL     1      -1.065  11.257  21.671  0.00  0.00    +0.000 A 
ATOM      6  C   UNL     1      -0.934  10.715  22.949  0.00  0.00    +0.000 A 
ATOM      7  C   UNL     1      -0.065   9.656  23.186  0.00  0.00    +0.000 A 
ATOM      8  C   UNL     1       0.680   9.096  22.140  0.00  0.00    +0.000 A 
ATOM      9  C   UNL     1       0.556   9.610  20.826  0.00  0.00    +0.000 A 
ENDROOT
BRANCH   1  12
ATOM     10  N   UNL     1       2.878   6.228  19.310  0.00  0.00    +0.000 N 
ATOM     11  N   UNL     1       1.986   7.020  19.938  0.00  0.00    +0.000 NA
ATOM     12  C   UNL     1       1.955   8.136  19.207  0.00  0.00    +0.000 A 
ATOM     13  C   UNL     1       2.803   8.049  18.091  0.00  0.00    +0.000 A 
ATOM     14  C   UNL     1       3.403   6.801  18.165  0.00  0.00    +0.000 A 
BRANCH  14  15
ATOM     15  C   UNL     1       4.358   6.167  17.283  0.00  0.00    +0.000 C 
ATOM     16  O   UNL     1       4.161   5.093  16.716  0.00  0.00    +0.000 OA
ATOM     17  N   UNL     1       5.554   6.863  17.112  0.00  0.00    +0.000 N 
ATOM     18  H   UNL     1       5.669   7.795  17.496  0.00  0.00    +0.000 HD
BRANCH  17  19
ATOM     19  N   UNL     1       6.544   6.377  16.226  0.00  0.00    +0.000 NA
ATOM     20  H   UNL     1       6.687   7.103  15.509  0.00  0.00    +0.000 HD
ATOM     21  H   UNL     1       6.145   5.589  15.709  0.00  0.00    +0.000 HD
ENDBRANCH  17  19
ENDBRANCH  14  15
BRANCH  10  22
ATOM     22  C   UNL     1       3.158   4.897  19.841  0.00  0.00    +0.000 C 
BRANCH  22  24
ATOM     23  C   UNL     1       1.416   3.713  18.433  0.00  0.00    +0.000 C 
ATOM     24  C   UNL     1       1.969   3.929  19.832  0.00  0.00    +0.000 C 
ENDBRANCH  22  24
ENDBRANCH  10  22
ENDBRANCH   1  12
BRANCH   3  25
ATOM     25  C   UNL     1      -1.023  12.081  18.643  0.00  0.00    +0.000 C 
BRANCH  25  26
ATOM     26  C   UNL     1      -2.506  11.782  18.553  0.00  0.00    +0.000 A 
ATOM     27  C   UNL     1      -3.423  12.412  19.420  0.00  0.00    +0.000 A 
ATOM     28  C   UNL     1      -4.777  12.077  19.412  0.00  0.00    +0.000 A 
ATOM     29  C   UNL     1      -5.237  11.096  18.543  0.00  0.00    +0.000 A 
ATOM     30 CL   UNL     1      -6.898  10.649  18.567  0.00  0.00    +0.000 Cl
ATOM     31  C   UNL     1      -4.361  10.462  17.669  0.00  0.00    +0.000 A 
ATOM     32  C   UNL     1      -3.004  10.802  17.675  0.00  0.00    +0.000 A 
ATOM     33 CL   UNL     1      -1.977   9.958  16.571  0.00  0.00    +0.000 Cl
ENDBRANCH  25  26
ENDBRANCH   3  25
TORSDOF 7
ENDMDL
MODEL 8
REMARK VINA RESULT:      -8.2      4.020      8.288
REMARK  Name = 
REMARK  8 active torsions:
REMARK  status: ('A' for Active; 'I' for Inactive)
REMARK    1  A    between atoms: C_1  and  C_2
REMARK    2  A    between atoms: C_2  and  C_3
REMARK    3  A    between atoms: C_3  and  N_4
REMARK    4  A    between atoms: C_6  and  C_7
REMARK    5  A    between atoms: N_9  and  C_10
REMARK    6  A    between atoms: C_10  and  C_11
REMARK    7  A    between atoms: C_26  and  C_27
REMARK    8  A    between atoms: N_29  and  N_30
REMARK                            x       y       z     vdW  Elec       q    Type
REMARK                         _______ _______ _______ _____ _____    ______ ____
ROOT
ATOM      1  C   UNL     1       1.293   8.844  19.943  0.00  0.00    +0.000 A 
ATOM      2  C   UNL     1       1.146   9.736  18.905  0.00  0.00    +0.000 A 
ATOM      3  N   UNL     1       0.413  10.798  19.356  0.00  0.00    +0.000 N 
ATOM      4  C   UNL     1       0.081  10.621  20.684  0.00  0.00    +0.000 A 
ATOM      5  C   UNL     1      -0.695  11.419  21.541  0.00  0.00    +0.000 A 
ATOM      6  C   UNL     1      -0.893  10.982  22.850  0.00  0.00    +0.000 A 
ATOM      7  C   UNL     1      -0.320   9.796  23.297  0.00  0.00    +0.000 A 
ATOM      8  C   UNL     1       0.446   9.003  22.434  0.00  0.00    +0.000 A 
ATOM      9  C   UNL     1       0.651   9.408  21.093  0.00  0.00    +0.000 A 
ENDROOT
BRANCH   1  12
ATOM     10  N   UNL     1       2.425   5.510  20.222  0.00  0.00    +0.000 N 
ATOM     11  N   UNL     1       1.643   6.524  20.644  0.00  0.00    +0.000 NA
ATOM     12  C   UNL     1       1.944   7.540  19.833  0.00  0.00    +0.000 A 
ATOM     13  C   UNL     1       2.896   7.169  18.869  0.00  0.00    +0.000 A 
ATOM     14  C   UNL     1       3.205   5.843  19.129  0.00  0.00    +0.000 A 
BRANCH  14  15
ATOM     15  C   UNL     1       4.115   4.943  18.454  0.00  0.00    +0.000 C 
ATOM     16  O   UNL     1       3.801   4.247  17.489  0.00  0.00    +0.000 OA
ATOM     17  N   UNL     1       5.405   4.906  18.981  0.00  0.00    +0.000 N 
ATOM     18  H   UNL     1       5.687   5.557  19.706  0.00  0.00    +0.000 HD
BRANCH  17  19
ATOM     19  N   UNL     1       6.404   4.111  18.370  0.00  0.00    +0.000 NA
ATOM     20  H   UNL     1       6.962   4.738  17.773  0.00  0.00    +0.000 HD
ATOM     21  H   UNL     1       5.944   3.479  17.709  0.00  0.00    +0.000 HD
ENDBRANCH  17  19
ENDBRANCH  14  15
BRANCH  10  22
ATOM     22  C   UNL     1       2.346   4.214  20.889  0.00  0.00    +0.000 C 
BRANCH  22  24
ATOM     23  C   UNL     1       0.969   2.809  19.292  0.00  0.00    +0.000 C 
ATOM     24  C   UNL     1       1.036   3.447  20.671  0.00  0.00    +0.000 C 
ENDBRANCH  22  24
ENDBRANCH  10  22
ENDBRANCH   1  12
BRANCH   3  25
ATOM     25  C   UNL     1       0.013  11.935  18.528  0.00  0.00    +0.000 C 
BRANCH  25  26
ATOM     26  C   UNL     1       0.977  13.101  18.614  0.00  0.00    +0.000 A 
ATOM     27  C   UNL     1       2.306  12.973  18.159  0.00  0.00    +0.000 A 
ATOM     28  C   UNL     1       3.230  14.007  18.318  0.00  0.00    +0.000 A 
ATOM     29  C   UNL     1       2.842  15.184  18.946  0.00  0.00    +0.000 A 
ATOM     30 CL   UNL     1       3.994  16.439  19.186  0.00  0.00    +0.000 Cl
ATOM     31  C   UNL     1       1.537  15.345  19.398  0.00  0.00    +0.000 A 
ATOM     32  C   UNL     1       0.611  14.308  19.234  0.00  0.00    +0.000 A 
ATOM     33 CL   UNL     1      -0.986  14.579  19.837  0.00  0.00    +0.000 Cl
ENDBRANCH  25  26
ENDBRANCH   3  25
TORSDOF 7
ENDMDL
MODEL 9
REMARK VINA RESULT:      -8.1      4.591      8.770
REMARK  Name = 
REMARK  8 active torsions:
REMARK  status: ('A' for Active; 'I' for Inactive)
REMARK    1  A    between atoms: C_1  and  C_2
REMARK    2  A    between atoms: C_2  and  C_3
REMARK    3  A    between atoms: C_3  and  N_4
REMARK    4  A    between atoms: C_6  and  C_7
REMARK    5  A    between atoms: N_9  and  C_10
REMARK    6  A    between atoms: C_10  and  C_11
REMARK    7  A    between atoms: C_26  and  C_27
REMARK    8  A    between atoms: N_29  and  N_30
REMARK                            x       y       z     vdW  Elec       q    Type
REMARK                         _______ _______ _______ _____ _____    ______ ____
ROOT
ATOM      1  C   UNL     1       1.289   9.036  19.480  0.00  0.00    +0.000 A 
ATOM      2  C   UNL     1       0.766   9.931  18.575  0.00  0.00    +0.000 A 
ATOM      3  N   UNL     1      -0.054  10.791  19.251  0.00  0.00    +0.000 N 
ATOM      4  C   UNL     1      -0.072  10.478  20.595  0.00  0.00    +0.000 A 
ATOM      5  C   UNL     1      -0.800  11.049  21.652  0.00  0.00    +0.000 A 
ATOM      6  C   UNL     1      -0.643  10.510  22.929  0.00  0.00    +0.000 A 
ATOM      7  C   UNL     1       0.227   9.448  23.149  0.00  0.00    +0.000 A 
ATOM      8  C   UNL     1       0.944   8.880  22.088  0.00  0.00    +0.000 A 
ATOM      9  C   UNL     1       0.792   9.390  20.776  0.00  0.00    +0.000 A 
ENDROOT
BRANCH   1  12
ATOM     10  N   UNL     1       3.070   5.997  19.224  0.00  0.00    +0.000 N 
ATOM     11  N   UNL     1       2.202   6.798  19.874  0.00  0.00    +0.000 NA
ATOM     12  C   UNL     1       2.145   7.903  19.129  0.00  0.00    +0.000 A 
ATOM     13  C   UNL     1       2.950   7.800  17.984  0.00  0.00    +0.000 A 
ATOM     14  C   UNL     1       3.552   6.552  18.053  0.00  0.00    +0.000 A 
BRANCH  14  15
ATOM     15  C   UNL     1       4.473   5.905  17.144  0.00  0.00    +0.000 C 
ATOM     16  O   UNL     1       4.231   4.850  16.558  0.00  0.00    +0.000 OA
ATOM     17  N   UNL     1       5.690   6.563  16.972  0.00  0.00    +0.000 N 
ATOM     18  H   UNL     1       5.843   7.481  17.374  0.00  0.00    +0.000 HD
BRANCH  17  19
ATOM     19  N   UNL     1       6.651   6.061  16.062  0.00  0.00    +0.000 NA
ATOM     20  H   UNL     1       6.385   6.404  15.128  0.00  0.00    +0.000 HD
ATOM     21  H   UNL     1       6.530   5.047  16.002  0.00  0.00    +0.000 HD
ENDBRANCH  17  19
ENDBRANCH  14  15
BRANCH  10  22
ATOM     22  C   UNL     1       3.368   4.672  19.763  0.00  0.00    +0.000 C 
BRANCH  22  24
ATOM     23  C   UNL     1       2.539   2.740  21.175  0.00  0.00    +0.000 C 
ATOM     24  C   UNL     1       2.505   4.244  20.956  0.00  0.00    +0.000 C 
ENDBRANCH  22  24
ENDBRANCH  10  22
ENDBRANCH   1  12
BRANCH   3  25
ATOM     25  C   UNL     1      -0.825  11.862  18.621  0.00  0.00    +0.000 C 
BRANCH  25  26
ATOM     26  C   UNL     1      -2.314  11.579  18.584  0.00  0.00    +0.000 A 
ATOM     27  C   UNL     1      -2.839  10.591  17.728  0.00  0.00    +0.000 A 
ATOM     28  C   UNL     1      -4.215  10.385  17.615  0.00  0.00    +0.000 A 
ATOM     29  C   UNL     1      -5.090  11.174  18.350  0.00  0.00    +0.000 A 
ATOM     30 CL   UNL     1      -6.787  10.953  18.175  0.00  0.00    +0.000 Cl
ATOM     31  C   UNL     1      -4.604  12.152  19.211  0.00  0.00    +0.000 A 
ATOM     32  C   UNL     1      -3.224  12.354  19.326  0.00  0.00    +0.000 A 
ATOM     33 CL   UNL     1      -2.699  13.599  20.404  0.00  0.00    +0.000 Cl
ENDBRANCH  25  26
ENDBRANCH   3  25
TORSDOF 7
ENDMDL
