MODEL 1
REMARK VINA RESULT:      -8.3      0.000      0.000
REMARK  Name = 
REMARK  5 active torsions:
REMARK  status: ('A' for Active; 'I' for Inactive)
REMARK    1  A    between atoms: C_1  and  C_2
REMARK    2  A    between atoms: C_2  and  C_3
REMARK    3  A    between atoms: C_6  and  C_7
REMARK    4  A    between atoms: C_7  and  N_8
REMARK    5  A    between atoms: C_14  and  C_15
REMARK                            x       y       z     vdW  Elec       q    Type
REMARK                         _______ _______ _______ _____ _____    ______ ____
ROOT
ATOM      1  N   UNL     1       2.810   5.181  19.028  0.00  0.00    +0.000 NA
ATOM      2  C   UNL     1       1.694   4.338  18.598  0.00  0.00    +0.000 C 
ATOM      3  C   UNL     1       0.906   3.774  19.789  0.00  0.00    +0.000 C 
ATOM      4  C   UNL     1       1.514   2.532  20.418  0.00  0.00    +0.000 C 
ATOM      5  C   UNL     1       2.903   2.758  20.999  0.00  0.00    +0.000 C 
ATOM      6  C   UNL     1       3.945   3.015  19.917  0.00  0.00    +0.000 C 
ATOM      7  C   UNL     1       4.054   4.488  19.438  0.00  0.00    +0.000 C 
ENDROOT
BRANCH   7   8
ATOM      8  C   UNL     1       5.201   4.585  18.426  0.00  0.00    +0.000 A 
ATOM      9  C   UNL     1       6.418   5.217  18.736  0.00  0.00    +0.000 A 
ATOM     10  C   UNL     1       7.463   5.249  17.804  0.00  0.00    +0.000 A 
ATOM     11  C   UNL     1       7.309   4.644  16.561  0.00  0.00    +0.000 A 
ATOM     12  C   UNL     1       6.105   4.021  16.248  0.00  0.00    +0.000 A 
ATOM     13  F   UNL     1       5.958   3.431  15.054  0.00  0.00    +0.000 F 
ATOM     14  C   UNL     1       5.058   3.993  17.159  0.00  0.00    +0.000 A 
ENDBRANCH   7   8
BRANCH   1  15
ATOM     15  C   UNL     1       3.017   6.365  18.169  0.00  0.00    +0.000 C 
BRANCH  15  19
ATOM     16  C   UNL     1       0.792   9.653  19.562  0.00  0.00    +0.000 A 
ATOM     17  N   UNL     1       1.193   8.741  20.469  0.00  0.00    +0.000 NA
ATOM     18  C   UNL     1       1.950   7.729  20.003  0.00  0.00    +0.000 A 
ATOM     19  C   UNL     1       2.322   7.593  18.683  0.00  0.00    +0.000 A 
ATOM     20  C   UNL     1       1.949   8.640  17.866  0.00  0.00    +0.000 A 
ATOM     21  N   UNL     1       1.184   9.673  18.273  0.00  0.00    +0.000 NA
BRANCH  16  23
ATOM     22  C   UNL     1      -1.164  11.078  18.822  0.00  0.00    +0.000 C 
ATOM     23  C   UNL     1      -0.304  10.597  19.974  0.00  0.00    +0.000 C 
ENDBRANCH  16  23
ENDBRANCH  15  19
ENDBRANCH   1  15
TORSDOF 4
ENDMDL
MODEL 2
REMARK VINA RESULT:      -8.2      1.255      1.459
REMARK  Name = 
REMARK  5 active torsions:
REMARK  status: ('A' for Active; 'I' for Inactive)
REMARK    1  A    between atoms: C_1  and  C_2
REMARK    2  A    between atoms: C_2  and  C_3
REMARK    3  A    between atoms: C_6  and  C_7
REMARK    4  A    between atoms: C_7  and  N_8
REMARK    5  A    between atoms: C_14  and  C_15
REMARK                            x       y       z     vdW  Elec       q    Type
REMARK                         _______ _______ _______ _____ _____    ______ ____
ROOT
ATOM      1  N   UNL     1       2.898   4.861  18.285  0.00  0.00    +0.000 NA
ATOM      2  C   UNL     1       1.629   4.394  17.725  0.00  0.00    +0.000 C 
ATOM      3  C   UNL     1       0.845   3.526  18.720  0.00  0.00    +0.000 C 
ATOM      4  C   UNL     1       1.280   2.072  18.770  0.00  0.00    +0.000 C 
ATOM      5  C   UNL     1       2.726   1.880  19.208  0.00  0.00    +0.000 C 
ATOM      6  C   UNL     1       3.716   2.393  18.170  0.00  0.00    +0.000 C 
ATOM      7  C   UNL     1       4.035   3.911  18.251  0.00  0.00    +0.000 C 
ENDROOT
BRANCH   7   8
ATOM      8  C   UNL     1       5.106   4.237  17.205  0.00  0.00    +0.000 A 
ATOM      9  C   UNL     1       6.392   4.676  17.566  0.00  0.00    +0.000 A 
ATOM     10  C   UNL     1       7.363   4.923  16.587  0.00  0.00    +0.000 A 
ATOM     11  C   UNL     1       7.066   4.725  15.242  0.00  0.00    +0.000 A 
ATOM     12  C   UNL     1       5.793   4.295  14.880  0.00  0.00    +0.000 A 
ATOM     13  F   UNL     1       5.508   4.096  13.586  0.00  0.00    +0.000 F 
ATOM     14  C   UNL     1       4.820   4.058  15.839  0.00  0.00    +0.000 A 
ENDBRANCH   7   8
BRANCH   1  15
ATOM     15  C   UNL     1       3.238   6.245  17.897  0.00  0.00    +0.000 C 
BRANCH  15  19
ATOM     16  C   UNL     1       1.019   8.994  20.182  0.00  0.00    +0.000 A 
ATOM     17  N   UNL     1       1.490   7.898  20.808  0.00  0.00    +0.000 NA
ATOM     18  C   UNL     1       2.243   7.064  20.066  0.00  0.00    +0.000 A 
ATOM     19  C   UNL     1       2.544   7.278  18.738  0.00  0.00    +0.000 A 
ATOM     20  C   UNL     1       2.103   8.483  18.232  0.00  0.00    +0.000 A 
ATOM     21  N   UNL     1       1.338   9.352  18.923  0.00  0.00    +0.000 NA
BRANCH  16  23
ATOM     22  C   UNL     1      -0.320   9.328  22.303  0.00  0.00    +0.000 C 
ATOM     23  C   UNL     1      -0.073   9.764  20.872  0.00  0.00    +0.000 C 
ENDBRANCH  16  23
ENDBRANCH  15  19
ENDBRANCH   1  15
TORSDOF 4
ENDMDL
MODEL 3
REMARK VINA RESULT:      -8.2      2.934      6.383
REMARK  Name = 
REMARK  5 active torsions:
REMARK  status: ('A' for Active; 'I' for Inactive)
REMARK    1  A    between atoms: C_1  and  C_2
REMARK    2  A    between atoms: C_2  and  C_3
REMARK    3  A    between atoms: C_6  and  C_7
REMARK    4  A    between atoms: C_7  and  N_8
REMARK    5  A    between atoms: C_14  and  C_15
REMARK                            x       y       z     vdW  Elec       q    Type
REMARK                         _______ _______ _______ _____ _____    ______ ____
ROOT
ATOM      1  N   UNL     1       3.890   4.453  18.600  0.00  0.00    +0.000 NA
ATOM      2  C   UNL     1       4.099   3.533  19.718  0.00  0.00    +0.000 C 
ATOM      3  C   UNL     1       3.749   2.085  19.346  0.00  0.00    +0.000 C 
ATOM      4  C   UNL     1       2.271   1.749  19.433  0.00  0.00    +0.000 C 
ATOM      5  C   UNL     1       1.400   2.569  18.491  0.00  0.00    +0.000 C 
ATOM      6  C   UNL     1       1.339   4.037  18.893  0.00  0.00    +0.000 C 
ATOM      7  C   UNL     1       2.503   4.919  18.366  0.00  0.00    +0.000 C 
ENDROOT
BRANCH   7   8
ATOM      8  C   UNL     1       2.238   6.370  18.781  0.00  0.00    +0.000 A 
ATOM      9  C   UNL     1       2.240   7.424  17.852  0.00  0.00    +0.000 A 
ATOM     10  C   UNL     1       1.950   8.733  18.257  0.00  0.00    +0.000 A 
ATOM     11  C   UNL     1       1.647   9.002  19.588  0.00  0.00    +0.000 A 
ATOM     12  C   UNL     1       1.649   7.962  20.512  0.00  0.00    +0.000 A 
ATOM     13  F   UNL     1       1.350   8.218  21.793  0.00  0.00    +0.000 F 
ATOM     14  C   UNL     1       1.946   6.663  20.125  0.00  0.00    +0.000 A 
ENDBRANCH   7   8
BRANCH   1  15
ATOM     15  C   UNL     1       4.919   5.509  18.507  0.00  0.00    +0.000 C 
BRANCH  15  19
ATOM     16  C   UNL     1       6.881   5.159  14.801  0.00  0.00    +0.000 A 
ATOM     17  N   UNL     1       5.790   5.948  14.859  0.00  0.00    +0.000 NA
ATOM     18  C   UNL     1       5.215   6.085  16.069  0.00  0.00    +0.000 A 
ATOM     19  C   UNL     1       5.682   5.475  17.214  0.00  0.00    +0.000 A 
ATOM     20  C   UNL     1       6.864   4.781  17.059  0.00  0.00    +0.000 A 
ATOM     21  N   UNL     1       7.479   4.602  15.872  0.00  0.00    +0.000 NA
BRANCH  16  23
ATOM     22  C   UNL     1       6.412   3.748  12.753  0.00  0.00    +0.000 C 
ATOM     23  C   UNL     1       7.346   4.727  13.438  0.00  0.00    +0.000 C 
ENDBRANCH  16  23
ENDBRANCH  15  19
ENDBRANCH   1  15
TORSDOF 4
ENDMDL
MODEL 4
REMARK VINA RESULT:      -8.2      1.154      1.526
REMARK  Name = 
REMARK  5 active torsions:
REMARK  status: ('A' for Active; 'I' for Inactive)
REMARK    1  A    between atoms: C_1  and  C_2
REMARK    2  A    between atoms: C_2  and  C_3
REMARK    3  A    between atoms: C_6  and  C_7
REMARK    4  A    between atoms: C_7  and  N_8
REMARK    5  A    between atoms: C_14  and  C_15
REMARK                            x       y       z     vdW  Elec       q    Type
REMARK                         _______ _______ _______ _____ _____    ______ ____
ROOT
ATOM      1  N   UNL     1       2.691   5.144  19.071  0.00  0.00    +0.000 NA
ATOM      2  C   UNL     1       1.668   4.240  18.543  0.00  0.00    +0.000 C 
ATOM      3  C   UNL     1       0.787   3.655  19.656  0.00  0.00    +0.000 C 
ATOM      4  C   UNL     1       1.384   2.455  20.370  0.00  0.00    +0.000 C 
ATOM      5  C   UNL     1       2.692   2.758  21.088  0.00  0.00    +0.000 C 
ATOM      6  C   UNL     1       3.829   3.051  20.116  0.00  0.00    +0.000 C 
ATOM      7  C   UNL     1       3.916   4.521  19.622  0.00  0.00    +0.000 C 
ENDROOT
BRANCH   7   8
ATOM      8  C   UNL     1       5.157   4.659  18.734  0.00  0.00    +0.000 A 
ATOM      9  C   UNL     1       5.221   4.095  17.448  0.00  0.00    +0.000 A 
ATOM     10  C   UNL     1       6.353   4.278  16.644  0.00  0.00    +0.000 A 
ATOM     11  C   UNL     1       7.426   5.032  17.109  0.00  0.00    +0.000 A 
ATOM     12  C   UNL     1       7.369   5.588  18.383  0.00  0.00    +0.000 A 
ATOM     13  F   UNL     1       8.399   6.320  18.829  0.00  0.00    +0.000 F 
ATOM     14  C   UNL     1       6.258   5.404  19.193  0.00  0.00    +0.000 A 
ENDBRANCH   7   8
BRANCH   1  15
ATOM     15  C   UNL     1       2.930   6.324  18.215  0.00  0.00    +0.000 C 
BRANCH  15  19
ATOM     16  C   UNL     1       0.791   9.666  19.614  0.00  0.00    +0.000 A 
ATOM     17  N   UNL     1       1.170   8.744  20.520  0.00  0.00    +0.000 NA
ATOM     18  C   UNL     1       1.901   7.713  20.052  0.00  0.00    +0.000 A 
ATOM     19  C   UNL     1       2.266   7.569  18.731  0.00  0.00    +0.000 A 
ATOM     20  C   UNL     1       1.918   8.626  17.916  0.00  0.00    +0.000 A 
ATOM     21  N   UNL     1       1.180   9.678  18.325  0.00  0.00    +0.000 NA
BRANCH  16  23
ATOM     22  C   UNL     1      -1.301  10.924  18.945  0.00  0.00    +0.000 C 
ATOM     23  C   UNL     1      -0.280  10.637  20.029  0.00  0.00    +0.000 C 
ENDBRANCH  16  23
ENDBRANCH  15  19
ENDBRANCH   1  15
TORSDOF 4
ENDMDL
MODEL 5
REMARK VINA RESULT:      -8.1      1.184      1.645
REMARK  Name = 
REMARK  5 active torsions:
REMARK  status: ('A' for Active; 'I' for Inactive)
REMARK    1  A    between atoms: C_1  and  C_2
REMARK    2  A    between atoms: C_2  and  C_3
REMARK    3  A    between atoms: C_6  and  C_7
REMARK    4  A    between atoms: C_7  and  N_8
REMARK    5  A    between atoms: C_14  and  C_15
REMARK                            x       y       z     vdW  Elec       q    Type
REMARK                         _______ _______ _______ _____ _____    ______ ____
ROOT
ATOM      1  N   UNL     1       3.056   4.904  18.366  0.00  0.00    +0.000 NA
ATOM      2  C   UNL     1       1.737   4.561  17.832  0.00  0.00    +0.000 C 
ATOM      3  C   UNL     1       0.934   3.682  18.802  0.00  0.00    +0.000 C 
ATOM      4  C   UNL     1       1.270   2.202  18.741  0.00  0.00    +0.000 C 
ATOM      5  C   UNL     1       2.715   1.887  19.103  0.00  0.00    +0.000 C 
ATOM      6  C   UNL     1       3.697   2.401  18.058  0.00  0.00    +0.000 C 
ATOM      7  C   UNL     1       4.122   3.886  18.221  0.00  0.00    +0.000 C 
ENDROOT
BRANCH   7   8
ATOM      8  C   UNL     1       5.172   4.209  17.153  0.00  0.00    +0.000 A 
ATOM      9  C   UNL     1       6.474   4.621  17.487  0.00  0.00    +0.000 A 
ATOM     10  C   UNL     1       7.424   4.866  16.487  0.00  0.00    +0.000 A 
ATOM     11  C   UNL     1       7.089   4.693  15.148  0.00  0.00    +0.000 A 
ATOM     12  C   UNL     1       5.801   4.290  14.812  0.00  0.00    +0.000 A 
ATOM     13  F   UNL     1       5.479   4.115  13.523  0.00  0.00    +0.000 F 
ATOM     14  C   UNL     1       4.848   4.055  15.793  0.00  0.00    +0.000 A 
ENDBRANCH   7   8
BRANCH   1  15
ATOM     15  C   UNL     1       3.475   6.285  18.053  0.00  0.00    +0.000 C 
BRANCH  15  19
ATOM     16  C   UNL     1       1.099   9.373  19.643  0.00  0.00    +0.000 A 
ATOM     17  N   UNL     1       1.340   9.390  18.317  0.00  0.00    +0.000 NA
ATOM     18  C   UNL     1       2.057   8.359  17.827  0.00  0.00    +0.000 A 
ATOM     19  C   UNL     1       2.536   7.322  18.599  0.00  0.00    +0.000 A 
ATOM     20  C   UNL     1       2.136   7.351  19.919  0.00  0.00    +0.000 A 
ATOM     21  N   UNL     1       1.429   8.360  20.467  0.00  0.00    +0.000 NA
BRANCH  16  23
ATOM     22  C   UNL     1      -0.332  10.426  21.445  0.00  0.00    +0.000 C 
ATOM     23  C   UNL     1       0.596  10.646  20.266  0.00  0.00    +0.000 C 
ENDBRANCH  16  23
ENDBRANCH  15  19
ENDBRANCH   1  15
TORSDOF 4
ENDMDL
MODEL 6
REMARK VINA RESULT:      -8.1      1.158      1.613
REMARK  Name = 
REMARK  5 active torsions:
REMARK  status: ('A' for Active; 'I' for Inactive)
REMARK    1  A    between atoms: C_1  and  C_2
REMARK    2  A    between atoms: C_2  and  C_3
REMARK    3  A    between atoms: C_6  and  C_7
REMARK    4  A    between atoms: C_7  and  N_8
REMARK    5  A    between atoms: C_14  and  C_15
REMARK                            x       y       z     vdW  Elec       q    Type
REMARK                         _______ _______ _______ _____ _____    ______ ____
ROOT
ATOM      1  N   UNL     1       2.820   5.207  18.727  0.00  0.00    +0.000 NA
ATOM      2  C   UNL     1       1.694   4.340  18.376  0.00  0.00    +0.000 C 
ATOM      3  C   UNL     1       1.071   3.678  19.613  0.00  0.00    +0.000 C 
ATOM      4  C   UNL     1       1.792   2.432  20.094  0.00  0.00    +0.000 C 
ATOM      5  C   UNL     1       3.231   2.686  20.526  0.00  0.00    +0.000 C 
ATOM      6  C   UNL     1       4.130   3.047  19.350  0.00  0.00    +0.000 C 
ATOM      7  C   UNL     1       4.128   4.548  18.951  0.00  0.00    +0.000 C 
ENDROOT
BRANCH   7   8
ATOM      8  C   UNL     1       5.146   4.749  17.823  0.00  0.00    +0.000 A 
ATOM      9  C   UNL     1       5.126   3.971  16.652  0.00  0.00    +0.000 A 
ATOM     10  C   UNL     1       6.043   4.210  15.621  0.00  0.00    +0.000 A 
ATOM     11  C   UNL     1       6.979   5.232  15.741  0.00  0.00    +0.000 A 
ATOM     12  C   UNL     1       7.006   6.002  16.900  0.00  0.00    +0.000 A 
ATOM     13  F   UNL     1       7.902   6.991  17.014  0.00  0.00    +0.000 F 
ATOM     14  C   UNL     1       6.110   5.767  17.933  0.00  0.00    +0.000 A 
ENDBRANCH   7   8
BRANCH   1  15
ATOM     15  C   UNL     1       2.882   6.444  17.921  0.00  0.00    +0.000 C 
BRANCH  15  19
ATOM     16  C   UNL     1       0.868   9.614  19.816  0.00  0.00    +0.000 A 
ATOM     17  N   UNL     1       1.317   8.608  20.591  0.00  0.00    +0.000 NA
ATOM     18  C   UNL     1       2.007   7.635  19.965  0.00  0.00    +0.000 A 
ATOM     19  C   UNL     1       2.265   7.626  18.611  0.00  0.00    +0.000 A 
ATOM     20  C   UNL     1       1.853   8.757  17.937  0.00  0.00    +0.000 A 
ATOM     21  N   UNL     1       1.152   9.757  18.508  0.00  0.00    +0.000 NA
BRANCH  16  23
ATOM     22  C   UNL     1      -0.356  10.352  21.905  0.00  0.00    +0.000 C 
ATOM     23  C   UNL     1      -0.165  10.531  20.412  0.00  0.00    +0.000 C 
ENDBRANCH  16  23
ENDBRANCH  15  19
ENDBRANCH   1  15
TORSDOF 4
ENDMDL
MODEL 7
REMARK VINA RESULT:      -8.0      0.333      1.036
REMARK  Name = 
REMARK  5 active torsions:
REMARK  status: ('A' for Active; 'I' for Inactive)
REMARK    1  A    between atoms: C_1  and  C_2
REMARK    2  A    between atoms: C_2  and  C_3
REMARK    3  A    between atoms: C_6  and  C_7
REMARK    4  A    between atoms: C_7  and  N_8
REMARK    5  A    between atoms: C_14  and  C_15
REMARK                            x       y       z     vdW  Elec       q    Type
REMARK                         _______ _______ _______ _____ _____    ______ ____
ROOT
ATOM      1  N   UNL     1       2.885   5.226  19.145  0.00  0.00    +0.000 NA
ATOM      2  C   UNL     1       1.729   4.446  18.699  0.00  0.00    +0.000 C 
ATOM      3  C   UNL     1       0.948   3.849  19.878  0.00  0.00    +0.000 C 
ATOM      4  C   UNL     1       1.523   2.556  20.427  0.00  0.00    +0.000 C 
ATOM      5  C   UNL     1       2.933   2.701  20.985  0.00  0.00    +0.000 C 
ATOM      6  C   UNL     1       3.959   2.977  19.893  0.00  0.00    +0.000 C 
ATOM      7  C   UNL     1       4.111   4.469  19.488  0.00  0.00    +0.000 C 
ENDROOT
BRANCH   7   8
ATOM      8  C   UNL     1       5.238   4.577  18.455  0.00  0.00    +0.000 A 
ATOM      9  C   UNL     1       6.467   5.192  18.754  0.00  0.00    +0.000 A 
ATOM     10  C   UNL     1       7.493   5.235  17.801  0.00  0.00    +0.000 A 
ATOM     11  C   UNL     1       7.308   4.659  16.549  0.00  0.00    +0.000 A 
ATOM     12  C   UNL     1       6.092   4.054  16.247  0.00  0.00    +0.000 A 
ATOM     13  F   UNL     1       5.916   3.492  15.044  0.00  0.00    +0.000 F 
ATOM     14  C   UNL     1       5.064   4.015  17.178  0.00  0.00    +0.000 A 
ENDBRANCH   7   8
BRANCH   1  15
ATOM     15  C   UNL     1       3.116   6.445  18.343  0.00  0.00    +0.000 C 
BRANCH  15  19
ATOM     16  C   UNL     1       0.974   9.846  19.585  0.00  0.00    +0.000 A 
ATOM     17  N   UNL     1       1.245   9.725  18.271  0.00  0.00    +0.000 NA
ATOM     18  C   UNL     1       1.883   8.599  17.895  0.00  0.00    +0.000 A 
ATOM     19  C   UNL     1       2.255   7.600  18.768  0.00  0.00    +0.000 A 
ATOM     20  C   UNL     1       1.830   7.780  20.068  0.00  0.00    +0.000 A 
ATOM     21  N   UNL     1       1.198   8.888  20.504  0.00  0.00    +0.000 NA
BRANCH  16  23
ATOM     22  C   UNL     1      -0.849  11.599  19.698  0.00  0.00    +0.000 C 
ATOM     23  C   UNL     1       0.565  11.207  20.079  0.00  0.00    +0.000 C 
ENDBRANCH  16  23
ENDBRANCH  15  19
ENDBRANCH   1  15
TORSDOF 4
ENDMDL
MODEL 8
REMARK VINA RESULT:      -8.0      2.703      6.231
REMARK  Name = 
REMARK  5 active torsions:
REMARK  status: ('A' for Active; 'I' for Inactive)
REMARK    1  A    between atoms: C_1  and  C_2
REMARK    2  A    between atoms: C_2  and  C_3
REMARK    3  A    between atoms: C_6  and  C_7
REMARK    4  A    between atoms: C_7  and  N_8
REMARK    5  A    between atoms: C_14  and  C_15
REMARK                            x       y       z     vdW  Elec       q    Type
REMARK                         _______ _______ _______ _____ _____    ______ ____
ROOT
ATOM      1  N   UNL     1       3.846   4.414  18.595  0.00  0.00    +0.000 NA
ATOM      2  C   UNL     1       4.097   3.472  19.687  0.00  0.00    +0.000 C 
ATOM      3  C   UNL     1       3.774   2.026  19.286  0.00  0.00    +0.000 C 
ATOM      4  C   UNL     1       2.306   1.653  19.391  0.00  0.00    +0.000 C 
ATOM      5  C   UNL     1       1.399   2.474  18.483  0.00  0.00    +0.000 C 
ATOM      6  C   UNL     1       1.311   3.930  18.922  0.00  0.00    +0.000 C 
ATOM      7  C   UNL     1       2.445   4.851  18.396  0.00  0.00    +0.000 C 
ENDROOT
BRANCH   7   8
ATOM      8  C   UNL     1       2.154   6.285  18.851  0.00  0.00    +0.000 A 
ATOM      9  C   UNL     1       1.895   6.603  20.196  0.00  0.00    +0.000 A 
ATOM     10  C   UNL     1       1.676   7.930  20.586  0.00  0.00    +0.000 A 
ATOM     11  C   UNL     1       1.724   8.953  19.644  0.00  0.00    +0.000 A 
ATOM     12  C   UNL     1       1.975   8.643  18.311  0.00  0.00    +0.000 A 
ATOM     13  F   UNL     1       2.029   9.627  17.404  0.00  0.00    +0.000 F 
ATOM     14  C   UNL     1       2.182   7.330  17.910  0.00  0.00    +0.000 A 
ENDBRANCH   7   8
BRANCH   1  15
ATOM     15  C   UNL     1       4.849   5.495  18.511  0.00  0.00    +0.000 C 
BRANCH  15  19
ATOM     16  C   UNL     1       6.861   5.185  14.829  0.00  0.00    +0.000 A 
ATOM     17  N   UNL     1       5.787   5.996  14.887  0.00  0.00    +0.000 NA
ATOM     18  C   UNL     1       5.196   6.119  16.091  0.00  0.00    +0.000 A 
ATOM     19  C   UNL     1       5.631   5.473  17.229  0.00  0.00    +0.000 A 
ATOM     20  C   UNL     1       6.801   4.758  17.076  0.00  0.00    +0.000 A 
ATOM     21  N   UNL     1       7.430   4.592  15.896  0.00  0.00    +0.000 NA
BRANCH  16  23
ATOM     22  C   UNL     1       6.442   3.759  12.780  0.00  0.00    +0.000 C 
ATOM     23  C   UNL     1       7.338   4.773  13.463  0.00  0.00    +0.000 C 
ENDBRANCH  16  23
ENDBRANCH  15  19
ENDBRANCH   1  15
TORSDOF 4
ENDMDL
MODEL 9
REMARK VINA RESULT:      -7.8      1.303      1.942
REMARK  Name = 
REMARK  5 active torsions:
REMARK  status: ('A' for Active; 'I' for Inactive)
REMARK    1  A    between atoms: C_1  and  C_2
REMARK    2  A    between atoms: C_2  and  C_3
REMARK    3  A    between atoms: C_6  and  C_7
REMARK    4  A    between atoms: C_7  and  N_8
REMARK    5  A    between atoms: C_14  and  C_15
REMARK                            x       y       z     vdW  Elec       q    Type
REMARK                         _______ _______ _______ _____ _____    ______ ____
ROOT
ATOM      1  N   UNL     1       2.786   5.215  19.035  0.00  0.00    +0.000 NA
ATOM      2  C   UNL     1       1.769   4.342  18.447  0.00  0.00    +0.000 C 
ATOM      3  C   UNL     1       0.882   3.690  19.517  0.00  0.00    +0.000 C 
ATOM      4  C   UNL     1       1.477   2.451  20.162  0.00  0.00    +0.000 C 
ATOM      5  C   UNL     1       2.780   2.713  20.906  0.00  0.00    +0.000 C 
ATOM      6  C   UNL     1       3.922   3.065  19.961  0.00  0.00    +0.000 C 
ATOM      7  C   UNL     1       4.009   4.562  19.556  0.00  0.00    +0.000 C 
ENDROOT
BRANCH   7   8
ATOM      8  C   UNL     1       5.256   4.756  18.686  0.00  0.00    +0.000 A 
ATOM      9  C   UNL     1       5.354   4.215  17.391  0.00  0.00    +0.000 A 
ATOM     10  C   UNL     1       6.489   4.448  16.605  0.00  0.00    +0.000 A 
ATOM     11  C   UNL     1       7.531   5.228  17.095  0.00  0.00    +0.000 A 
ATOM     12  C   UNL     1       7.441   5.761  18.377  0.00  0.00    +0.000 A 
ATOM     13  F   UNL     1       8.440   6.519  18.848  0.00  0.00    +0.000 F 
ATOM     14  C   UNL     1       6.326   5.528  19.170  0.00  0.00    +0.000 A 
ENDBRANCH   7   8
BRANCH   1  15
ATOM     15  C   UNL     1       3.028   6.444  18.252  0.00  0.00    +0.000 C 
BRANCH  15  19
ATOM     16  C   UNL     1       0.990   9.863  19.615  0.00  0.00    +0.000 A 
ATOM     17  N   UNL     1       1.268   9.785  18.299  0.00  0.00    +0.000 NA
ATOM     18  C   UNL     1       1.871   8.655  17.882  0.00  0.00    +0.000 A 
ATOM     19  C   UNL     1       2.203   7.609  18.717  0.00  0.00    +0.000 A 
ATOM     20  C   UNL     1       1.774   7.751  20.021  0.00  0.00    +0.000 A 
ATOM     21  N   UNL     1       1.175   8.862  20.497  0.00  0.00    +0.000 NA
BRANCH  16  23
ATOM     22  C   UNL     1      -0.215  11.161  21.423  0.00  0.00    +0.000 C 
ATOM     23  C   UNL     1       0.624  11.216  20.161  0.00  0.00    +0.000 C 
ENDBRANCH  16  23
ENDBRANCH  15  19
ENDBRANCH   1  15
TORSDOF 4
ENDMDL
