MODEL 1
REMARK VINA RESULT:      -8.3      0.000      0.000
REMARK  Name = 
REMARK  8 active torsions:
REMARK  status: ('A' for Active; 'I' for Inactive)
REMARK    1  A    between atoms: C_1  and  O_2
REMARK    2  A    between atoms: O_2  and  C_3
REMARK    3  A    between atoms: C_6  and  C_7
REMARK    4  A    between atoms: C_7  and  C_8
REMARK    5  A    between atoms: C_8  and  N_9
REMARK    6  A    between atoms: C_12  and  C_13
REMARK    7  A    between atoms: C_26  and  O_27
REMARK    8  A    between atoms: O_27  and  C_28
REMARK                            x       y       z     vdW  Elec       q    Type
REMARK                         _______ _______ _______ _____ _____    ______ ____
ROOT
ATOM      1  N   UNL     1       7.802   7.180  16.680  0.00  0.00    +0.000 N 
ATOM      2  C   UNL     1       6.963   6.119  16.747  0.00  0.00    +0.000 A 
ATOM      3  N   UNL     1       5.949   5.987  17.573  0.00  0.00    +0.000 NA
ATOM      4  C   UNL     1       5.322   4.765  17.381  0.00  0.00    +0.000 A 
ATOM      5  C   UNL     1       5.882   3.976  16.396  0.00  0.00    +0.000 A 
ATOM      6  S   UNL     1       7.208   4.786  15.681  0.00  0.00    +0.000 S 
ATOM      7  H   UNL     1       8.637   7.022  16.126  0.00  0.00    +0.000 HD
ENDROOT
BRANCH   4   8
ATOM      8  C   UNL     1       4.122   4.388  18.123  0.00  0.00    +0.000 A 
ATOM      9  C   UNL     1       2.836   4.838  17.710  0.00  0.00    +0.000 A 
ATOM     10  C   UNL     1       1.683   4.564  18.458  0.00  0.00    +0.000 A 
ATOM     11  C   UNL     1       1.856   3.837  19.608  0.00  0.00    +0.000 A 
ATOM     12  N   UNL     1       0.926   3.448  20.562  0.00  0.00    +0.000 N 
ATOM     13  C   UNL     1       1.582   2.739  21.576  0.00  0.00    +0.000 A 
ATOM     14  O   UNL     1       1.081   2.261  22.574  0.00  0.00    +0.000 OA
ATOM     15  N   UNL     1       2.938   2.685  21.211  0.00  0.00    +0.000 N 
ATOM     16  C   UNL     1       3.106   3.368  20.009  0.00  0.00    +0.000 A 
ATOM     17  C   UNL     1       4.252   3.613  19.288  0.00  0.00    +0.000 A 
ATOM     18  H   UNL     1      -0.061   3.641  20.571  0.00  0.00    +0.000 HD
ATOM     19  H   UNL     1       3.653   2.242  21.765  0.00  0.00    +0.000 HD
ENDBRANCH   4   8
BRANCH   1  20
ATOM     20  C   UNL     1       8.024   7.948  17.899  0.00  0.00    +0.000 C 
BRANCH  20  21
ATOM     21  C   UNL     1       7.415   9.349  17.756  0.00  0.00    +0.000 C 
BRANCH  21  25
ATOM     22  C   UNL     1      10.264  12.415  18.858  0.00  0.00    +0.000 A 
ATOM     23  C   UNL     1      10.429  11.089  19.292  0.00  0.00    +0.000 A 
ATOM     24  C   UNL     1       9.507  10.098  18.950  0.00  0.00    +0.000 A 
ATOM     25  C   UNL     1       8.375  10.422  18.205  0.00  0.00    +0.000 A 
ATOM     26  C   UNL     1       8.169  11.758  17.843  0.00  0.00    +0.000 A 
ATOM     27  C   UNL     1       9.096  12.765  18.163  0.00  0.00    +0.000 A 
BRANCH  22  29
ATOM     28  C   UNL     1      12.043  13.743  18.028  0.00  0.00    +0.000 C 
ATOM     29  O   UNL     1      11.209  13.371  19.124  0.00  0.00    +0.000 OA
ENDBRANCH  22  29
BRANCH  27  30
ATOM     30  O   UNL     1       8.697  13.990  17.698  0.00  0.00    +0.000 OA
ATOM     31  C   UNL     1       8.050  14.891  18.582  0.00  0.00    +0.000 C 
ENDBRANCH  27  30
ENDBRANCH  21  25
ENDBRANCH  20  21
ENDBRANCH   1  20
TORSDOF 6
ENDMDL
MODEL 2
REMARK VINA RESULT:      -8.3      1.198      1.736
REMARK  Name = 
REMARK  8 active torsions:
REMARK  status: ('A' for Active; 'I' for Inactive)
REMARK    1  A    between atoms: C_1  and  O_2
REMARK    2  A    between atoms: O_2  and  C_3
REMARK    3  A    between atoms: C_6  and  C_7
REMARK    4  A    between atoms: C_7  and  C_8
REMARK    5  A    between atoms: C_8  and  N_9
REMARK    6  A    between atoms: C_12  and  C_13
REMARK    7  A    between atoms: C_26  and  O_27
REMARK    8  A    between atoms: O_27  and  C_28
REMARK                            x       y       z     vdW  Elec       q    Type
REMARK                         _______ _______ _______ _____ _____    ______ ____
ROOT
ATOM      1  N   UNL     1       7.445   7.627  16.812  0.00  0.00    +0.000 N 
ATOM      2  C   UNL     1       6.777   6.457  16.958  0.00  0.00    +0.000 A 
ATOM      3  N   UNL     1       5.696   6.271  17.681  0.00  0.00    +0.000 NA
ATOM      4  C   UNL     1       5.295   4.944  17.621  0.00  0.00    +0.000 A 
ATOM      5  C   UNL     1       6.095   4.133  16.840  0.00  0.00    +0.000 A 
ATOM      6  S   UNL     1       7.364   5.051  16.151  0.00  0.00    +0.000 S 
ATOM      7  H   UNL     1       8.360   7.539  16.383  0.00  0.00    +0.000 HD
ENDROOT
BRANCH   4   8
ATOM      8  C   UNL     1       4.080   4.474  18.280  0.00  0.00    +0.000 A 
ATOM      9  C   UNL     1       2.796   4.760  17.737  0.00  0.00    +0.000 A 
ATOM     10  C   UNL     1       1.616   4.397  18.400  0.00  0.00    +0.000 A 
ATOM     11  C   UNL     1       1.762   3.749  19.601  0.00  0.00    +0.000 A 
ATOM     12  N   UNL     1       0.796   3.307  20.494  0.00  0.00    +0.000 N 
ATOM     13  C   UNL     1       1.431   2.723  21.598  0.00  0.00    +0.000 A 
ATOM     14  O   UNL     1       0.896   2.241  22.577  0.00  0.00    +0.000 OA
ATOM     15  N   UNL     1       2.812   2.801  21.351  0.00  0.00    +0.000 N 
ATOM     16  C   UNL     1       3.013   3.439  20.130  0.00  0.00    +0.000 A 
ATOM     17  C   UNL     1       4.187   3.773  19.494  0.00  0.00    +0.000 A 
ATOM     18  H   UNL     1      -0.203   3.391  20.410  0.00  0.00    +0.000 HD
ATOM     19  H   UNL     1       3.517   2.465  21.986  0.00  0.00    +0.000 HD
ENDBRANCH   4   8
BRANCH   1  20
ATOM     20  C   UNL     1       7.383   8.585  17.909  0.00  0.00    +0.000 C 
BRANCH  20  21
ATOM     21  C   UNL     1       8.737   8.646  18.629  0.00  0.00    +0.000 C 
BRANCH  21  25
ATOM     22  C   UNL     1       9.835  12.788  19.239  0.00  0.00    +0.000 A 
ATOM     23  C   UNL     1       9.929  12.198  17.968  0.00  0.00    +0.000 A 
ATOM     24  C   UNL     1       9.589  10.859  17.767  0.00  0.00    +0.000 A 
ATOM     25  C   UNL     1       9.190  10.069  18.843  0.00  0.00    +0.000 A 
ATOM     26  C   UNL     1       9.175  10.635  20.124  0.00  0.00    +0.000 A 
ATOM     27  C   UNL     1       9.498  11.986  20.340  0.00  0.00    +0.000 A 
BRANCH  22  29
ATOM     28  C   UNL     1       8.990  15.002  19.205  0.00  0.00    +0.000 C 
ATOM     29  O   UNL     1      10.092  14.121  19.423  0.00  0.00    +0.000 OA
ENDBRANCH  22  29
BRANCH  27  30
ATOM     30  O   UNL     1       9.402  12.325  21.664  0.00  0.00    +0.000 OA
ATOM     31  C   UNL     1       8.453  11.662  22.483  0.00  0.00    +0.000 C 
ENDBRANCH  27  30
ENDBRANCH  21  25
ENDBRANCH  20  21
ENDBRANCH   1  20
TORSDOF 6
ENDMDL
MODEL 3
REMARK VINA RESULT:      -8.1      6.058      8.686
REMARK  Name = 
REMARK  8 active torsions:
REMARK  status: ('A' for Active; 'I' for Inactive)
REMARK    1  A    between atoms: C_1  and  O_2
REMARK    2  A    between atoms: O_2  and  C_3
REMARK    3  A    between atoms: C_6  and  C_7
REMARK    4  A    between atoms: C_7  and  C_8
REMARK    5  A    between atoms: C_8  and  N_9
REMARK    6  A    between atoms: C_12  and  C_13
REMARK    7  A    between atoms: C_26  and  O_27
REMARK    8  A    between atoms: O_27  and  C_28
REMARK                            x       y       z     vdW  Elec       q    Type
REMARK                         _______ _______ _______ _____ _____    ______ ____
ROOT
ATOM      1  N   UNL     1       1.434   6.541  21.191  0.00  0.00    +0.000 N 
ATOM      2  C   UNL     1       2.087   5.671  20.384  0.00  0.00    +0.000 A 
ATOM      3  N   UNL     1       3.092   5.961  19.588  0.00  0.00    +0.000 NA
ATOM      4  C   UNL     1       3.500   4.833  18.891  0.00  0.00    +0.000 A 
ATOM      5  C   UNL     1       2.784   3.687  19.175  0.00  0.00    +0.000 A 
ATOM      6  S   UNL     1       1.587   4.021  20.351  0.00  0.00    +0.000 S 
ATOM      7  H   UNL     1       0.566   6.186  21.579  0.00  0.00    +0.000 HD
ENDROOT
BRANCH   4   8
ATOM      8  C   UNL     1       4.645   4.858  17.985  0.00  0.00    +0.000 A 
ATOM      9  C   UNL     1       5.937   5.233  18.450  0.00  0.00    +0.000 A 
ATOM     10  C   UNL     1       7.029   5.351  17.580  0.00  0.00    +0.000 A 
ATOM     11  C   UNL     1       6.790   5.085  16.256  0.00  0.00    +0.000 A 
ATOM     12  N   UNL     1       7.647   5.154  15.167  0.00  0.00    +0.000 N 
ATOM     13  C   UNL     1       6.939   4.813  14.008  0.00  0.00    +0.000 A 
ATOM     14  O   UNL     1       7.371   4.779  12.872  0.00  0.00    +0.000 OA
ATOM     15  N   UNL     1       5.629   4.514  14.414  0.00  0.00    +0.000 N 
ATOM     16  C   UNL     1       5.536   4.691  15.792  0.00  0.00    +0.000 A 
ATOM     17  C   UNL     1       4.450   4.556  16.627  0.00  0.00    +0.000 A 
ATOM     18  H   UNL     1       8.617   5.420  15.165  0.00  0.00    +0.000 HD
ATOM     19  H   UNL     1       4.891   4.246  13.784  0.00  0.00    +0.000 HD
ENDBRANCH   4   8
BRANCH   1  20
ATOM     20  C   UNL     1       1.383   7.939  20.782  0.00  0.00    +0.000 C 
BRANCH  20  21
ATOM     21  C   UNL     1       1.345   8.848  22.018  0.00  0.00    +0.000 C 
BRANCH  21  25
ATOM     22  C   UNL     1      -1.574  12.028  21.700  0.00  0.00    +0.000 A 
ATOM     23  C   UNL     1      -1.421  11.309  22.897  0.00  0.00    +0.000 A 
ATOM     24  C   UNL     1      -0.490  10.274  23.002  0.00  0.00    +0.000 A 
ATOM     25  C   UNL     1       0.276   9.906  21.897  0.00  0.00    +0.000 A 
ATOM     26  C   UNL     1       0.064  10.568  20.682  0.00  0.00    +0.000 A 
ATOM     27  C   UNL     1      -0.856  11.623  20.565  0.00  0.00    +0.000 A 
BRANCH  22  29
ATOM     28  C   UNL     1      -3.808  12.774  21.435  0.00  0.00    +0.000 C 
ATOM     29  O   UNL     1      -2.430  13.095  21.619  0.00  0.00    +0.000 OA
ENDBRANCH  22  29
BRANCH  27  30
ATOM     30  O   UNL     1      -0.887  12.131  19.292  0.00  0.00    +0.000 OA
ATOM     31  C   UNL     1      -1.858  11.651  18.377  0.00  0.00    +0.000 C 
ENDBRANCH  27  30
ENDBRANCH  21  25
ENDBRANCH  20  21
ENDBRANCH   1  20
TORSDOF 6
ENDMDL
MODEL 4
REMARK VINA RESULT:      -8.1      0.939      1.148
REMARK  Name = 
REMARK  8 active torsions:
REMARK  status: ('A' for Active; 'I' for Inactive)
REMARK    1  A    between atoms: C_1  and  O_2
REMARK    2  A    between atoms: O_2  and  C_3
REMARK    3  A    between atoms: C_6  and  C_7
REMARK    4  A    between atoms: C_7  and  C_8
REMARK    5  A    between atoms: C_8  and  N_9
REMARK    6  A    between atoms: C_12  and  C_13
REMARK    7  A    between atoms: C_26  and  O_27
REMARK    8  A    between atoms: O_27  and  C_28
REMARK                            x       y       z     vdW  Elec       q    Type
REMARK                         _______ _______ _______ _____ _____    ______ ____
ROOT
ATOM      1  N   UNL     1       7.795   7.308  16.767  0.00  0.00    +0.000 N 
ATOM      2  C   UNL     1       7.015   6.213  16.936  0.00  0.00    +0.000 A 
ATOM      3  N   UNL     1       5.948   6.136  17.699  0.00  0.00    +0.000 NA
ATOM      4  C   UNL     1       5.408   4.859  17.650  0.00  0.00    +0.000 A 
ATOM      5  C   UNL     1       6.089   3.974  16.837  0.00  0.00    +0.000 A 
ATOM      6  S   UNL     1       7.420   4.759  16.103  0.00  0.00    +0.000 S 
ATOM      7  H   UNL     1       8.680   7.128  16.304  0.00  0.00    +0.000 HD
ENDROOT
BRANCH   4   8
ATOM      8  C   UNL     1       4.176   4.514  18.354  0.00  0.00    +0.000 A 
ATOM      9  C   UNL     1       2.934   5.102  17.984  0.00  0.00    +0.000 A 
ATOM     10  C   UNL     1       1.757   4.855  18.703  0.00  0.00    +0.000 A 
ATOM     11  C   UNL     1       1.862   4.014  19.782  0.00  0.00    +0.000 A 
ATOM     12  N   UNL     1       0.896   3.616  20.696  0.00  0.00    +0.000 N 
ATOM     13  C   UNL     1       1.486   2.767  21.640  0.00  0.00    +0.000 A 
ATOM     14  O   UNL     1       0.940   2.241  22.590  0.00  0.00    +0.000 OA
ATOM     15  N   UNL     1       2.835   2.637  21.272  0.00  0.00    +0.000 N 
ATOM     16  C   UNL     1       3.067   3.411  20.138  0.00  0.00    +0.000 A 
ATOM     17  C   UNL     1       4.234   3.627  19.442  0.00  0.00    +0.000 A 
ATOM     18  H   UNL     1      -0.072   3.887  20.723  0.00  0.00    +0.000 HD
ATOM     19  H   UNL     1       3.508   2.088  21.783  0.00  0.00    +0.000 HD
ENDBRANCH   4   8
BRANCH   1  20
ATOM     20  C   UNL     1       7.876   8.259  17.869  0.00  0.00    +0.000 C 
BRANCH  20  21
ATOM     21  C   UNL     1       7.978   9.690  17.323  0.00  0.00    +0.000 C 
BRANCH  21  25
ATOM     22  C   UNL     1      10.060  12.327  20.050  0.00  0.00    +0.000 A 
ATOM     23  C   UNL     1       9.818  10.986  20.390  0.00  0.00    +0.000 A 
ATOM     24  C   UNL     1       9.136  10.133  19.520  0.00  0.00    +0.000 A 
ATOM     25  C   UNL     1       8.642  10.616  18.310  0.00  0.00    +0.000 A 
ATOM     26  C   UNL     1       8.812  11.973  18.009  0.00  0.00    +0.000 A 
ATOM     27  C   UNL     1       9.511  12.840  18.865  0.00  0.00    +0.000 A 
BRANCH  22  29
ATOM     28  C   UNL     1      10.051  14.020  21.708  0.00  0.00    +0.000 C 
ATOM     29  O   UNL     1      10.798  13.143  20.867  0.00  0.00    +0.000 OA
ENDBRANCH  22  29
BRANCH  27  30
ATOM     30  O   UNL     1       9.567  14.114  18.364  0.00  0.00    +0.000 OA
ATOM     31  C   UNL     1      10.660  14.489  17.542  0.00  0.00    +0.000 C 
ENDBRANCH  27  30
ENDBRANCH  21  25
ENDBRANCH  20  21
ENDBRANCH   1  20
TORSDOF 6
ENDMDL
MODEL 5
REMARK VINA RESULT:      -8.1      6.893      9.816
REMARK  Name = 
REMARK  8 active torsions:
REMARK  status: ('A' for Active; 'I' for Inactive)
REMARK    1  A    between atoms: C_1  and  O_2
REMARK    2  A    between atoms: O_2  and  C_3
REMARK    3  A    between atoms: C_6  and  C_7
REMARK    4  A    between atoms: C_7  and  C_8
REMARK    5  A    between atoms: C_8  and  N_9
REMARK    6  A    between atoms: C_12  and  C_13
REMARK    7  A    between atoms: C_26  and  O_27
REMARK    8  A    between atoms: O_27  and  C_28
REMARK                            x       y       z     vdW  Elec       q    Type
REMARK                         _______ _______ _______ _____ _____    ______ ____
ROOT
ATOM      1  N   UNL     1       0.879   9.880  19.742  0.00  0.00    +0.000 N 
ATOM      2  C   UNL     1       1.462   8.657  19.703  0.00  0.00    +0.000 A 
ATOM      3  N   UNL     1       2.099   8.139  18.677  0.00  0.00    +0.000 NA
ATOM      4  C   UNL     1       2.549   6.862  18.980  0.00  0.00    +0.000 A 
ATOM      5  C   UNL     1       2.237   6.427  20.253  0.00  0.00    +0.000 A 
ATOM      6  S   UNL     1       1.382   7.645  21.096  0.00  0.00    +0.000 S 
ATOM      7  H   UNL     1       0.268  10.029  20.538  0.00  0.00    +0.000 HD
ENDROOT
BRANCH   4   8
ATOM      8  C   UNL     1       3.347   6.081  18.039  0.00  0.00    +0.000 A 
ATOM      9  C   UNL     1       3.188   4.670  17.941  0.00  0.00    +0.000 A 
ATOM     10  C   UNL     1       4.006   3.891  17.112  0.00  0.00    +0.000 A 
ATOM     11  C   UNL     1       4.968   4.559  16.397  0.00  0.00    +0.000 A 
ATOM     12  N   UNL     1       5.938   4.064  15.535  0.00  0.00    +0.000 N 
ATOM     13  C   UNL     1       6.711   5.131  15.060  0.00  0.00    +0.000 A 
ATOM     14  O   UNL     1       7.654   5.066  14.297  0.00  0.00    +0.000 OA
ATOM     15  N   UNL     1       6.179   6.297  15.636  0.00  0.00    +0.000 N 
ATOM     16  C   UNL     1       5.116   5.943  16.464  0.00  0.00    +0.000 A 
ATOM     17  C   UNL     1       4.319   6.732  17.260  0.00  0.00    +0.000 A 
ATOM     18  H   UNL     1       6.105   3.105  15.285  0.00  0.00    +0.000 HD
ATOM     19  H   UNL     1       6.546   7.221  15.479  0.00  0.00    +0.000 HD
ENDBRANCH   4   8
BRANCH   1  20
ATOM     20  C   UNL     1       0.382  10.435  18.489  0.00  0.00    +0.000 C 
BRANCH  20  21
ATOM     21  C   UNL     1      -0.266  11.803  18.741  0.00  0.00    +0.000 C 
BRANCH  21  25
ATOM     22  C   UNL     1      -4.545  11.850  18.087  0.00  0.00    +0.000 A 
ATOM     23  C   UNL     1      -4.004  12.180  19.341  0.00  0.00    +0.000 A 
ATOM     24  C   UNL     1      -2.626  12.155  19.562  0.00  0.00    +0.000 A 
ATOM     25  C   UNL     1      -1.761  11.754  18.545  0.00  0.00    +0.000 A 
ATOM     26  C   UNL     1      -2.306  11.347  17.322  0.00  0.00    +0.000 A 
ATOM     27  C   UNL     1      -3.689  11.383  17.078  0.00  0.00    +0.000 A 
BRANCH  22  29
ATOM     28  C   UNL     1      -6.692  10.881  18.341  0.00  0.00    +0.000 C 
ATOM     29  O   UNL     1      -5.889  11.952  17.846  0.00  0.00    +0.000 OA
ENDBRANCH  22  29
BRANCH  27  30
ATOM     30  O   UNL     1      -3.993  10.955  15.813  0.00  0.00    +0.000 OA
ATOM     31  C   UNL     1      -2.993  10.316  15.037  0.00  0.00    +0.000 C 
ENDBRANCH  27  30
ENDBRANCH  21  25
ENDBRANCH  20  21
ENDBRANCH   1  20
TORSDOF 6
ENDMDL
MODEL 6
REMARK VINA RESULT:      -8.0      7.292     10.522
REMARK  Name = 
REMARK  8 active torsions:
REMARK  status: ('A' for Active; 'I' for Inactive)
REMARK    1  A    between atoms: C_1  and  O_2
REMARK    2  A    between atoms: O_2  and  C_3
REMARK    3  A    between atoms: C_6  and  C_7
REMARK    4  A    between atoms: C_7  and  C_8
REMARK    5  A    between atoms: C_8  and  N_9
REMARK    6  A    between atoms: C_12  and  C_13
REMARK    7  A    between atoms: C_26  and  O_27
REMARK    8  A    between atoms: O_27  and  C_28
REMARK                            x       y       z     vdW  Elec       q    Type
REMARK                         _______ _______ _______ _____ _____    ______ ____
ROOT
ATOM      1  N   UNL     1       2.291  10.352  17.932  0.00  0.00    +0.000 N 
ATOM      2  C   UNL     1       1.550  11.260  18.611  0.00  0.00    +0.000 A 
ATOM      3  N   UNL     1       0.687  10.992  19.566  0.00  0.00    +0.000 NA
ATOM      4  C   UNL     1       0.092  12.159  20.023  0.00  0.00    +0.000 A 
ATOM      5  C   UNL     1       0.521  13.311  19.394  0.00  0.00    +0.000 A 
ATOM      6  S   UNL     1       1.706  12.931  18.221  0.00  0.00    +0.000 S 
ATOM      7  H   UNL     1       2.749  10.717  17.103  0.00  0.00    +0.000 HD
ENDROOT
BRANCH   4   8
ATOM      8  C   UNL     1      -0.860  12.158  21.130  0.00  0.00    +0.000 A 
ATOM      9  C   UNL     1      -0.645  11.343  22.277  0.00  0.00    +0.000 A 
ATOM     10  C   UNL     1      -1.589  11.258  23.309  0.00  0.00    +0.000 A 
ATOM     11  C   UNL     1      -2.731  12.004  23.159  0.00  0.00    +0.000 A 
ATOM     12  N   UNL     1      -3.847  12.095  23.980  0.00  0.00    +0.000 N 
ATOM     13  C   UNL     1      -4.772  12.969  23.395  0.00  0.00    +0.000 A 
ATOM     14  O   UNL     1      -5.864  13.274  23.832  0.00  0.00    +0.000 OA
ATOM     15  N   UNL     1      -4.188  13.427  22.203  0.00  0.00    +0.000 N 
ATOM     16  C   UNL     1      -2.941  12.827  22.054  0.00  0.00    +0.000 A 
ATOM     17  C   UNL     1      -2.025  12.937  21.033  0.00  0.00    +0.000 A 
ATOM     18  H   UNL     1      -4.011  11.614  24.848  0.00  0.00    +0.000 HD
ATOM     19  H   UNL     1      -4.637  14.065  21.565  0.00  0.00    +0.000 HD
ENDBRANCH   4   8
BRANCH   1  20
ATOM     20  C   UNL     1       1.744   9.010  17.775  0.00  0.00    +0.000 C 
BRANCH  20  21
ATOM     21  C   UNL     1       2.876   7.973  17.805  0.00  0.00    +0.000 C 
BRANCH  21  25
ATOM     22  C   UNL     1       1.505   4.427  19.873  0.00  0.00    +0.000 A 
ATOM     23  C   UNL     1       1.794   5.606  20.580  0.00  0.00    +0.000 A 
ATOM     24  C   UNL     1       2.249   6.749  19.921  0.00  0.00    +0.000 A 
ATOM     25  C   UNL     1       2.467   6.724  18.544  0.00  0.00    +0.000 A 
ATOM     26  C   UNL     1       2.257   5.525  17.853  0.00  0.00    +0.000 A 
ATOM     27  C   UNL     1       1.782   4.371  18.499  0.00  0.00    +0.000 A 
BRANCH  22  29
ATOM     28  C   UNL     1       1.665   2.913  21.689  0.00  0.00    +0.000 C 
ATOM     29  O   UNL     1       0.983   3.330  20.507  0.00  0.00    +0.000 OA
ENDBRANCH  22  29
BRANCH  27  30
ATOM     30  O   UNL     1       1.637   3.324  17.627  0.00  0.00    +0.000 OA
ATOM     31  C   UNL     1       2.611   2.293  17.612  0.00  0.00    +0.000 C 
ENDBRANCH  27  30
ENDBRANCH  21  25
ENDBRANCH  20  21
ENDBRANCH   1  20
TORSDOF 6
ENDMDL
MODEL 7
REMARK VINA RESULT:      -8.0      5.693      8.209
REMARK  Name = 
REMARK  8 active torsions:
REMARK  status: ('A' for Active; 'I' for Inactive)
REMARK    1  A    between atoms: C_1  and  O_2
REMARK    2  A    between atoms: O_2  and  C_3
REMARK    3  A    between atoms: C_6  and  C_7
REMARK    4  A    between atoms: C_7  and  C_8
REMARK    5  A    between atoms: C_8  and  N_9
REMARK    6  A    between atoms: C_12  and  C_13
REMARK    7  A    between atoms: C_26  and  O_27
REMARK    8  A    between atoms: O_27  and  C_28
REMARK                            x       y       z     vdW  Elec       q    Type
REMARK                         _______ _______ _______ _____ _____    ______ ____
ROOT
ATOM      1  N   UNL     1       1.513   6.767  21.159  0.00  0.00    +0.000 N 
ATOM      2  C   UNL     1       2.117   5.916  20.294  0.00  0.00    +0.000 A 
ATOM      3  N   UNL     1       3.110   6.212  19.487  0.00  0.00    +0.000 NA
ATOM      4  C   UNL     1       3.464   5.107  18.727  0.00  0.00    +0.000 A 
ATOM      5  C   UNL     1       2.719   3.971  18.977  0.00  0.00    +0.000 A 
ATOM      6  S   UNL     1       1.563   4.286  20.198  0.00  0.00    +0.000 S 
ATOM      7  H   UNL     1       0.643   6.421  21.552  0.00  0.00    +0.000 HD
ENDROOT
BRANCH   4   8
ATOM      8  C   UNL     1       4.586   5.139  17.793  0.00  0.00    +0.000 A 
ATOM      9  C   UNL     1       5.788   5.829  18.118  0.00  0.00    +0.000 A 
ATOM     10  C   UNL     1       6.841   5.950  17.201  0.00  0.00    +0.000 A 
ATOM     11  C   UNL     1       6.655   5.365  15.974  0.00  0.00    +0.000 A 
ATOM     12  N   UNL     1       7.487   5.349  14.863  0.00  0.00    +0.000 N 
ATOM     13  C   UNL     1       6.854   4.645  13.831  0.00  0.00    +0.000 A 
ATOM     14  O   UNL     1       7.286   4.445  12.713  0.00  0.00    +0.000 OA
ATOM     15  N   UNL     1       5.620   4.213  14.342  0.00  0.00    +0.000 N 
ATOM     16  C   UNL     1       5.494   4.664  15.653  0.00  0.00    +0.000 A 
ATOM     17  C   UNL     1       4.451   4.520  16.539  0.00  0.00    +0.000 A 
ATOM     18  H   UNL     1       8.392   5.778  14.768  0.00  0.00    +0.000 HD
ATOM     19  H   UNL     1       4.944   3.687  13.812  0.00  0.00    +0.000 HD
ENDBRANCH   4   8
BRANCH   1  20
ATOM     20  C   UNL     1       1.497   8.184  20.816  0.00  0.00    +0.000 C 
BRANCH  20  21
ATOM     21  C   UNL     1       0.118   8.784  21.125  0.00  0.00    +0.000 C 
BRANCH  21  25
ATOM     22  C   UNL     1      -0.317  12.513  18.972  0.00  0.00    +0.000 A 
ATOM     23  C   UNL     1       0.449  12.446  20.147  0.00  0.00    +0.000 A 
ATOM     24  C   UNL     1       0.584  11.249  20.853  0.00  0.00    +0.000 A 
ATOM     25  C   UNL     1      -0.084  10.103  20.423  0.00  0.00    +0.000 A 
ATOM     26  C   UNL     1      -0.913  10.192  19.298  0.00  0.00    +0.000 A 
ATOM     27  C   UNL     1      -1.045  11.384  18.567  0.00  0.00    +0.000 A 
BRANCH  22  29
ATOM     28  C   UNL     1      -0.009  14.862  18.916  0.00  0.00    +0.000 C 
ATOM     29  O   UNL     1      -0.385  13.666  18.235  0.00  0.00    +0.000 OA
ENDBRANCH  22  29
BRANCH  27  30
ATOM     30  O   UNL     1      -1.893  11.235  17.501  0.00  0.00    +0.000 OA
ATOM     31  C   UNL     1      -2.478   9.967  17.251  0.00  0.00    +0.000 C 
ENDBRANCH  27  30
ENDBRANCH  21  25
ENDBRANCH  20  21
ENDBRANCH   1  20
TORSDOF 6
ENDMDL
MODEL 8
REMARK VINA RESULT:      -8.0      6.453      8.724
REMARK  Name = 
REMARK  8 active torsions:
REMARK  status: ('A' for Active; 'I' for Inactive)
REMARK    1  A    between atoms: C_1  and  O_2
REMARK    2  A    between atoms: O_2  and  C_3
REMARK    3  A    between atoms: C_6  and  C_7
REMARK    4  A    between atoms: C_7  and  C_8
REMARK    5  A    between atoms: C_8  and  N_9
REMARK    6  A    between atoms: C_12  and  C_13
REMARK    7  A    between atoms: C_26  and  O_27
REMARK    8  A    between atoms: O_27  and  C_28
REMARK                            x       y       z     vdW  Elec       q    Type
REMARK                         _______ _______ _______ _____ _____    ______ ____
ROOT
ATOM      1  N   UNL     1       2.158   7.031  20.856  0.00  0.00    +0.000 N 
ATOM      2  C   UNL     1       1.394   8.149  20.818  0.00  0.00    +0.000 A 
ATOM      3  N   UNL     1       0.655   8.545  19.805  0.00  0.00    +0.000 NA
ATOM      4  C   UNL     1       0.025   9.744  20.104  0.00  0.00    +0.000 A 
ATOM      5  C   UNL     1       0.303  10.246  21.361  0.00  0.00    +0.000 A 
ATOM      6  S   UNL     1       1.358   9.188  22.193  0.00  0.00    +0.000 S 
ATOM      7  H   UNL     1       2.808   6.992  21.635  0.00  0.00    +0.000 HD
ENDROOT
BRANCH   4   8
ATOM      8  C   UNL     1      -0.911  10.376  19.179  0.00  0.00    +0.000 A 
ATOM      9  C   UNL     1      -1.751  11.444  19.604  0.00  0.00    +0.000 A 
ATOM     10  C   UNL     1      -2.719  12.003  18.759  0.00  0.00    +0.000 A 
ATOM     11  C   UNL     1      -2.813  11.470  17.498  0.00  0.00    +0.000 A 
ATOM     12  N   UNL     1      -3.687  11.782  16.465  0.00  0.00    +0.000 N 
ATOM     13  C   UNL     1      -3.416  10.949  15.373  0.00  0.00    +0.000 A 
ATOM     14  O   UNL     1      -3.993  10.936  14.303  0.00  0.00    +0.000 OA
ATOM     15  N   UNL     1      -2.341  10.129  15.753  0.00  0.00    +0.000 N 
ATOM     16  C   UNL     1      -1.979  10.443  17.061  0.00  0.00    +0.000 A 
ATOM     17  C   UNL     1      -1.013   9.885  17.866  0.00  0.00    +0.000 A 
ATOM     18  H   UNL     1      -4.420  12.471  16.468  0.00  0.00    +0.000 HD
ATOM     19  H   UNL     1      -1.937   9.420  15.164  0.00  0.00    +0.000 HD
ENDBRANCH   4   8
BRANCH   1  20
ATOM     20  C   UNL     1       2.697   6.535  19.596  0.00  0.00    +0.000 C 
BRANCH  20  21
ATOM     21  C   UNL     1       3.392   5.184  19.817  0.00  0.00    +0.000 C 
BRANCH  21  25
ATOM     22  C   UNL     1       6.490   4.692  16.834  0.00  0.00    +0.000 A 
ATOM     23  C   UNL     1       5.337   3.891  16.814  0.00  0.00    +0.000 A 
ATOM     24  C   UNL     1       4.339   4.036  17.780  0.00  0.00    +0.000 A 
ATOM     25  C   UNL     1       4.496   4.956  18.815  0.00  0.00    +0.000 A 
ATOM     26  C   UNL     1       5.682   5.696  18.882  0.00  0.00    +0.000 A 
ATOM     27  C   UNL     1       6.687   5.575  17.907  0.00  0.00    +0.000 A 
BRANCH  22  29
ATOM     28  C   UNL     1       6.961   4.857  14.518  0.00  0.00    +0.000 C 
ATOM     29  O   UNL     1       7.430   4.607  15.842  0.00  0.00    +0.000 OA
ENDBRANCH  22  29
BRANCH  27  30
ATOM     30  O   UNL     1       7.747   6.403  18.165  0.00  0.00    +0.000 OA
ATOM     31  C   UNL     1       7.730   7.730  17.664  0.00  0.00    +0.000 C 
ENDBRANCH  27  30
ENDBRANCH  21  25
ENDBRANCH  20  21
ENDBRANCH   1  20
TORSDOF 6
ENDMDL
MODEL 9
REMARK VINA RESULT:      -7.9      5.881      8.484
REMARK  Name = 
REMARK  8 active torsions:
REMARK  status: ('A' for Active; 'I' for Inactive)
REMARK    1  A    between atoms: C_1  and  O_2
REMARK    2  A    between atoms: O_2  and  C_3
REMARK    3  A    between atoms: C_6  and  C_7
REMARK    4  A    between atoms: C_7  and  C_8
REMARK    5  A    between atoms: C_8  and  N_9
REMARK    6  A    between atoms: C_12  and  C_13
REMARK    7  A    between atoms: C_26  and  O_27
REMARK    8  A    between atoms: O_27  and  C_28
REMARK                            x       y       z     vdW  Elec       q    Type
REMARK                         _______ _______ _______ _____ _____    ______ ____
ROOT
ATOM      1  N   UNL     1       1.925   6.032  21.036  0.00  0.00    +0.000 N 
ATOM      2  C   UNL     1       2.662   5.234  20.226  0.00  0.00    +0.000 A 
ATOM      3  N   UNL     1       3.488   5.639  19.287  0.00  0.00    +0.000 NA
ATOM      4  C   UNL     1       4.055   4.552  18.638  0.00  0.00    +0.000 A 
ATOM      5  C   UNL     1       3.641   3.320  19.105  0.00  0.00    +0.000 A 
ATOM      6  S   UNL     1       2.534   3.523  20.393  0.00  0.00    +0.000 S 
ATOM      7  H   UNL     1       1.202   5.549  21.559  0.00  0.00    +0.000 HD
ENDROOT
BRANCH   4   8
ATOM      8  C   UNL     1       5.063   4.716  17.594  0.00  0.00    +0.000 A 
ATOM      9  C   UNL     1       6.210   5.531  17.807  0.00  0.00    +0.000 A 
ATOM     10  C   UNL     1       7.141   5.775  16.789  0.00  0.00    +0.000 A 
ATOM     11  C   UNL     1       6.893   5.184  15.576  0.00  0.00    +0.000 A 
ATOM     12  N   UNL     1       7.600   5.269  14.385  0.00  0.00    +0.000 N 
ATOM     13  C   UNL     1       6.943   4.509  13.410  0.00  0.00    +0.000 A 
ATOM     14  O   UNL     1       7.274   4.366  12.249  0.00  0.00    +0.000 OA
ATOM     15  N   UNL     1       5.823   3.938  14.037  0.00  0.00    +0.000 N 
ATOM     16  C   UNL     1       5.788   4.362  15.363  0.00  0.00    +0.000 A 
ATOM     17  C   UNL     1       4.865   4.097  16.348  0.00  0.00    +0.000 A 
ATOM     18  H   UNL     1       8.438   5.796  14.205  0.00  0.00    +0.000 HD
ATOM     19  H   UNL     1       5.156   3.346  13.569  0.00  0.00    +0.000 HD
ENDBRANCH   4   8
BRANCH   1  20
ATOM     20  C   UNL     1       1.527   7.337  20.522  0.00  0.00    +0.000 C 
BRANCH  20  21
ATOM     21  C   UNL     1       1.351   8.327  21.682  0.00  0.00    +0.000 C 
BRANCH  21  25
ATOM     22  C   UNL     1      -1.018  11.741  20.472  0.00  0.00    +0.000 A 
ATOM     23  C   UNL     1      -0.346  10.958  19.520  0.00  0.00    +0.000 A 
ATOM     24  C   UNL     1       0.430   9.862  19.904  0.00  0.00    +0.000 A 
ATOM     25  C   UNL     1       0.587   9.555  21.255  0.00  0.00    +0.000 A 
ATOM     26  C   UNL     1      -0.015  10.386  22.207  0.00  0.00    +0.000 A 
ATOM     27  C   UNL     1      -0.814  11.481  21.836  0.00  0.00    +0.000 A 
BRANCH  22  29
ATOM     28  C   UNL     1      -1.241  14.059  20.032  0.00  0.00    +0.000 C 
ATOM     29  O   UNL     1      -1.843  12.767  20.092  0.00  0.00    +0.000 OA
ENDBRANCH  22  29
BRANCH  27  30
ATOM     30  O   UNL     1      -1.311  12.140  22.929  0.00  0.00    +0.000 OA
ATOM     31  C   UNL     1      -2.665  11.942  23.303  0.00  0.00    +0.000 C 
ENDBRANCH  27  30
ENDBRANCH  21  25
ENDBRANCH  20  21
ENDBRANCH   1  20
TORSDOF 6
ENDMDL
