MODEL 1
REMARK VINA RESULT:      -5.7      0.000      0.000
REMARK  Name = 
REMARK  14 active torsions:
REMARK  status: ('A' for Active; 'I' for Inactive)
REMARK    1  A    between atoms: C_2  and  C_3
REMARK    2  A    between atoms: C_3  and  C_4
REMARK    3  A    between atoms: C_4  and  C_5
REMARK    4  A    between atoms: C_5  and  C_6
REMARK    5  A    between atoms: C_6  and  C_7
REMARK    6  A    between atoms: C_7  and  C_8
REMARK    7  A    between atoms: C_18  and  C_19
REMARK    8  A    between atoms: C_18  and  C_23
REMARK    9  A    between atoms: C_19  and  C_20
REMARK   10  A    between atoms: C_20  and  C_21
REMARK   11  A    between atoms: C_23  and  C_24
REMARK   12  A    between atoms: C_24  and  C_25
REMARK   13  A    between atoms: C_27  and  O_28
REMARK   14  A    between atoms: C_29  and  O_30
REMARK                            x       y       z     vdW  Elec       q    Type
REMARK                         _______ _______ _______ _____ _____    ______ ____
ROOT
ATOM      1  C   UNL     1       0.730  10.307  19.187  0.00  0.00    +0.000 C 
ATOM      2  C   UNL     1       1.096   9.889  20.680  0.00  0.00    +0.000 C 
ATOM      3  C   UNL     1       0.040   9.258  21.628  0.00  0.00    +0.000 C 
ATOM      4  C   UNL     1      -0.203  10.059  22.915  0.00  0.00    +0.000 C 
ATOM      5  C   UNL     1      -1.569  10.763  22.980  0.00  0.00    +0.000 C 
ATOM      6  C   UNL     1      -1.470  12.264  23.299  0.00  0.00    +0.000 C 
ATOM      7  C   UNL     1      -2.240  13.169  22.323  0.00  0.00    +0.000 C 
ATOM      8  C   UNL     1      -1.413  14.361  21.786  0.00  0.00    +0.000 C 
ATOM      9  C   UNL     1      -1.169  14.338  20.259  0.00  0.00    +0.000 C 
ATOM     10  C   UNL     1       0.303  14.270  19.639  0.00  0.00    +0.000 C 
ATOM     11  C   UNL     1       0.456  13.169  18.544  0.00  0.00    +0.000 C 
ATOM     12  C   UNL     1       1.234  11.758  18.767  0.00  0.00    +0.000 C 
ENDROOT
BRANCH  11  13
ATOM     13  O   UNL     1      -0.647  13.245  17.647  0.00  0.00    +0.000 OA
ATOM     14  H   UNL     1      -0.397  13.250  16.709  0.00  0.00    +0.000 HD
ENDBRANCH  11  13
BRANCH  12  15
ATOM     15  O   UNL     1       2.004  11.633  17.546  0.00  0.00    +0.000 OA
ATOM     16  H   UNL     1       1.548  11.016  16.941  0.00  0.00    +0.000 HD
ENDBRANCH  12  15
BRANCH   1  17
ATOM     17  C   UNL     1       1.506   9.200  18.285  0.00  0.00    +0.000 C 
BRANCH  17  18
ATOM     18  C   UNL     1       2.095   7.918  18.929  0.00  0.00    +0.000 C 
BRANCH  18  20
ATOM     19  N   UNL     1       4.024   6.928  17.404  0.00  0.00    +0.000 NA
ATOM     20  C   UNL     1       3.168   7.354  18.059  0.00  0.00    +0.000 C 
ENDBRANCH  18  20
ENDBRANCH  17  18
ENDBRANCH   1  17
BRANCH   1  21
ATOM     21  C   UNL     1      -0.799  10.314  19.053  0.00  0.00    +0.000 C 
BRANCH  21  22
ATOM     22  C   UNL     1      -1.290   9.893  17.708  0.00  0.00    +0.000 C 
BRANCH  22  23
ATOM     23  C   UNL     1      -2.784  10.174  17.679  0.00  0.00    +0.000 C 
ATOM     24  N   UNL     1      -4.023  10.407  17.654  0.00  0.00    +0.000 NA
ENDBRANCH  22  23
ENDBRANCH  21  22
ENDBRANCH   1  21
BRANCH  10  25
ATOM     25  C   UNL     1       1.400  14.067  20.728  0.00  0.00    +0.000 C 
BRANCH  25  26
ATOM     26  C   UNL     1       2.866  14.491  20.472  0.00  0.00    +0.000 C 
BRANCH  26  27
ATOM     27  C   UNL     1       3.767  14.187  21.583  0.00  0.00    +0.000 C 
ATOM     28  N   UNL     1       4.435  14.001  22.490  0.00  0.00    +0.000 NA
ENDBRANCH  26  27
ENDBRANCH  25  26
ENDBRANCH  10  25
BRANCH  10  29
ATOM     29  C   UNL     1       0.561  15.650  18.854  0.00  0.00    +0.000 C 
BRANCH  29  30
ATOM     30  C   UNL     1      -0.532  16.753  18.828  0.00  0.00    +0.000 C 
BRANCH  30  31
ATOM     31  C   UNL     1      -0.372  17.612  17.638  0.00  0.00    +0.000 C 
ATOM     32  N   UNL     1      -0.219  18.277  16.704  0.00  0.00    +0.000 NA
ENDBRANCH  30  31
ENDBRANCH  29  30
ENDBRANCH  10  29
TORSDOF 14
ENDMDL
MODEL 2
REMARK VINA RESULT:      -5.6      1.105      1.153
REMARK  Name = 
REMARK  14 active torsions:
REMARK  status: ('A' for Active; 'I' for Inactive)
REMARK    1  A    between atoms: C_2  and  C_3
REMARK    2  A    between atoms: C_3  and  C_4
REMARK    3  A    between atoms: C_4  and  C_5
REMARK    4  A    between atoms: C_5  and  C_6
REMARK    5  A    between atoms: C_6  and  C_7
REMARK    6  A    between atoms: C_7  and  C_8
REMARK    7  A    between atoms: C_18  and  C_19
REMARK    8  A    between atoms: C_18  and  C_23
REMARK    9  A    between atoms: C_19  and  C_20
REMARK   10  A    between atoms: C_20  and  C_21
REMARK   11  A    between atoms: C_23  and  C_24
REMARK   12  A    between atoms: C_24  and  C_25
REMARK   13  A    between atoms: C_27  and  O_28
REMARK   14  A    between atoms: C_29  and  O_30
REMARK                            x       y       z     vdW  Elec       q    Type
REMARK                         _______ _______ _______ _____ _____    ______ ____
ROOT
ATOM      1  C   UNL     1       0.738  10.157  19.112  0.00  0.00    +0.000 C 
ATOM      2  C   UNL     1       1.006   9.688  20.611  0.00  0.00    +0.000 C 
ATOM      3  C   UNL     1      -0.152   9.221  21.534  0.00  0.00    +0.000 C 
ATOM      4  C   UNL     1      -0.299  10.048  22.820  0.00  0.00    +0.000 C 
ATOM      5  C   UNL     1      -1.546  10.947  22.860  0.00  0.00    +0.000 C 
ATOM      6  C   UNL     1      -1.231  12.417  23.187  0.00  0.00    +0.000 C 
ATOM      7  C   UNL     1      -1.837  13.428  22.198  0.00  0.00    +0.000 C 
ATOM      8  C   UNL     1      -0.831  14.484  21.683  0.00  0.00    +0.000 C 
ATOM      9  C   UNL     1      -0.560  14.426  20.162  0.00  0.00    +0.000 C 
ATOM     10  C   UNL     1       0.897  14.139  19.571  0.00  0.00    +0.000 C 
ATOM     11  C   UNL     1       0.907  13.029  18.476  0.00  0.00    +0.000 C 
ATOM     12  C   UNL     1       1.461  11.518  18.709  0.00  0.00    +0.000 C 
ENDROOT
BRANCH  11  13
ATOM     13  O   UNL     1      -0.154  13.269  17.556  0.00  0.00    +0.000 OA
ATOM     14  H   UNL     1      -1.040  13.140  17.929  0.00  0.00    +0.000 HD
ENDBRANCH  11  13
BRANCH  12  15
ATOM     15  O   UNL     1       2.229  11.280  17.503  0.00  0.00    +0.000 OA
ATOM     16  H   UNL     1       2.031  11.983  16.853  0.00  0.00    +0.000 HD
ENDBRANCH  12  15
BRANCH   1  17
ATOM     17  C   UNL     1       1.358   8.948  18.222  0.00  0.00    +0.000 C 
BRANCH  17  18
ATOM     18  C   UNL     1       2.196   7.821  18.881  0.00  0.00    +0.000 C 
BRANCH  18  20
ATOM     19  N   UNL     1       4.099   6.986  17.237  0.00  0.00    +0.000 NA
ATOM     20  C   UNL     1       3.270   7.369  17.950  0.00  0.00    +0.000 C 
ENDBRANCH  18  20
ENDBRANCH  17  18
ENDBRANCH   1  17
BRANCH   1  21
ATOM     21  C   UNL     1      -0.771  10.393  18.947  0.00  0.00    +0.000 C 
BRANCH  21  22
ATOM     22  C   UNL     1      -1.308   9.961  17.624  0.00  0.00    +0.000 C 
BRANCH  22  23
ATOM     23  C   UNL     1      -2.564  10.779  17.372  0.00  0.00    +0.000 C 
ATOM     24  N   UNL     1      -3.606  11.458  17.164  0.00  0.00    +0.000 NA
ENDBRANCH  22  23
ENDBRANCH  21  22
ENDBRANCH   1  21
BRANCH  10  25
ATOM     25  C   UNL     1       1.928  13.774  20.682  0.00  0.00    +0.000 C 
BRANCH  25  26
ATOM     26  C   UNL     1       3.347  14.393  20.688  0.00  0.00    +0.000 C 
BRANCH  26  27
ATOM     27  C   UNL     1       3.950  14.464  22.018  0.00  0.00    +0.000 C 
ATOM     28  N   UNL     1       4.359  14.493  23.084  0.00  0.00    +0.000 NA
ENDBRANCH  26  27
ENDBRANCH  25  26
ENDBRANCH  10  25
BRANCH  10  29
ATOM     29  C   UNL     1       1.374  15.466  18.798  0.00  0.00    +0.000 C 
BRANCH  29  30
ATOM     30  C   UNL     1       0.833  16.859  19.223  0.00  0.00    +0.000 C 
BRANCH  30  31
ATOM     31  C   UNL     1       1.924  17.695  19.761  0.00  0.00    +0.000 C 
ATOM     32  N   UNL     1       2.797  18.331  20.177  0.00  0.00    +0.000 NA
ENDBRANCH  30  31
ENDBRANCH  29  30
ENDBRANCH  10  29
TORSDOF 14
ENDMDL
MODEL 3
REMARK VINA RESULT:      -5.4      1.439      1.647
REMARK  Name = 
REMARK  14 active torsions:
REMARK  status: ('A' for Active; 'I' for Inactive)
REMARK    1  A    between atoms: C_2  and  C_3
REMARK    2  A    between atoms: C_3  and  C_4
REMARK    3  A    between atoms: C_4  and  C_5
REMARK    4  A    between atoms: C_5  and  C_6
REMARK    5  A    between atoms: C_6  and  C_7
REMARK    6  A    between atoms: C_7  and  C_8
REMARK    7  A    between atoms: C_18  and  C_19
REMARK    8  A    between atoms: C_18  and  C_23
REMARK    9  A    between atoms: C_19  and  C_20
REMARK   10  A    between atoms: C_20  and  C_21
REMARK   11  A    between atoms: C_23  and  C_24
REMARK   12  A    between atoms: C_24  and  C_25
REMARK   13  A    between atoms: C_27  and  O_28
REMARK   14  A    between atoms: C_29  and  O_30
REMARK                            x       y       z     vdW  Elec       q    Type
REMARK                         _______ _______ _______ _____ _____    ______ ____
ROOT
ATOM      1  C   UNL     1       0.766  10.185  19.271  0.00  0.00    +0.000 C 
ATOM      2  C   UNL     1       0.967   9.732  20.785  0.00  0.00    +0.000 C 
ATOM      3  C   UNL     1      -0.235   9.305  21.671  0.00  0.00    +0.000 C 
ATOM      4  C   UNL     1      -0.411  10.154  22.938  0.00  0.00    +0.000 C 
ATOM      5  C   UNL     1      -1.637  11.082  22.918  0.00  0.00    +0.000 C 
ATOM      6  C   UNL     1      -1.301  12.549  23.236  0.00  0.00    +0.000 C 
ATOM      7  C   UNL     1      -1.846  13.558  22.211  0.00  0.00    +0.000 C 
ATOM      8  C   UNL     1      -0.797  14.584  21.719  0.00  0.00    +0.000 C 
ATOM      9  C   UNL     1      -0.472  14.497  20.210  0.00  0.00    +0.000 C 
ATOM     10  C   UNL     1       1.000  14.168  19.679  0.00  0.00    +0.000 C 
ATOM     11  C   UNL     1       1.024  13.042  18.600  0.00  0.00    +0.000 C 
ATOM     12  C   UNL     1       1.535  11.522  18.876  0.00  0.00    +0.000 C 
ENDROOT
BRANCH  11  13
ATOM     13  O   UNL     1       0.005  13.292  17.638  0.00  0.00    +0.000 OA
ATOM     14  H   UNL     1       0.303  13.797  16.866  0.00  0.00    +0.000 HD
ENDBRANCH  11  13
BRANCH  12  15
ATOM     15  O   UNL     1       2.342  11.249  17.703  0.00  0.00    +0.000 OA
ATOM     16  H   UNL     1       3.283  11.394  17.922  0.00  0.00    +0.000 HD
ENDBRANCH  12  15
BRANCH   1  17
ATOM     17  C   UNL     1       1.391   8.948  18.422  0.00  0.00    +0.000 C 
BRANCH  17  18
ATOM     18  C   UNL     1       2.118   7.778  19.135  0.00  0.00    +0.000 C 
BRANCH  18  20
ATOM     19  N   UNL     1       3.850   6.619  17.499  0.00  0.00    +0.000 NA
ATOM     20  C   UNL     1       3.099   7.143  18.208  0.00  0.00    +0.000 C 
ENDBRANCH  18  20
ENDBRANCH  17  18
ENDBRANCH   1  17
BRANCH   1  21
ATOM     21  C   UNL     1      -0.730  10.451  19.046  0.00  0.00    +0.000 C 
BRANCH  21  22
ATOM     22  C   UNL     1      -1.224  10.024  17.705  0.00  0.00    +0.000 C 
BRANCH  22  23
ATOM     23  C   UNL     1      -2.738  10.166  17.729  0.00  0.00    +0.000 C 
ATOM     24  N   UNL     1      -3.993  10.284  17.750  0.00  0.00    +0.000 NA
ENDBRANCH  22  23
ENDBRANCH  21  22
ENDBRANCH   1  21
BRANCH  10  25
ATOM     25  C   UNL     1       1.980  13.797  20.833  0.00  0.00    +0.000 C 
BRANCH  25  26
ATOM     26  C   UNL     1       3.028  14.813  21.346  0.00  0.00    +0.000 C 
BRANCH  26  27
ATOM     27  C   UNL     1       2.547  15.647  22.447  0.00  0.00    +0.000 C 
ATOM     28  N   UNL     1       2.236  16.330  23.308  0.00  0.00    +0.000 NA
ENDBRANCH  26  27
ENDBRANCH  25  26
ENDBRANCH  10  25
BRANCH  10  29
ATOM     29  C   UNL     1       1.536  15.472  18.905  0.00  0.00    +0.000 C 
BRANCH  29  30
ATOM     30  C   UNL     1       2.720  15.360  17.907  0.00  0.00    +0.000 C 
BRANCH  30  31
ATOM     31  C   UNL     1       3.761  16.358  18.225  0.00  0.00    +0.000 C 
ATOM     32  N   UNL     1       4.584  17.124  18.496  0.00  0.00    +0.000 NA
ENDBRANCH  30  31
ENDBRANCH  29  30
ENDBRANCH  10  29
TORSDOF 14
ENDMDL
MODEL 4
REMARK VINA RESULT:      -4.7      1.229      1.656
REMARK  Name = 
REMARK  14 active torsions:
REMARK  status: ('A' for Active; 'I' for Inactive)
REMARK    1  A    between atoms: C_2  and  C_3
REMARK    2  A    between atoms: C_3  and  C_4
REMARK    3  A    between atoms: C_4  and  C_5
REMARK    4  A    between atoms: C_5  and  C_6
REMARK    5  A    between atoms: C_6  and  C_7
REMARK    6  A    between atoms: C_7  and  C_8
REMARK    7  A    between atoms: C_18  and  C_19
REMARK    8  A    between atoms: C_18  and  C_23
REMARK    9  A    between atoms: C_19  and  C_20
REMARK   10  A    between atoms: C_20  and  C_21
REMARK   11  A    between atoms: C_23  and  C_24
REMARK   12  A    between atoms: C_24  and  C_25
REMARK   13  A    between atoms: C_27  and  O_28
REMARK   14  A    between atoms: C_29  and  O_30
REMARK                            x       y       z     vdW  Elec       q    Type
REMARK                         _______ _______ _______ _____ _____    ______ ____
ROOT
ATOM      1  C   UNL     1      -0.076  11.131  20.038  0.00  0.00    +0.000 C 
ATOM      2  C   UNL     1      -0.035  11.110  21.630  0.00  0.00    +0.000 C 
ATOM      3  C   UNL     1      -1.337  11.055  22.475  0.00  0.00    +0.000 C 
ATOM      4  C   UNL     1      -1.510  12.240  23.436  0.00  0.00    +0.000 C 
ATOM      5  C   UNL     1      -2.623  13.225  23.040  0.00  0.00    +0.000 C 
ATOM      6  C   UNL     1      -2.151  14.687  22.975  0.00  0.00    +0.000 C 
ATOM      7  C   UNL     1      -2.508  15.408  21.663  0.00  0.00    +0.000 C 
ATOM      8  C   UNL     1      -1.320  16.159  21.015  0.00  0.00    +0.000 C 
ATOM      9  C   UNL     1      -0.899  15.621  19.628  0.00  0.00    +0.000 C 
ATOM     10  C   UNL     1       0.563  15.032  19.358  0.00  0.00    +0.000 C 
ATOM     11  C   UNL     1       0.542  13.649  18.638  0.00  0.00    +0.000 C 
ATOM     12  C   UNL     1       0.862  12.231  19.369  0.00  0.00    +0.000 C 
ENDROOT
BRANCH  11  13
ATOM     13  O   UNL     1      -0.372  13.702  17.547  0.00  0.00    +0.000 OA
ATOM     14  H   UNL     1      -0.635  12.832  17.206  0.00  0.00    +0.000 HD
ENDBRANCH  11  13
BRANCH  12  15
ATOM     15  O   UNL     1       1.716  11.571  18.404  0.00  0.00    +0.000 OA
ATOM     16  H   UNL     1       2.591  12.006  18.400  0.00  0.00    +0.000 HD
ENDBRANCH  12  15
BRANCH   1  17
ATOM     17  C   UNL     1       0.470   9.657  19.628  0.00  0.00    +0.000 C 
BRANCH  17  18
ATOM     18  C   UNL     1       1.107   8.719  20.686  0.00  0.00    +0.000 C 
BRANCH  18  20
ATOM     19  N   UNL     1       2.563   6.843  19.510  0.00  0.00    +0.000 NA
ATOM     20  C   UNL     1       1.911   7.657  20.014  0.00  0.00    +0.000 C 
ENDBRANCH  18  20
ENDBRANCH  17  18
ENDBRANCH   1  17
BRANCH   1  21
ATOM     21  C   UNL     1      -1.513  11.449  19.600  0.00  0.00    +0.000 C 
BRANCH  21  22
ATOM     22  C   UNL     1      -1.960  10.689  18.396  0.00  0.00    +0.000 C 
BRANCH  22  23
ATOM     23  C   UNL     1      -3.313  11.255  17.998  0.00  0.00    +0.000 C 
ATOM     24  N   UNL     1      -4.436  11.725  17.667  0.00  0.00    +0.000 NA
ENDBRANCH  22  23
ENDBRANCH  21  22
ENDBRANCH   1  21
BRANCH  10  25
ATOM     25  C   UNL     1       1.411  14.921  20.661  0.00  0.00    +0.000 C 
BRANCH  25  26
ATOM     26  C   UNL     1       2.956  14.989  20.615  0.00  0.00    +0.000 C 
BRANCH  26  27
ATOM     27  C   UNL     1       3.591  14.797  21.918  0.00  0.00    +0.000 C 
ATOM     28  N   UNL     1       4.028  14.679  22.967  0.00  0.00    +0.000 NA
ENDBRANCH  26  27
ENDBRANCH  25  26
ENDBRANCH  10  25
BRANCH  10  29
ATOM     29  C   UNL     1       1.293  16.013  18.313  0.00  0.00    +0.000 C 
BRANCH  29  30
ATOM     30  C   UNL     1       1.186  17.554  18.479  0.00  0.00    +0.000 C 
BRANCH  30  31
ATOM     31  C   UNL     1       0.657  18.171  17.247  0.00  0.00    +0.000 C 
ATOM     32  N   UNL     1       0.245  18.631  16.268  0.00  0.00    +0.000 NA
ENDBRANCH  30  31
ENDBRANCH  29  30
ENDBRANCH  10  29
TORSDOF 14
ENDMDL
MODEL 5
REMARK VINA RESULT:      -4.7      3.149      7.125
REMARK  Name = 
REMARK  14 active torsions:
REMARK  status: ('A' for Active; 'I' for Inactive)
REMARK    1  A    between atoms: C_2  and  C_3
REMARK    2  A    between atoms: C_3  and  C_4
REMARK    3  A    between atoms: C_4  and  C_5
REMARK    4  A    between atoms: C_5  and  C_6
REMARK    5  A    between atoms: C_6  and  C_7
REMARK    6  A    between atoms: C_7  and  C_8
REMARK    7  A    between atoms: C_18  and  C_19
REMARK    8  A    between atoms: C_18  and  C_23
REMARK    9  A    between atoms: C_19  and  C_20
REMARK   10  A    between atoms: C_20  and  C_21
REMARK   11  A    between atoms: C_23  and  C_24
REMARK   12  A    between atoms: C_24  and  C_25
REMARK   13  A    between atoms: C_27  and  O_28
REMARK   14  A    between atoms: C_29  and  O_30
REMARK                            x       y       z     vdW  Elec       q    Type
REMARK                         _______ _______ _______ _____ _____    ______ ____
ROOT
ATOM      1  C   UNL     1      -2.514  14.293  22.492  0.00  0.00    +0.000 C 
ATOM      2  C   UNL     1      -1.103  14.524  23.196  0.00  0.00    +0.000 C 
ATOM      3  C   UNL     1      -0.272  15.811  22.944  0.00  0.00    +0.000 C 
ATOM      4  C   UNL     1       1.125  15.549  22.361  0.00  0.00    +0.000 C 
ATOM      5  C   UNL     1       1.292  15.977  20.893  0.00  0.00    +0.000 C 
ATOM      6  C   UNL     1       1.844  14.862  19.989  0.00  0.00    +0.000 C 
ATOM      7  C   UNL     1       1.018  14.616  18.715  0.00  0.00    +0.000 C 
ATOM      8  C   UNL     1       0.679  13.128  18.463  0.00  0.00    +0.000 C 
ATOM      9  C   UNL     1      -0.831  12.797  18.500  0.00  0.00    +0.000 C 
ATOM     10  C   UNL     1      -1.447  11.772  19.561  0.00  0.00    +0.000 C 
ATOM     11  C   UNL     1      -2.700  12.334  20.300  0.00  0.00    +0.000 C 
ATOM     12  C   UNL     1      -2.698  12.851  21.842  0.00  0.00    +0.000 C 
ENDROOT
BRANCH  11  13
ATOM     13  O   UNL     1      -3.580  12.924  19.348  0.00  0.00    +0.000 OA
ATOM     14  H   UNL     1      -3.679  13.885  19.440  0.00  0.00    +0.000 HD
ENDBRANCH  11  13
BRANCH  12  15
ATOM     15  O   UNL     1      -3.920  12.273  22.364  0.00  0.00    +0.000 OA
ATOM     16  H   UNL     1      -4.493  12.008  21.619  0.00  0.00    +0.000 HD
ENDBRANCH  12  15
BRANCH   1  17
ATOM     17  C   UNL     1      -3.575  14.459  23.712  0.00  0.00    +0.000 C 
BRANCH  17  18
ATOM     18  C   UNL     1      -3.203  15.256  24.990  0.00  0.00    +0.000 C 
BRANCH  18  20
ATOM     19  N   UNL     1      -4.704  17.429  25.203  0.00  0.00    +0.000 NA
ATOM     20  C   UNL     1      -4.044  16.484  25.092  0.00  0.00    +0.000 C 
ENDBRANCH  18  20
ENDBRANCH  17  18
ENDBRANCH   1  17
BRANCH   1  21
ATOM     21  C   UNL     1      -2.653  15.313  21.353  0.00  0.00    +0.000 C 
BRANCH  21  22
ATOM     22  C   UNL     1      -3.972  16.011  21.324  0.00  0.00    +0.000 C 
BRANCH  22  23
ATOM     23  C   UNL     1      -3.897  17.044  20.212  0.00  0.00    +0.000 C 
ATOM     24  N   UNL     1      -3.834  17.902  19.289  0.00  0.00    +0.000 NA
ENDBRANCH  22  23
ENDBRANCH  21  22
ENDBRANCH   1  21
BRANCH  10  25
ATOM     25  C   UNL     1      -0.398  11.301  20.613  0.00  0.00    +0.000 C 
BRANCH  25  26
ATOM     26  C   UNL     1      -0.195   9.798  20.919  0.00  0.00    +0.000 C 
BRANCH  26  27
ATOM     27  C   UNL     1       0.807   9.540  21.953  0.00  0.00    +0.000 C 
ATOM     28  N   UNL     1       1.641   9.354  22.711  0.00  0.00    +0.000 NA
ENDBRANCH  26  27
ENDBRANCH  25  26
ENDBRANCH  10  25
BRANCH  10  29
ATOM     29  C   UNL     1      -2.004  10.506  18.740  0.00  0.00    +0.000 C 
BRANCH  29  30
ATOM     30  C   UNL     1      -1.491  10.214  17.304  0.00  0.00    +0.000 C 
BRANCH  30  31
ATOM     31  C   UNL     1      -2.489  10.637  16.302  0.00  0.00    +0.000 C 
ATOM     32  N   UNL     1      -3.276  10.942  15.511  0.00  0.00    +0.000 NA
ENDBRANCH  30  31
ENDBRANCH  29  30
ENDBRANCH  10  29
TORSDOF 14
ENDMDL
MODEL 6
REMARK VINA RESULT:      -4.6      3.218      7.090
REMARK  Name = 
REMARK  14 active torsions:
REMARK  status: ('A' for Active; 'I' for Inactive)
REMARK    1  A    between atoms: C_2  and  C_3
REMARK    2  A    between atoms: C_3  and  C_4
REMARK    3  A    between atoms: C_4  and  C_5
REMARK    4  A    between atoms: C_5  and  C_6
REMARK    5  A    between atoms: C_6  and  C_7
REMARK    6  A    between atoms: C_7  and  C_8
REMARK    7  A    between atoms: C_18  and  C_19
REMARK    8  A    between atoms: C_18  and  C_23
REMARK    9  A    between atoms: C_19  and  C_20
REMARK   10  A    between atoms: C_20  and  C_21
REMARK   11  A    between atoms: C_23  and  C_24
REMARK   12  A    between atoms: C_24  and  C_25
REMARK   13  A    between atoms: C_27  and  O_28
REMARK   14  A    between atoms: C_29  and  O_30
REMARK                            x       y       z     vdW  Elec       q    Type
REMARK                         _______ _______ _______ _____ _____    ______ ____
ROOT
ATOM      1  C   UNL     1      -2.247  14.319  22.652  0.00  0.00    +0.000 C 
ATOM      2  C   UNL     1      -0.877  14.807  23.304  0.00  0.00    +0.000 C 
ATOM      3  C   UNL     1      -0.263  16.192  22.963  0.00  0.00    +0.000 C 
ATOM      4  C   UNL     1       1.146  16.119  22.357  0.00  0.00    +0.000 C 
ATOM      5  C   UNL     1       1.217  16.485  20.865  0.00  0.00    +0.000 C 
ATOM      6  C   UNL     1       1.921  15.421  20.006  0.00  0.00    +0.000 C 
ATOM      7  C   UNL     1       1.121  14.977  18.770  0.00  0.00    +0.000 C 
ATOM      8  C   UNL     1       1.017  13.442  18.606  0.00  0.00    +0.000 C 
ATOM      9  C   UNL     1      -0.421  12.882  18.701  0.00  0.00    +0.000 C 
ATOM     10  C   UNL     1      -0.848  11.834  19.830  0.00  0.00    +0.000 C 
ATOM     11  C   UNL     1      -2.161  12.234  20.572  0.00  0.00    +0.000 C 
ATOM     12  C   UNL     1      -2.212  12.831  22.084  0.00  0.00    +0.000 C 
ENDROOT
BRANCH  11  13
ATOM     13  O   UNL     1      -3.140  12.624  19.614  0.00  0.00    +0.000 OA
ATOM     14  H   UNL     1      -3.146  13.574  19.417  0.00  0.00    +0.000 HD
ENDBRANCH  11  13
BRANCH  12  15
ATOM     15  O   UNL     1      -3.318  12.099  22.669  0.00  0.00    +0.000 OA
ATOM     16  H   UNL     1      -3.670  11.470  22.009  0.00  0.00    +0.000 HD
ENDBRANCH  12  15
BRANCH   1  17
ATOM     17  C   UNL     1      -3.298  14.385  23.889  0.00  0.00    +0.000 C 
BRANCH  17  18
ATOM     18  C   UNL     1      -2.960  15.174  25.181  0.00  0.00    +0.000 C 
BRANCH  18  20
ATOM     19  N   UNL     1      -4.234  17.497  25.214  0.00  0.00    +0.000 NA
ATOM     20  C   UNL     1      -3.693  16.473  25.195  0.00  0.00    +0.000 C 
ENDBRANCH  18  20
ENDBRANCH  17  18
ENDBRANCH   1  17
BRANCH   1  21
ATOM     21  C   UNL     1      -2.565  15.239  21.464  0.00  0.00    +0.000 C 
BRANCH  21  22
ATOM     22  C   UNL     1      -3.879  15.936  21.576  0.00  0.00    +0.000 C 
BRANCH  22  23
ATOM     23  C   UNL     1      -4.863  15.157  20.718  0.00  0.00    +0.000 C 
ATOM     24  N   UNL     1      -5.680  14.511  20.007  0.00  0.00    +0.000 NA
ENDBRANCH  22  23
ENDBRANCH  21  22
ENDBRANCH   1  21
BRANCH  10  25
ATOM     25  C   UNL     1       0.281  11.594  20.878  0.00  0.00    +0.000 C 
BRANCH  25  26
ATOM     26  C   UNL     1       0.659  10.162  21.328  0.00  0.00    +0.000 C 
BRANCH  26  27
ATOM     27  C   UNL     1       0.363   9.892  22.735  0.00  0.00    +0.000 C 
ATOM     28  N   UNL     1       0.140   9.611  23.819  0.00  0.00    +0.000 NA
ENDBRANCH  26  27
ENDBRANCH  25  26
ENDBRANCH  10  25
BRANCH  10  29
ATOM     29  C   UNL     1      -1.213  10.452  19.093  0.00  0.00    +0.000 C 
BRANCH  29  30
ATOM     30  C   UNL     1      -0.608  10.122  17.702  0.00  0.00    +0.000 C 
BRANCH  30  31
ATOM     31  C   UNL     1       0.725   9.506  17.849  0.00  0.00    +0.000 C 
ATOM     32  N   UNL     1       1.757   9.000  17.976  0.00  0.00    +0.000 NA
ENDBRANCH  30  31
ENDBRANCH  29  30
ENDBRANCH  10  29
TORSDOF 14
ENDMDL
MODEL 7
REMARK VINA RESULT:      -4.6      1.350      7.005
REMARK  Name = 
REMARK  14 active torsions:
REMARK  status: ('A' for Active; 'I' for Inactive)
REMARK    1  A    between atoms: C_2  and  C_3
REMARK    2  A    between atoms: C_3  and  C_4
REMARK    3  A    between atoms: C_4  and  C_5
REMARK    4  A    between atoms: C_5  and  C_6
REMARK    5  A    between atoms: C_6  and  C_7
REMARK    6  A    between atoms: C_7  and  C_8
REMARK    7  A    between atoms: C_18  and  C_19
REMARK    8  A    between atoms: C_18  and  C_23
REMARK    9  A    between atoms: C_19  and  C_20
REMARK   10  A    between atoms: C_20  and  C_21
REMARK   11  A    between atoms: C_23  and  C_24
REMARK   12  A    between atoms: C_24  and  C_25
REMARK   13  A    between atoms: C_27  and  O_28
REMARK   14  A    between atoms: C_29  and  O_30
REMARK                            x       y       z     vdW  Elec       q    Type
REMARK                         _______ _______ _______ _____ _____    ______ ____
ROOT
ATOM      1  C   UNL     1      -0.344  14.170  19.685  0.00  0.00    +0.000 C 
ATOM      2  C   UNL     1      -1.744  14.076  20.440  0.00  0.00    +0.000 C 
ATOM      3  C   UNL     1      -1.842  14.188  21.986  0.00  0.00    +0.000 C 
ATOM      4  C   UNL     1      -2.464  12.959  22.664  0.00  0.00    +0.000 C 
ATOM      5  C   UNL     1      -1.472  12.108  23.475  0.00  0.00    +0.000 C 
ATOM      6  C   UNL     1      -1.493  10.617  23.097  0.00  0.00    +0.000 C 
ATOM      7  C   UNL     1      -0.108  10.025  22.785  0.00  0.00    +0.000 C 
ATOM      8  C   UNL     1      -0.051   9.217  21.467  0.00  0.00    +0.000 C 
ATOM      9  C   UNL     1       0.885   9.811  20.389  0.00  0.00    +0.000 C 
ATOM     10  C   UNL     1       0.340  10.284  18.962  0.00  0.00    +0.000 C 
ATOM     11  C   UNL     1       0.828  11.710  18.563  0.00  0.00    +0.000 C 
ATOM     12  C   UNL     1      -0.110  13.039  18.588  0.00  0.00    +0.000 C 
ENDROOT
BRANCH  11  13
ATOM     13  O   UNL     1       2.226  11.816  18.816  0.00  0.00    +0.000 OA
ATOM     14  H   UNL     1       2.589  11.091  19.349  0.00  0.00    +0.000 HD
ENDBRANCH  11  13
BRANCH  12  15
ATOM     15  O   UNL     1       0.237  13.687  17.339  0.00  0.00    +0.000 OA
ATOM     16  H   UNL     1       0.004  14.634  17.394  0.00  0.00    +0.000 HD
ENDBRANCH  12  15
BRANCH   1  17
ATOM     17  C   UNL     1      -0.412  15.614  18.945  0.00  0.00    +0.000 C 
BRANCH  17  18
ATOM     18  C   UNL     1      -1.428  16.695  19.397  0.00  0.00    +0.000 C 
BRANCH  18  20
ATOM     19  N   UNL     1      -0.211  18.628  20.742  0.00  0.00    +0.000 NA
ATOM     20  C   UNL     1      -0.726  17.776  20.149  0.00  0.00    +0.000 C 
ENDBRANCH  18  20
ENDBRANCH  17  18
ENDBRANCH   1  17
BRANCH   1  21
ATOM     21  C   UNL     1       0.773  14.013  20.727  0.00  0.00    +0.000 C 
BRANCH  21  22
ATOM     22  C   UNL     1       1.719  15.166  20.777  0.00  0.00    +0.000 C 
BRANCH  22  23
ATOM     23  C   UNL     1       2.890  14.811  19.875  0.00  0.00    +0.000 C 
ATOM     24  N   UNL     1       3.862  14.517  19.127  0.00  0.00    +0.000 NA
ENDBRANCH  22  23
ENDBRANCH  21  22
ENDBRANCH   1  21
BRANCH  10  25
ATOM     25  C   UNL     1      -1.215  10.228  18.870  0.00  0.00    +0.000 C 
BRANCH  25  26
ATOM     26  C   UNL     1      -1.928  10.093  17.503  0.00  0.00    +0.000 C 
BRANCH  26  27
ATOM     27  C   UNL     1      -3.118  10.934  17.377  0.00  0.00    +0.000 C 
ATOM     28  N   UNL     1      -4.034  11.615  17.346  0.00  0.00    +0.000 NA
ENDBRANCH  26  27
ENDBRANCH  25  26
ENDBRANCH  10  25
BRANCH  10  29
ATOM     29  C   UNL     1       0.989   9.317  17.854  0.00  0.00    +0.000 C 
BRANCH  29  30
ATOM     30  C   UNL     1       2.432   8.772  18.035  0.00  0.00    +0.000 C 
BRANCH  30  31
ATOM     31  C   UNL     1       2.416   7.303  18.180  0.00  0.00    +0.000 C 
ATOM     32  N   UNL     1       2.390   6.150  18.269  0.00  0.00    +0.000 NA
ENDBRANCH  30  31
ENDBRANCH  29  30
ENDBRANCH  10  29
TORSDOF 14
ENDMDL
MODEL 8
REMARK VINA RESULT:      -4.6      2.158      7.077
REMARK  Name = 
REMARK  14 active torsions:
REMARK  status: ('A' for Active; 'I' for Inactive)
REMARK    1  A    between atoms: C_2  and  C_3
REMARK    2  A    between atoms: C_3  and  C_4
REMARK    3  A    between atoms: C_4  and  C_5
REMARK    4  A    between atoms: C_5  and  C_6
REMARK    5  A    between atoms: C_6  and  C_7
REMARK    6  A    between atoms: C_7  and  C_8
REMARK    7  A    between atoms: C_18  and  C_19
REMARK    8  A    between atoms: C_18  and  C_23
REMARK    9  A    between atoms: C_19  and  C_20
REMARK   10  A    between atoms: C_20  and  C_21
REMARK   11  A    between atoms: C_23  and  C_24
REMARK   12  A    between atoms: C_24  and  C_25
REMARK   13  A    between atoms: C_27  and  O_28
REMARK   14  A    between atoms: C_29  and  O_30
REMARK                            x       y       z     vdW  Elec       q    Type
REMARK                         _______ _______ _______ _____ _____    ______ ____
ROOT
ATOM      1  C   UNL     1       0.618  15.350  19.635  0.00  0.00    +0.000 C 
ATOM      2  C   UNL     1      -0.759  16.101  19.358  0.00  0.00    +0.000 C 
ATOM      3  C   UNL     1      -1.408  17.027  20.422  0.00  0.00    +0.000 C 
ATOM      4  C   UNL     1      -2.818  16.596  20.850  0.00  0.00    +0.000 C 
ATOM      5  C   UNL     1      -2.907  16.035  22.280  0.00  0.00    +0.000 C 
ATOM      6  C   UNL     1      -3.590  14.659  22.356  0.00  0.00    +0.000 C 
ATOM      7  C   UNL     1      -2.787  13.597  23.126  0.00  0.00    +0.000 C 
ATOM      8  C   UNL     1      -2.646  12.250  22.379  0.00  0.00    +0.000 C 
ATOM      9  C   UNL     1      -1.195  11.870  22.005  0.00  0.00    +0.000 C 
ATOM     10  C   UNL     1      -0.736  11.671  20.487  0.00  0.00    +0.000 C 
ATOM     11  C   UNL     1       0.570  12.446  20.135  0.00  0.00    +0.000 C 
ATOM     12  C   UNL     1       0.616  13.806  19.243  0.00  0.00    +0.000 C 
ENDROOT
BRANCH  11  13
ATOM     13  O   UNL     1       1.534  12.230  21.161  0.00  0.00    +0.000 OA
ATOM     14  H   UNL     1       1.772  11.298  21.293  0.00  0.00    +0.000 HD
ENDBRANCH  11  13
BRANCH  12  15
ATOM     15  O   UNL     1       1.742  13.562  18.364  0.00  0.00    +0.000 OA
ATOM     16  H   UNL     1       2.507  13.269  18.897  0.00  0.00    +0.000 HD
ENDBRANCH  12  15
BRANCH   1  17
ATOM     17  C   UNL     1       1.674  16.133  18.681  0.00  0.00    +0.000 C 
BRANCH  17  18
ATOM     18  C   UNL     1       1.657  17.680  18.575  0.00  0.00    +0.000 C 
BRANCH  18  20
ATOM     19  N   UNL     1       0.841  18.443  16.172  0.00  0.00    +0.000 NA
ATOM     20  C   UNL     1       1.184  18.097  17.223  0.00  0.00    +0.000 C 
ENDBRANCH  18  20
ENDBRANCH  17  18
ENDBRANCH   1  17
BRANCH   1  21
ATOM     21  C   UNL     1       0.907  15.423  21.142  0.00  0.00    +0.000 C 
BRANCH  21  22
ATOM     22  C   UNL     1       2.216  16.056  21.475  0.00  0.00    +0.000 C 
BRANCH  22  23
ATOM     23  C   UNL     1       3.191  14.925  21.761  0.00  0.00    +0.000 C 
ATOM     24  N   UNL     1       3.999  13.987  21.998  0.00  0.00    +0.000 NA
ENDBRANCH  22  23
ENDBRANCH  21  22
ENDBRANCH   1  21
BRANCH  10  25
ATOM     25  C   UNL     1      -1.854  12.059  19.472  0.00  0.00    +0.000 C 
BRANCH  25  26
ATOM     26  C   UNL     1      -1.826  11.532  18.016  0.00  0.00    +0.000 C 
BRANCH  26  27
ATOM     27  C   UNL     1      -2.693  10.375  17.795  0.00  0.00    +0.000 C 
ATOM     28  N   UNL     1      -3.351   9.475  17.552  0.00  0.00    +0.000 NA
ENDBRANCH  26  27
ENDBRANCH  25  26
ENDBRANCH  10  25
BRANCH  10  29
ATOM     29  C   UNL     1      -0.343  10.123  20.301  0.00  0.00    +0.000 C 
BRANCH  29  30
ATOM     30  C   UNL     1      -0.344   9.161  21.521  0.00  0.00    +0.000 C 
BRANCH  30  31
ATOM     31  C   UNL     1       0.897   9.316  22.304  0.00  0.00    +0.000 C 
ATOM     32  N   UNL     1       1.861   9.418  22.936  0.00  0.00    +0.000 NA
ENDBRANCH  30  31
ENDBRANCH  29  30
ENDBRANCH  10  29
TORSDOF 14
ENDMDL
MODEL 9
REMARK VINA RESULT:      -4.6      2.206      3.126
REMARK  Name = 
REMARK  14 active torsions:
REMARK  status: ('A' for Active; 'I' for Inactive)
REMARK    1  A    between atoms: C_2  and  C_3
REMARK    2  A    between atoms: C_3  and  C_4
REMARK    3  A    between atoms: C_4  and  C_5
REMARK    4  A    between atoms: C_5  and  C_6
REMARK    5  A    between atoms: C_6  and  C_7
REMARK    6  A    between atoms: C_7  and  C_8
REMARK    7  A    between atoms: C_18  and  C_19
REMARK    8  A    between atoms: C_18  and  C_23
REMARK    9  A    between atoms: C_19  and  C_20
REMARK   10  A    between atoms: C_20  and  C_21
REMARK   11  A    between atoms: C_23  and  C_24
REMARK   12  A    between atoms: C_24  and  C_25
REMARK   13  A    between atoms: C_27  and  O_28
REMARK   14  A    between atoms: C_29  and  O_30
REMARK                            x       y       z     vdW  Elec       q    Type
REMARK                         _______ _______ _______ _____ _____    ______ ____
ROOT
ATOM      1  C   UNL     1      -0.370  11.402  20.537  0.00  0.00    +0.000 C 
ATOM      2  C   UNL     1      -0.433  11.710  22.099  0.00  0.00    +0.000 C 
ATOM      3  C   UNL     1      -1.635  12.464  22.730  0.00  0.00    +0.000 C 
ATOM      4  C   UNL     1      -1.250  13.765  23.449  0.00  0.00    +0.000 C 
ATOM      5  C   UNL     1      -1.703  15.048  22.732  0.00  0.00    +0.000 C 
ATOM      6  C   UNL     1      -0.565  16.058  22.505  0.00  0.00    +0.000 C 
ATOM      7  C   UNL     1      -0.444  16.557  21.055  0.00  0.00    +0.000 C 
ATOM      8  C   UNL     1       0.994  16.494  20.487  0.00  0.00    +0.000 C 
ATOM      9  C   UNL     1       1.169  15.535  19.287  0.00  0.00    +0.000 C 
ATOM     10  C   UNL     1       2.158  14.280  19.344  0.00  0.00    +0.000 C 
ATOM     11  C   UNL     1       1.493  12.954  18.862  0.00  0.00    +0.000 C 
ATOM     12  C   UNL     1       1.026  11.751  19.853  0.00  0.00    +0.000 C 
ENDROOT
BRANCH  11  13
ATOM     13  O   UNL     1       0.787  13.197  17.649  0.00  0.00    +0.000 OA
ATOM     14  H   UNL     1       0.554  12.394  17.158  0.00  0.00    +0.000 HD
ENDBRANCH  11  13
BRANCH  12  15
ATOM     15  O   UNL     1       1.491  10.573  19.151  0.00  0.00    +0.000 OA
ATOM     16  H   UNL     1       2.451  10.656  18.986  0.00  0.00    +0.000 HD
ENDBRANCH  12  15
BRANCH   1  17
ATOM     17  C   UNL     1      -0.606   9.797  20.459  0.00  0.00    +0.000 C 
BRANCH  17  18
ATOM     18  C   UNL     1      -0.178   8.871  21.627  0.00  0.00    +0.000 C 
BRANCH  18  20
ATOM     19  N   UNL     1       1.678   7.159  20.822  0.00  0.00    +0.000 NA
ATOM     20  C   UNL     1       0.855   7.900  21.161  0.00  0.00    +0.000 C 
ENDBRANCH  18  20
ENDBRANCH  17  18
ENDBRANCH   1  17
BRANCH   1  21
ATOM     21  C   UNL     1      -1.433  12.261  19.837  0.00  0.00    +0.000 C 
BRANCH  21  22
ATOM     22  C   UNL     1      -2.588  11.480  19.307  0.00  0.00    +0.000 C 
BRANCH  22  23
ATOM     23  C   UNL     1      -2.438  11.445  17.795  0.00  0.00    +0.000 C 
ATOM     24  N   UNL     1      -2.314  11.416  16.540  0.00  0.00    +0.000 NA
ENDBRANCH  22  23
ENDBRANCH  21  22
ENDBRANCH   1  21
BRANCH  10  25
ATOM     25  C   UNL     1       2.765  14.064  20.764  0.00  0.00    +0.000 C 
BRANCH  25  26
ATOM     26  C   UNL     1       4.211  14.510  21.088  0.00  0.00    +0.000 C 
BRANCH  26  27
ATOM     27  C   UNL     1       4.658  14.121  22.426  0.00  0.00    +0.000 C 
ATOM     28  N   UNL     1       4.939  13.829  23.493  0.00  0.00    +0.000 NA
ENDBRANCH  26  27
ENDBRANCH  25  26
ENDBRANCH  10  25
BRANCH  10  29
ATOM     29  C   UNL     1       3.335  14.544  18.281  0.00  0.00    +0.000 C 
BRANCH  29  30
ATOM     30  C   UNL     1       3.501  15.943  17.627  0.00  0.00    +0.000 C 
BRANCH  30  31
ATOM     31  C   UNL     1       4.486  16.750  18.374  0.00  0.00    +0.000 C 
ATOM     32  N   UNL     1       5.279  17.368  18.947  0.00  0.00    +0.000 NA
ENDBRANCH  30  31
ENDBRANCH  29  30
ENDBRANCH  10  29
TORSDOF 14
ENDMDL
