MODEL 1
REMARK VINA RESULT:      -7.6      0.000      0.000
REMARK  Name = 
REMARK  2 active torsions:
REMARK  status: ('A' for Active; 'I' for Inactive)
REMARK    1  A    between atoms: C_2  and  C_5
REMARK    2  A    between atoms: C_9  and  N_10
REMARK                            x       y       z     vdW  Elec       q    Type
REMARK                         _______ _______ _______ _____ _____    ______ ____
ROOT
ATOM      1  C   UNL     1       6.210   4.068  13.712  0.00  0.00    +0.000 A 
ATOM      2  C   UNL     1       5.128   3.511  14.384  0.00  0.00    +0.000 A 
ATOM      3  C   UNL     1       4.886   3.861  15.711  0.00  0.00    +0.000 A 
ATOM      4  C   UNL     1       5.741   4.726  16.441  0.00  0.00    +0.000 A 
ATOM      5  C   UNL     1       5.560   5.079  17.819  0.00  0.00    +0.000 A 
ATOM      6  C   UNL     1       6.447   6.027  18.345  0.00  0.00    +0.000 A 
ATOM      7  C   UNL     1       7.444   6.560  17.552  0.00  0.00    +0.000 A 
ATOM      8  N   UNL     1       7.648   6.215  16.272  0.00  0.00    +0.000 NA
ATOM      9  C   UNL     1       6.818   5.312  15.734  0.00  0.00    +0.000 A 
ATOM     10  C   UNL     1       7.028   4.977  14.401  0.00  0.00    +0.000 A 
ENDROOT
BRANCH   5  11
ATOM     11  N   UNL     1       4.549   4.570  18.623  0.00  0.00    +0.000 N 
ATOM     12  C   UNL     1       3.358   5.357  18.985  0.00  0.00    +0.000 C 
ATOM     13  C   UNL     1       2.100   4.481  18.769  0.00  0.00    +0.000 C 
ATOM     14  N   UNL     1       2.135   3.190  19.490  0.00  0.00    +0.000 NA
ATOM     15  C   UNL     1       3.394   2.479  19.184  0.00  0.00    +0.000 C 
ATOM     16  C   UNL     1       4.662   3.339  19.424  0.00  0.00    +0.000 C 
ATOM     17  H   UNL     1       1.350   2.620  19.173  0.00  0.00    +0.000 HD
ENDBRANCH   5  11
BRANCH   1  19
ATOM     18  F   UNL     1       7.018   2.484  12.101  0.00  0.00    +0.000 F 
ATOM     19  C   UNL     1       6.482   3.728  12.270  0.00  0.00    +0.000 C 
ATOM     20  F   UNL     1       7.356   4.588  11.681  0.00  0.00    +0.000 F 
ATOM     21  F   UNL     1       5.356   3.749  11.507  0.00  0.00    +0.000 F 
ENDBRANCH   1  19
TORSDOF 2
ENDMDL
MODEL 2
REMARK VINA RESULT:      -7.2      4.905      7.351
REMARK  Name = 
REMARK  2 active torsions:
REMARK  status: ('A' for Active; 'I' for Inactive)
REMARK    1  A    between atoms: C_2  and  C_5
REMARK    2  A    between atoms: C_9  and  N_10
REMARK                            x       y       z     vdW  Elec       q    Type
REMARK                         _______ _______ _______ _____ _____    ______ ____
ROOT
ATOM      1  C   UNL     1       1.758   7.122  20.400  0.00  0.00    +0.000 A 
ATOM      2  C   UNL     1       2.581   7.478  19.338  0.00  0.00    +0.000 A 
ATOM      3  C   UNL     1       3.409   6.519  18.756  0.00  0.00    +0.000 A 
ATOM      4  C   UNL     1       3.497   5.190  19.242  0.00  0.00    +0.000 A 
ATOM      5  C   UNL     1       4.365   4.182  18.706  0.00  0.00    +0.000 A 
ATOM      6  C   UNL     1       4.243   2.896  19.249  0.00  0.00    +0.000 A 
ATOM      7  C   UNL     1       3.334   2.652  20.259  0.00  0.00    +0.000 A 
ATOM      8  N   UNL     1       2.540   3.592  20.795  0.00  0.00    +0.000 NA
ATOM      9  C   UNL     1       2.627   4.833  20.299  0.00  0.00    +0.000 A 
ATOM     10  C   UNL     1       1.785   5.793  20.851  0.00  0.00    +0.000 A 
ENDROOT
BRANCH   5  11
ATOM     11  N   UNL     1       5.266   4.405  17.674  0.00  0.00    +0.000 N 
ATOM     12  C   UNL     1       4.932   4.143  16.263  0.00  0.00    +0.000 C 
ATOM     13  C   UNL     1       5.373   5.361  15.416  0.00  0.00    +0.000 C 
ATOM     14  N   UNL     1       6.799   5.721  15.575  0.00  0.00    +0.000 NA
ATOM     15  C   UNL     1       7.121   5.870  17.010  0.00  0.00    +0.000 C 
ATOM     16  C   UNL     1       6.707   4.643  17.864  0.00  0.00    +0.000 C 
ATOM     17  H   UNL     1       6.962   6.613  15.108  0.00  0.00    +0.000 HD
ENDBRANCH   5  11
BRANCH   1  19
ATOM     18  F   UNL     1       1.347   8.691  22.169  0.00  0.00    +0.000 F 
ATOM     19  C   UNL     1       0.835   8.131  21.035  0.00  0.00    +0.000 C 
ATOM     20  F   UNL     1      -0.362   7.595  21.396  0.00  0.00    +0.000 F 
ATOM     21  F   UNL     1       0.551   9.172  20.205  0.00  0.00    +0.000 F 
ENDBRANCH   1  19
TORSDOF 2
ENDMDL
MODEL 3
REMARK VINA RESULT:      -7.2      0.975      1.688
REMARK  Name = 
REMARK  2 active torsions:
REMARK  status: ('A' for Active; 'I' for Inactive)
REMARK    1  A    between atoms: C_2  and  C_5
REMARK    2  A    between atoms: C_9  and  N_10
REMARK                            x       y       z     vdW  Elec       q    Type
REMARK                         _______ _______ _______ _____ _____    ______ ____
ROOT
ATOM      1  C   UNL     1       6.166   4.119  14.256  0.00  0.00    +0.000 A 
ATOM      2  C   UNL     1       4.922   3.721  14.730  0.00  0.00    +0.000 A 
ATOM      3  C   UNL     1       4.603   3.910  16.073  0.00  0.00    +0.000 A 
ATOM      4  C   UNL     1       5.525   4.444  17.009  0.00  0.00    +0.000 A 
ATOM      5  C   UNL     1       5.260   4.616  18.408  0.00  0.00    +0.000 A 
ATOM      6  C   UNL     1       6.253   5.254  19.161  0.00  0.00    +0.000 A 
ATOM      7  C   UNL     1       7.424   5.668  18.557  0.00  0.00    +0.000 A 
ATOM      8  N   UNL     1       7.702   5.483  17.258  0.00  0.00    +0.000 NA
ATOM      9  C   UNL     1       6.774   4.878  16.505  0.00  0.00    +0.000 A 
ATOM     10  C   UNL     1       7.066   4.710  15.156  0.00  0.00    +0.000 A 
ENDROOT
BRANCH   5  11
ATOM     11  N   UNL     1       4.078   4.228  19.026  0.00  0.00    +0.000 N 
ATOM     12  C   UNL     1       3.787   2.823  19.361  0.00  0.00    +0.000 C 
ATOM     13  C   UNL     1       3.262   2.758  20.815  0.00  0.00    +0.000 C 
ATOM     14  N   UNL     1       2.094   3.628  21.072  0.00  0.00    +0.000 NA
ATOM     15  C   UNL     1       2.386   5.006  20.625  0.00  0.00    +0.000 C 
ATOM     16  C   UNL     1       2.887   5.084  19.159  0.00  0.00    +0.000 C 
ATOM     17  H   UNL     1       1.913   3.640  22.076  0.00  0.00    +0.000 HD
ENDBRANCH   5  11
BRANCH   1  19
ATOM     18  F   UNL     1       7.481   4.833  12.380  0.00  0.00    +0.000 F 
ATOM     19  C   UNL     1       6.531   3.949  12.804  0.00  0.00    +0.000 C 
ATOM     20  F   UNL     1       5.470   4.121  11.970  0.00  0.00    +0.000 F 
ATOM     21  F   UNL     1       7.031   2.713  12.533  0.00  0.00    +0.000 F 
ENDBRANCH   1  19
TORSDOF 2
ENDMDL
MODEL 4
REMARK VINA RESULT:      -7.2      2.135      3.184
REMARK  Name = 
REMARK  2 active torsions:
REMARK  status: ('A' for Active; 'I' for Inactive)
REMARK    1  A    between atoms: C_2  and  C_5
REMARK    2  A    between atoms: C_9  and  N_10
REMARK                            x       y       z     vdW  Elec       q    Type
REMARK                         _______ _______ _______ _____ _____    ______ ____
ROOT
ATOM      1  C   UNL     1       5.587   4.814  15.822  0.00  0.00    +0.000 A 
ATOM      2  C   UNL     1       5.007   3.774  16.538  0.00  0.00    +0.000 A 
ATOM      3  C   UNL     1       4.017   4.051  17.478  0.00  0.00    +0.000 A 
ATOM      4  C   UNL     1       3.608   5.373  17.788  0.00  0.00    +0.000 A 
ATOM      5  C   UNL     1       2.627   5.712  18.778  0.00  0.00    +0.000 A 
ATOM      6  C   UNL     1       2.276   7.065  18.877  0.00  0.00    +0.000 A 
ATOM      7  C   UNL     1       2.876   7.999  18.057  0.00  0.00    +0.000 A 
ATOM      8  N   UNL     1       3.820   7.703  17.150  0.00  0.00    +0.000 NA
ATOM      9  C   UNL     1       4.180   6.419  17.026  0.00  0.00    +0.000 A 
ATOM     10  C   UNL     1       5.146   6.124  16.070  0.00  0.00    +0.000 A 
ENDROOT
BRANCH   5  11
ATOM     11  N   UNL     1       1.996   4.782  19.594  0.00  0.00    +0.000 N 
ATOM     12  C   UNL     1       1.115   3.731  19.057  0.00  0.00    +0.000 C 
ATOM     13  C   UNL     1       1.500   2.380  19.708  0.00  0.00    +0.000 C 
ATOM     14  N   UNL     1       1.481   2.398  21.187  0.00  0.00    +0.000 NA
ATOM     15  C   UNL     1       2.289   3.531  21.685  0.00  0.00    +0.000 C 
ATOM     16  C   UNL     1       1.893   4.893  21.059  0.00  0.00    +0.000 C 
ATOM     17  H   UNL     1       1.890   1.528  21.527  0.00  0.00    +0.000 HD
ENDBRANCH   5  11
BRANCH   1  19
ATOM     18  F   UNL     1       6.700   5.499  13.809  0.00  0.00    +0.000 F 
ATOM     19  C   UNL     1       6.643   4.543  14.781  0.00  0.00    +0.000 C 
ATOM     20  F   UNL     1       6.450   3.365  14.129  0.00  0.00    +0.000 F 
ATOM     21  F   UNL     1       7.894   4.483  15.312  0.00  0.00    +0.000 F 
ENDBRANCH   1  19
TORSDOF 2
ENDMDL
MODEL 5
REMARK VINA RESULT:      -7.2      5.092      7.542
REMARK  Name = 
REMARK  2 active torsions:
REMARK  status: ('A' for Active; 'I' for Inactive)
REMARK    1  A    between atoms: C_2  and  C_5
REMARK    2  A    between atoms: C_9  and  N_10
REMARK                            x       y       z     vdW  Elec       q    Type
REMARK                         _______ _______ _______ _____ _____    ______ ____
ROOT
ATOM      1  C   UNL     1       1.470   7.336  20.547  0.00  0.00    +0.000 A 
ATOM      2  C   UNL     1       2.313   7.731  19.516  0.00  0.00    +0.000 A 
ATOM      3  C   UNL     1       3.179   6.804  18.939  0.00  0.00    +0.000 A 
ATOM      4  C   UNL     1       3.285   5.468  19.401  0.00  0.00    +0.000 A 
ATOM      5  C   UNL     1       4.190   4.490  18.871  0.00  0.00    +0.000 A 
ATOM      6  C   UNL     1       4.084   3.192  19.385  0.00  0.00    +0.000 A 
ATOM      7  C   UNL     1       3.154   2.907  20.364  0.00  0.00    +0.000 A 
ATOM      8  N   UNL     1       2.323   3.817  20.895  0.00  0.00    +0.000 NA
ATOM      9  C   UNL     1       2.395   5.070  20.427  0.00  0.00    +0.000 A 
ATOM     10  C   UNL     1       1.516   5.999  20.973  0.00  0.00    +0.000 A 
ENDROOT
BRANCH   5  11
ATOM     11  N   UNL     1       5.115   4.755  17.869  0.00  0.00    +0.000 N 
ATOM     12  C   UNL     1       6.398   5.428  18.137  0.00  0.00    +0.000 C 
ATOM     13  C   UNL     1       7.528   4.640  17.430  0.00  0.00    +0.000 C 
ATOM     14  N   UNL     1       7.311   4.447  15.980  0.00  0.00    +0.000 NA
ATOM     15  C   UNL     1       5.971   3.870  15.746  0.00  0.00    +0.000 C 
ATOM     16  C   UNL     1       4.829   4.667  16.427  0.00  0.00    +0.000 C 
ATOM     17  H   UNL     1       8.015   3.797  15.631  0.00  0.00    +0.000 HD
ENDBRANCH   5  11
BRANCH   1  19
ATOM     18  F   UNL     1       0.973   8.860  22.333  0.00  0.00    +0.000 F 
ATOM     19  C   UNL     1       0.506   8.310  21.175  0.00  0.00    +0.000 C 
ATOM     20  F   UNL     1      -0.687   7.740  21.493  0.00  0.00    +0.000 F 
ATOM     21  F   UNL     1       0.220   9.360  20.358  0.00  0.00    +0.000 F 
ENDBRANCH   1  19
TORSDOF 2
ENDMDL
MODEL 6
REMARK VINA RESULT:      -7.1      4.542      6.793
REMARK  Name = 
REMARK  2 active torsions:
REMARK  status: ('A' for Active; 'I' for Inactive)
REMARK    1  A    between atoms: C_2  and  C_5
REMARK    2  A    between atoms: C_9  and  N_10
REMARK                            x       y       z     vdW  Elec       q    Type
REMARK                         _______ _______ _______ _____ _____    ______ ____
ROOT
ATOM      1  C   UNL     1       2.506   3.717  20.222  0.00  0.00    +0.000 A 
ATOM      2  C   UNL     1       3.646   3.458  19.471  0.00  0.00    +0.000 A 
ATOM      3  C   UNL     1       4.172   4.453  18.650  0.00  0.00    +0.000 A 
ATOM      4  C   UNL     1       3.555   5.721  18.496  0.00  0.00    +0.000 A 
ATOM      5  C   UNL     1       4.032   6.760  17.630  0.00  0.00    +0.000 A 
ATOM      6  C   UNL     1       3.351   7.983  17.684  0.00  0.00    +0.000 A 
ATOM      7  C   UNL     1       2.269   8.139  18.528  0.00  0.00    +0.000 A 
ATOM      8  N   UNL     1       1.790   7.166  19.318  0.00  0.00    +0.000 NA
ATOM      9  C   UNL     1       2.417   5.983  19.294  0.00  0.00    +0.000 A 
ATOM     10  C   UNL     1       1.921   4.989  20.131  0.00  0.00    +0.000 A 
ENDROOT
BRANCH   5  11
ATOM     11  N   UNL     1       5.133   6.628  16.795  0.00  0.00    +0.000 N 
ATOM     12  C   UNL     1       6.493   7.006  17.214  0.00  0.00    +0.000 C 
ATOM     13  C   UNL     1       7.466   5.866  16.830  0.00  0.00    +0.000 C 
ATOM     14  N   UNL     1       7.426   5.498  15.398  0.00  0.00    +0.000 NA
ATOM     15  C   UNL     1       6.032   5.229  14.988  0.00  0.00    +0.000 C 
ATOM     16  C   UNL     1       5.053   6.378  15.345  0.00  0.00    +0.000 C 
ATOM     17  H   UNL     1       7.976   4.649  15.266  0.00  0.00    +0.000 HD
ENDBRANCH   5  11
BRANCH   1  19
ATOM     18  F   UNL     1       0.829   3.098  21.823  0.00  0.00    +0.000 F 
ATOM     19  C   UNL     1       1.928   2.668  21.137  0.00  0.00    +0.000 C 
ATOM     20  F   UNL     1       2.812   2.248  22.082  0.00  0.00    +0.000 F 
ATOM     21  F   UNL     1       1.530   1.553  20.466  0.00  0.00    +0.000 F 
ENDBRANCH   1  19
TORSDOF 2
ENDMDL
MODEL 7
REMARK VINA RESULT:      -7.0      4.613      6.801
REMARK  Name = 
REMARK  2 active torsions:
REMARK  status: ('A' for Active; 'I' for Inactive)
REMARK    1  A    between atoms: C_2  and  C_5
REMARK    2  A    between atoms: C_9  and  N_10
REMARK                            x       y       z     vdW  Elec       q    Type
REMARK                         _______ _______ _______ _____ _____    ______ ____
ROOT
ATOM      1  C   UNL     1       1.992   8.486  18.620  0.00  0.00    +0.000 A 
ATOM      2  C   UNL     1       2.968   8.300  17.648  0.00  0.00    +0.000 A 
ATOM      3  C   UNL     1       3.690   7.109  17.613  0.00  0.00    +0.000 A 
ATOM      4  C   UNL     1       3.515   6.082  18.576  0.00  0.00    +0.000 A 
ATOM      5  C   UNL     1       4.264   4.859  18.609  0.00  0.00    +0.000 A 
ATOM      6  C   UNL     1       3.884   3.917  19.573  0.00  0.00    +0.000 A 
ATOM      7  C   UNL     1       2.847   4.192  20.442  0.00  0.00    +0.000 A 
ATOM      8  N   UNL     1       2.159   5.344  20.446  0.00  0.00    +0.000 NA
ATOM      9  C   UNL     1       2.494   6.269  19.537  0.00  0.00    +0.000 A 
ATOM     10  C   UNL     1       1.761   7.451  19.540  0.00  0.00    +0.000 A 
ENDROOT
BRANCH   5  11
ATOM     11  N   UNL     1       5.293   4.557  17.727  0.00  0.00    +0.000 N 
ATOM     12  C   UNL     1       5.073   3.785  16.492  0.00  0.00    +0.000 C 
ATOM     13  C   UNL     1       5.784   4.509  15.322  0.00  0.00    +0.000 C 
ATOM     14  N   UNL     1       7.223   4.759  15.554  0.00  0.00    +0.000 NA
ATOM     15  C   UNL     1       7.411   5.439  16.852  0.00  0.00    +0.000 C 
ATOM     16  C   UNL     1       6.726   4.707  18.036  0.00  0.00    +0.000 C 
ATOM     17  H   UNL     1       7.570   5.366  14.812  0.00  0.00    +0.000 HD
ENDBRANCH   5  11
BRANCH   1  19
ATOM     18  F   UNL     1       1.886  10.862  18.302  0.00  0.00    +0.000 F 
ATOM     19  C   UNL     1       1.179   9.753  18.668  0.00  0.00    +0.000 C 
ATOM     20  F   UNL     1       0.692  10.020  19.910  0.00  0.00    +0.000 F 
ATOM     21  F   UNL     1       0.102   9.713  17.838  0.00  0.00    +0.000 F 
ENDBRANCH   1  19
TORSDOF 2
ENDMDL
MODEL 8
REMARK VINA RESULT:      -7.0      1.160      1.676
REMARK  Name = 
REMARK  2 active torsions:
REMARK  status: ('A' for Active; 'I' for Inactive)
REMARK    1  A    between atoms: C_2  and  C_5
REMARK    2  A    between atoms: C_9  and  N_10
REMARK                            x       y       z     vdW  Elec       q    Type
REMARK                         _______ _______ _______ _____ _____    ______ ____
ROOT
ATOM      1  C   UNL     1       6.938   4.870  14.221  0.00  0.00    +0.000 A 
ATOM      2  C   UNL     1       5.656   4.347  14.341  0.00  0.00    +0.000 A 
ATOM      3  C   UNL     1       5.051   4.283  15.595  0.00  0.00    +0.000 A 
ATOM      4  C   UNL     1       5.716   4.678  16.784  0.00  0.00    +0.000 A 
ATOM      5  C   UNL     1       5.153   4.589  18.100  0.00  0.00    +0.000 A 
ATOM      6  C   UNL     1       5.918   5.121  19.146  0.00  0.00    +0.000 A 
ATOM      7  C   UNL     1       7.154   5.679  18.889  0.00  0.00    +0.000 A 
ATOM      8  N   UNL     1       7.709   5.739  17.668  0.00  0.00    +0.000 NA
ATOM      9  C   UNL     1       7.006   5.242  16.643  0.00  0.00    +0.000 A 
ATOM     10  C   UNL     1       7.584   5.326  15.381  0.00  0.00    +0.000 A 
ENDROOT
BRANCH   5  11
ATOM     11  N   UNL     1       3.902   4.052  18.373  0.00  0.00    +0.000 N 
ATOM     12  C   UNL     1       2.714   4.894  18.600  0.00  0.00    +0.000 C 
ATOM     13  C   UNL     1       1.540   4.330  17.764  0.00  0.00    +0.000 C 
ATOM     14  N   UNL     1       1.248   2.903  18.023  0.00  0.00    +0.000 NA
ATOM     15  C   UNL     1       2.486   2.106  17.891  0.00  0.00    +0.000 C 
ATOM     16  C   UNL     1       3.661   2.648  18.746  0.00  0.00    +0.000 C 
ATOM     17  H   UNL     1       0.573   2.579  17.330  0.00  0.00    +0.000 HD
ENDBRANCH   5  11
BRANCH   1  19
ATOM     18  F   UNL     1       7.264   6.102  12.188  0.00  0.00    +0.000 F 
ATOM     19  C   UNL     1       7.608   4.974  12.876  0.00  0.00    +0.000 C 
ATOM     20  F   UNL     1       7.305   3.934  12.054  0.00  0.00    +0.000 F 
ATOM     21  F   UNL     1       8.966   5.001  12.971  0.00  0.00    +0.000 F 
ENDBRANCH   1  19
TORSDOF 2
ENDMDL
MODEL 9
REMARK VINA RESULT:      -6.9      1.300      1.934
REMARK  Name = 
REMARK  2 active torsions:
REMARK  status: ('A' for Active; 'I' for Inactive)
REMARK    1  A    between atoms: C_2  and  C_5
REMARK    2  A    between atoms: C_9  and  N_10
REMARK                            x       y       z     vdW  Elec       q    Type
REMARK                         _______ _______ _______ _____ _____    ______ ____
ROOT
ATOM      1  C   UNL     1       7.045   4.887  14.032  0.00  0.00    +0.000 A 
ATOM      2  C   UNL     1       5.774   4.326  14.012  0.00  0.00    +0.000 A 
ATOM      3  C   UNL     1       5.075   4.159  15.206  0.00  0.00    +0.000 A 
ATOM      4  C   UNL     1       5.632   4.484  16.469  0.00  0.00    +0.000 A 
ATOM      5  C   UNL     1       4.972   4.289  17.727  0.00  0.00    +0.000 A 
ATOM      6  C   UNL     1       5.636   4.764  18.865  0.00  0.00    +0.000 A 
ATOM      7  C   UNL     1       6.871   5.369  18.746  0.00  0.00    +0.000 A 
ATOM      8  N   UNL     1       7.518   5.528  17.581  0.00  0.00    +0.000 NA
ATOM      9  C   UNL     1       6.912   5.088  16.470  0.00  0.00    +0.000 A 
ATOM     10  C   UNL     1       7.585   5.276  15.268  0.00  0.00    +0.000 A 
ENDROOT
BRANCH   5  11
ATOM     11  N   UNL     1       3.719   3.704  17.861  0.00  0.00    +0.000 N 
ATOM     12  C   UNL     1       3.527   2.244  17.871  0.00  0.00    +0.000 C 
ATOM     13  C   UNL     1       2.592   1.875  19.048  0.00  0.00    +0.000 C 
ATOM     14  N   UNL     1       1.298   2.590  19.036  0.00  0.00    +0.000 NA
ATOM     15  C   UNL     1       1.530   4.044  18.918  0.00  0.00    +0.000 C 
ATOM     16  C   UNL     1       2.443   4.428  17.724  0.00  0.00    +0.000 C 
ATOM     17  H   UNL     1       0.817   2.404  19.917  0.00  0.00    +0.000 HD
ENDBRANCH   5  11
BRANCH   1  19
ATOM     18  F   UNL     1       9.166   5.155  12.942  0.00  0.00    +0.000 F 
ATOM     19  C   UNL     1       7.815   5.103  12.755  0.00  0.00    +0.000 C 
ATOM     20  F   UNL     1       7.485   6.264  12.129  0.00  0.00    +0.000 F 
ATOM     21  F   UNL     1       7.608   4.110  11.847  0.00  0.00    +0.000 F 
ENDBRANCH   1  19
TORSDOF 2
ENDMDL
