MODEL 1
REMARK VINA RESULT:      -6.4      0.000      0.000
REMARK  Name = 
REMARK  0 active torsions:
REMARK  status: ('A' for Active; 'I' for Inactive)
REMARK                            x       y       z     vdW  Elec       q    Type
REMARK                         _______ _______ _______ _____ _____    ______ ____
ROOT
ATOM      1  O   UNL     1       7.561   5.210  14.347  0.00  0.00    +0.000 OA
ATOM      2  C   UNL     1       6.959   5.001  15.400  0.00  0.00    +0.000 C 
ATOM      3  C   UNL     1       5.473   4.740  15.427  0.00  0.00    +0.000 C 
ATOM      4  C   UNL     1       4.915   4.321  16.758  0.00  0.00    +0.000 A 
ATOM      5  C   UNL     1       3.577   3.910  16.851  0.00  0.00    +0.000 A 
ATOM      6  C   UNL     1       3.032   3.549  18.085  0.00  0.00    +0.000 A 
ATOM      7  C   UNL     1       3.812   3.602  19.237  0.00  0.00    +0.000 A 
ATOM      8  C   UNL     1       5.143   4.006  19.157  0.00  0.00    +0.000 A 
ATOM      9  C   UNL     1       5.695   4.361  17.920  0.00  0.00    +0.000 A 
ATOM     10  C   UNL     1       7.117   4.759  17.845  0.00  0.00    +0.000 C 
ATOM     11  O   UNL     1       7.822   4.822  18.845  0.00  0.00    +0.000 OA
ATOM     12  N   UNL     1       7.621   5.032  16.597  0.00  0.00    +0.000 N 
ATOM     13  H   UNL     1       8.608   5.245  16.555  0.00  0.00    +0.000 HD
ENDROOT
TORSDOF 0
ENDMDL
MODEL 2
REMARK VINA RESULT:      -6.3      2.413      2.588
REMARK  Name = 
REMARK  0 active torsions:
REMARK  status: ('A' for Active; 'I' for Inactive)
REMARK                            x       y       z     vdW  Elec       q    Type
REMARK                         _______ _______ _______ _____ _____    ______ ____
ROOT
ATOM      1  O   UNL     1       7.842   4.573  16.292  0.00  0.00    +0.000 OA
ATOM      2  C   UNL     1       6.869   4.855  16.992  0.00  0.00    +0.000 C 
ATOM      3  C   UNL     1       6.091   6.133  16.795  0.00  0.00    +0.000 C 
ATOM      4  C   UNL     1       4.826   6.248  17.597  0.00  0.00    +0.000 A 
ATOM      5  C   UNL     1       3.959   7.327  17.372  0.00  0.00    +0.000 A 
ATOM      6  C   UNL     1       2.795   7.470  18.130  0.00  0.00    +0.000 A 
ATOM      7  C   UNL     1       2.490   6.545  19.125  0.00  0.00    +0.000 A 
ATOM      8  C   UNL     1       3.343   5.468  19.358  0.00  0.00    +0.000 A 
ATOM      9  C   UNL     1       4.507   5.318  18.592  0.00  0.00    +0.000 A 
ATOM     10  C   UNL     1       5.388   4.153  18.829  0.00  0.00    +0.000 C 
ATOM     11  O   UNL     1       5.146   3.330  19.704  0.00  0.00    +0.000 OA
ATOM     12  N   UNL     1       6.479   4.022  18.005  0.00  0.00    +0.000 N 
ATOM     13  H   UNL     1       7.037   3.191  18.140  0.00  0.00    +0.000 HD
ENDROOT
TORSDOF 0
ENDMDL
MODEL 3
REMARK VINA RESULT:      -6.2      1.225      1.225
REMARK  Name = 
REMARK  0 active torsions:
REMARK  status: ('A' for Active; 'I' for Inactive)
REMARK                            x       y       z     vdW  Elec       q    Type
REMARK                         _______ _______ _______ _____ _____    ______ ____
ROOT
ATOM      1  O   UNL     1       7.298   5.139  14.125  0.00  0.00    +0.000 OA
ATOM      2  C   UNL     1       6.855   5.200  15.272  0.00  0.00    +0.000 C 
ATOM      3  C   UNL     1       5.473   5.733  15.562  0.00  0.00    +0.000 C 
ATOM      4  C   UNL     1       5.004   5.573  16.981  0.00  0.00    +0.000 A 
ATOM      5  C   UNL     1       3.681   5.898  17.315  0.00  0.00    +0.000 A 
ATOM      6  C   UNL     1       3.236   5.788  18.634  0.00  0.00    +0.000 A 
ATOM      7  C   UNL     1       4.108   5.362  19.633  0.00  0.00    +0.000 A 
ATOM      8  C   UNL     1       5.424   5.034  19.313  0.00  0.00    +0.000 A 
ATOM      9  C   UNL     1       5.870   5.136  17.990  0.00  0.00    +0.000 A 
ATOM     10  C   UNL     1       7.261   4.756  17.659  0.00  0.00    +0.000 C 
ATOM     11  O   UNL     1       8.050   4.387  18.521  0.00  0.00    +0.000 OA
ATOM     12  N   UNL     1       7.623   4.813  16.336  0.00  0.00    +0.000 N 
ATOM     13  H   UNL     1       8.557   4.495  16.119  0.00  0.00    +0.000 HD
ENDROOT
TORSDOF 0
ENDMDL
MODEL 4
REMARK VINA RESULT:      -6.1      2.581      3.453
REMARK  Name = 
REMARK  0 active torsions:
REMARK  status: ('A' for Active; 'I' for Inactive)
REMARK                            x       y       z     vdW  Elec       q    Type
REMARK                         _______ _______ _______ _____ _____    ______ ____
ROOT
ATOM      1  O   UNL     1       5.542   4.370  16.739  0.00  0.00    +0.000 OA
ATOM      2  C   UNL     1       4.858   4.066  17.716  0.00  0.00    +0.000 C 
ATOM      3  C   UNL     1       3.493   4.666  17.949  0.00  0.00    +0.000 C 
ATOM      4  C   UNL     1       2.707   4.062  19.077  0.00  0.00    +0.000 A 
ATOM      5  C   UNL     1       1.372   4.447  19.276  0.00  0.00    +0.000 A 
ATOM      6  C   UNL     1       0.634   3.922  20.339  0.00  0.00    +0.000 A 
ATOM      7  C   UNL     1       1.222   3.016  21.218  0.00  0.00    +0.000 A 
ATOM      8  C   UNL     1       2.547   2.625  21.031  0.00  0.00    +0.000 A 
ATOM      9  C   UNL     1       3.286   3.144  19.960  0.00  0.00    +0.000 A 
ATOM     10  C   UNL     1       4.681   2.697  19.755  0.00  0.00    +0.000 C 
ATOM     11  O   UNL     1       5.223   1.908  20.519  0.00  0.00    +0.000 OA
ATOM     12  N   UNL     1       5.335   3.188  18.651  0.00  0.00    +0.000 N 
ATOM     13  H   UNL     1       6.265   2.828  18.492  0.00  0.00    +0.000 HD
ENDROOT
TORSDOF 0
ENDMDL
MODEL 5
REMARK VINA RESULT:      -6.1      2.159      3.053
REMARK  Name = 
REMARK  0 active torsions:
REMARK  status: ('A' for Active; 'I' for Inactive)
REMARK                            x       y       z     vdW  Elec       q    Type
REMARK                         _______ _______ _______ _____ _____    ______ ____
ROOT
ATOM      1  O   UNL     1       6.496   5.078  17.404  0.00  0.00    +0.000 OA
ATOM      2  C   UNL     1       5.518   4.548  17.932  0.00  0.00    +0.000 C 
ATOM      3  C   UNL     1       4.107   4.930  17.556  0.00  0.00    +0.000 C 
ATOM      4  C   UNL     1       3.027   4.071  18.148  0.00  0.00    +0.000 A 
ATOM      5  C   UNL     1       1.696   4.250  17.740  0.00  0.00    +0.000 A 
ATOM      6  C   UNL     1       0.674   3.484  18.302  0.00  0.00    +0.000 A 
ATOM      7  C   UNL     1       0.965   2.540  19.283  0.00  0.00    +0.000 A 
ATOM      8  C   UNL     1       2.283   2.351  19.696  0.00  0.00    +0.000 A 
ATOM      9  C   UNL     1       3.312   3.112  19.126  0.00  0.00    +0.000 A 
ATOM     10  C   UNL     1       4.709   2.880  19.552  0.00  0.00    +0.000 C 
ATOM     11  O   UNL     1       4.991   2.061  20.419  0.00  0.00    +0.000 OA
ATOM     12  N   UNL     1       5.683   3.609  18.913  0.00  0.00    +0.000 N 
ATOM     13  H   UNL     1       6.635   3.396  19.172  0.00  0.00    +0.000 HD
ENDROOT
TORSDOF 0
ENDMDL
MODEL 6
REMARK VINA RESULT:      -6.1      0.978      1.031
REMARK  Name = 
REMARK  0 active torsions:
REMARK  status: ('A' for Active; 'I' for Inactive)
REMARK                            x       y       z     vdW  Elec       q    Type
REMARK                         _______ _______ _______ _____ _____    ______ ____
ROOT
ATOM      1  O   UNL     1       7.594   4.750  15.374  0.00  0.00    +0.000 OA
ATOM      2  C   UNL     1       6.739   4.707  16.260  0.00  0.00    +0.000 C 
ATOM      3  C   UNL     1       5.303   4.353  15.961  0.00  0.00    +0.000 C 
ATOM      4  C   UNL     1       4.423   4.162  17.164  0.00  0.00    +0.000 A 
ATOM      5  C   UNL     1       3.114   3.685  16.997  0.00  0.00    +0.000 A 
ATOM      6  C   UNL     1       2.270   3.532  18.098  0.00  0.00    +0.000 A 
ATOM      7  C   UNL     1       2.719   3.861  19.375  0.00  0.00    +0.000 A 
ATOM      8  C   UNL     1       4.017   4.335  19.554  0.00  0.00    +0.000 A 
ATOM      9  C   UNL     1       4.868   4.481  18.452  0.00  0.00    +0.000 A 
ATOM     10  C   UNL     1       6.254   4.956  18.660  0.00  0.00    +0.000 C 
ATOM     11  O   UNL     1       6.670   5.261  19.771  0.00  0.00    +0.000 OA
ATOM     12  N   UNL     1       7.063   5.017  17.552  0.00  0.00    +0.000 N 
ATOM     13  H   UNL     1       8.022   5.285  17.720  0.00  0.00    +0.000 HD
ENDROOT
TORSDOF 0
ENDMDL
MODEL 7
REMARK VINA RESULT:      -6.0      3.397      4.518
REMARK  Name = 
REMARK  0 active torsions:
REMARK  status: ('A' for Active; 'I' for Inactive)
REMARK                            x       y       z     vdW  Elec       q    Type
REMARK                         _______ _______ _______ _____ _____    ______ ____
ROOT
ATOM      1  O   UNL     1       0.590   2.305  18.726  0.00  0.00    +0.000 OA
ATOM      2  C   UNL     1       1.716   2.803  18.692  0.00  0.00    +0.000 C 
ATOM      3  C   UNL     1       2.026   4.011  17.842  0.00  0.00    +0.000 C 
ATOM      4  C   UNL     1       3.388   4.611  18.047  0.00  0.00    +0.000 A 
ATOM      5  C   UNL     1       3.714   5.821  17.417  0.00  0.00    +0.000 A 
ATOM      6  C   UNL     1       4.985   6.378  17.568  0.00  0.00    +0.000 A 
ATOM      7  C   UNL     1       5.946   5.730  18.340  0.00  0.00    +0.000 A 
ATOM      8  C   UNL     1       5.634   4.528  18.973  0.00  0.00    +0.000 A 
ATOM      9  C   UNL     1       4.356   3.972  18.830  0.00  0.00    +0.000 A 
ATOM     10  C   UNL     1       4.029   2.711  19.531  0.00  0.00    +0.000 C 
ATOM     11  O   UNL     1       4.858   2.118  20.209  0.00  0.00    +0.000 OA
ATOM     12  N   UNL     1       2.742   2.248  19.408  0.00  0.00    +0.000 N 
ATOM     13  H   UNL     1       2.517   1.419  19.940  0.00  0.00    +0.000 HD
ENDROOT
TORSDOF 0
ENDMDL
MODEL 8
REMARK VINA RESULT:      -6.0      2.785      3.597
REMARK  Name = 
REMARK  0 active torsions:
REMARK  status: ('A' for Active; 'I' for Inactive)
REMARK                            x       y       z     vdW  Elec       q    Type
REMARK                         _______ _______ _______ _____ _____    ______ ____
ROOT
ATOM      1  O   UNL     1       5.113   4.475  15.896  0.00  0.00    +0.000 OA
ATOM      2  C   UNL     1       4.478   4.120  16.890  0.00  0.00    +0.000 C 
ATOM      3  C   UNL     1       3.767   5.113  17.776  0.00  0.00    +0.000 C 
ATOM      4  C   UNL     1       2.886   4.517  18.836  0.00  0.00    +0.000 A 
ATOM      5  C   UNL     1       2.068   5.354  19.610  0.00  0.00    +0.000 A 
ATOM      6  C   UNL     1       1.267   4.823  20.622  0.00  0.00    +0.000 A 
ATOM      7  C   UNL     1       1.281   3.454  20.879  0.00  0.00    +0.000 A 
ATOM      8  C   UNL     1       2.088   2.612  20.117  0.00  0.00    +0.000 A 
ATOM      9  C   UNL     1       2.885   3.142  19.095  0.00  0.00    +0.000 A 
ATOM     10  C   UNL     1       3.714   2.233  18.273  0.00  0.00    +0.000 C 
ATOM     11  O   UNL     1       3.750   1.026  18.485  0.00  0.00    +0.000 OA
ATOM     12  N   UNL     1       4.424   2.799  17.244  0.00  0.00    +0.000 N 
ATOM     13  H   UNL     1       4.938   2.159  16.656  0.00  0.00    +0.000 HD
ENDROOT
TORSDOF 0
ENDMDL
MODEL 9
REMARK VINA RESULT:      -5.9      2.205      2.571
REMARK  Name = 
REMARK  0 active torsions:
REMARK  status: ('A' for Active; 'I' for Inactive)
REMARK                            x       y       z     vdW  Elec       q    Type
REMARK                         _______ _______ _______ _____ _____    ______ ____
ROOT
ATOM      1  O   UNL     1       7.364   5.871  16.006  0.00  0.00    +0.000 OA
ATOM      2  C   UNL     1       6.211   5.685  16.397  0.00  0.00    +0.000 C 
ATOM      3  C   UNL     1       5.587   4.311  16.408  0.00  0.00    +0.000 C 
ATOM      4  C   UNL     1       4.248   4.216  17.082  0.00  0.00    +0.000 A 
ATOM      5  C   UNL     1       3.657   2.958  17.277  0.00  0.00    +0.000 A 
ATOM      6  C   UNL     1       2.399   2.852  17.871  0.00  0.00    +0.000 A 
ATOM      7  C   UNL     1       1.713   3.997  18.268  0.00  0.00    +0.000 A 
ATOM      8  C   UNL     1       2.290   5.252  18.082  0.00  0.00    +0.000 A 
ATOM      9  C   UNL     1       3.556   5.361  17.493  0.00  0.00    +0.000 A 
ATOM     10  C   UNL     1       4.169   6.697  17.329  0.00  0.00    +0.000 C 
ATOM     11  O   UNL     1       3.583   7.720  17.662  0.00  0.00    +0.000 OA
ATOM     12  N   UNL     1       5.439   6.738  16.807  0.00  0.00    +0.000 N 
ATOM     13  H   UNL     1       5.867   7.651  16.756  0.00  0.00    +0.000 HD
ENDROOT
TORSDOF 0
ENDMDL
