MODEL 1
REMARK VINA RESULT:      -8.2      0.000      0.000
REMARK  Name = 
REMARK  4 active torsions:
REMARK  status: ('A' for Active; 'I' for Inactive)
REMARK    1  A    between atoms: O_1  and  C_2
REMARK    2  A    between atoms: C_2  and  C_3
REMARK    3  A    between atoms: C_2  and  C_10
REMARK    4  A    between atoms: C_2  and  C_16
REMARK                            x       y       z     vdW  Elec       q    Type
REMARK                         _______ _______ _______ _____ _____    ______ ____
ROOT
ATOM      1  C   UNL     1       3.872   5.630  18.744  0.00  0.00    +0.000 C 
ENDROOT
BRANCH   1   2
ATOM      2  C   UNL     1       3.118   4.278  18.730  0.00  0.00    +0.000 A 
ATOM      3  C   UNL     1       1.708   4.232  18.616  0.00  0.00    +0.000 A 
ATOM      4  C   UNL     1       1.012   3.023  18.483  0.00  0.00    +0.000 A 
ATOM      5  C   UNL     1       1.705   1.818  18.474  0.00  0.00    +0.000 A 
ATOM      6  C   UNL     1       3.081   1.839  18.669  0.00  0.00    +0.000 A 
ATOM      7  F   UNL     1       3.755   0.679  18.671  0.00  0.00    +0.000 F 
ATOM      8  C   UNL     1       3.772   3.043  18.831  0.00  0.00    +0.000 A 
ATOM      9  F   UNL     1       5.096   2.994  19.052  0.00  0.00    +0.000 F 
ENDBRANCH   1   2
BRANCH   1  10
ATOM     10  C   UNL     1       3.011   6.926  18.786  0.00  0.00    +0.000 A 
ATOM     11  C   UNL     1       2.265   7.257  19.942  0.00  0.00    +0.000 A 
ATOM     12  C   UNL     1       1.469   8.407  20.000  0.00  0.00    +0.000 A 
ATOM     13  C   UNL     1       1.393   9.251  18.899  0.00  0.00    +0.000 A 
ATOM     14 CL   UNL     1       0.431  10.674  18.971  0.00  0.00    +0.000 Cl
ATOM     15  C   UNL     1       2.081   8.934  17.733  0.00  0.00    +0.000 A 
ATOM     16  C   UNL     1       2.855   7.769  17.668  0.00  0.00    +0.000 A 
ENDBRANCH   1  10
BRANCH   1  17
ATOM     17  C   UNL     1       4.933   5.665  17.637  0.00  0.00    +0.000 A 
ATOM     18  C   UNL     1       4.681   5.240  16.321  0.00  0.00    +0.000 A 
ATOM     19  C   UNL     1       5.710   5.200  15.382  0.00  0.00    +0.000 A 
ATOM     20  C   UNL     1       6.973   5.599  15.780  0.00  0.00    +0.000 A 
ATOM     21  N   UNL     1       7.266   6.016  17.028  0.00  0.00    +0.000 NA
ATOM     22  C   UNL     1       6.247   6.042  17.922  0.00  0.00    +0.000 A 
ENDBRANCH   1  17
BRANCH   1  23
ATOM     23  O   UNL     1       4.578   5.653  20.009  0.00  0.00    +0.000 OA
ATOM     24  H   UNL     1       5.493   5.925  19.829  0.00  0.00    +0.000 HD
ENDBRANCH   1  23
TORSDOF 4
ENDMDL
MODEL 2
REMARK VINA RESULT:      -8.2      0.054      1.004
REMARK  Name = 
REMARK  4 active torsions:
REMARK  status: ('A' for Active; 'I' for Inactive)
REMARK    1  A    between atoms: O_1  and  C_2
REMARK    2  A    between atoms: C_2  and  C_3
REMARK    3  A    between atoms: C_2  and  C_10
REMARK    4  A    between atoms: C_2  and  C_16
REMARK                            x       y       z     vdW  Elec       q    Type
REMARK                         _______ _______ _______ _____ _____    ______ ____
ROOT
ATOM      1  C   UNL     1       3.830   5.610  18.759  0.00  0.00    +0.000 C 
ENDROOT
BRANCH   1   2
ATOM      2  C   UNL     1       3.093   4.248  18.742  0.00  0.00    +0.000 A 
ATOM      3  C   UNL     1       1.684   4.183  18.632  0.00  0.00    +0.000 A 
ATOM      4  C   UNL     1       1.003   2.966  18.497  0.00  0.00    +0.000 A 
ATOM      5  C   UNL     1       1.713   1.771  18.481  0.00  0.00    +0.000 A 
ATOM      6  C   UNL     1       3.089   1.809  18.671  0.00  0.00    +0.000 A 
ATOM      7  F   UNL     1       3.778   0.658  18.666  0.00  0.00    +0.000 F 
ATOM      8  C   UNL     1       3.764   3.021  18.835  0.00  0.00    +0.000 A 
ATOM      9  F   UNL     1       5.090   2.989  19.051  0.00  0.00    +0.000 F 
ENDBRANCH   1   2
BRANCH   1  10
ATOM     10  C   UNL     1       2.951   6.894  18.798  0.00  0.00    +0.000 A 
ATOM     11  C   UNL     1       2.907   7.770  17.687  0.00  0.00    +0.000 A 
ATOM     12  C   UNL     1       2.139   8.940  17.702  0.00  0.00    +0.000 A 
ATOM     13  C   UNL     1       1.403   9.268  18.834  0.00  0.00    +0.000 A 
ATOM     14 CL   UNL     1       0.444  10.695  18.852  0.00  0.00    +0.000 Cl
ATOM     15  C   UNL     1       1.456   8.452  19.958  0.00  0.00    +0.000 A 
ATOM     16  C   UNL     1       2.246   7.295  19.950  0.00  0.00    +0.000 A 
ENDBRANCH   1  10
BRANCH   1  17
ATOM     17  C   UNL     1       4.894   5.659  17.655  0.00  0.00    +0.000 A 
ATOM     18  C   UNL     1       4.652   5.231  16.338  0.00  0.00    +0.000 A 
ATOM     19  C   UNL     1       5.685   5.205  15.403  0.00  0.00    +0.000 A 
ATOM     20  C   UNL     1       6.941   5.622  15.805  0.00  0.00    +0.000 A 
ATOM     21  N   UNL     1       7.223   6.043  17.054  0.00  0.00    +0.000 NA
ATOM     22  C   UNL     1       6.201   6.055  17.944  0.00  0.00    +0.000 A 
ENDBRANCH   1  17
BRANCH   1  23
ATOM     23  O   UNL     1       4.531   5.642  20.026  0.00  0.00    +0.000 OA
ATOM     24  H   UNL     1       5.354   6.141  19.893  0.00  0.00    +0.000 HD
ENDBRANCH   1  23
TORSDOF 4
ENDMDL
MODEL 3
REMARK VINA RESULT:      -8.2      1.354      1.659
REMARK  Name = 
REMARK  4 active torsions:
REMARK  status: ('A' for Active; 'I' for Inactive)
REMARK    1  A    between atoms: O_1  and  C_2
REMARK    2  A    between atoms: C_2  and  C_3
REMARK    3  A    between atoms: C_2  and  C_10
REMARK    4  A    between atoms: C_2  and  C_16
REMARK                            x       y       z     vdW  Elec       q    Type
REMARK                         _______ _______ _______ _____ _____    ______ ____
ROOT
ATOM      1  C   UNL     1       4.181   5.418  18.544  0.00  0.00    +0.000 C 
ENDROOT
BRANCH   1   2
ATOM      2  C   UNL     1       3.479   4.056  18.764  0.00  0.00    +0.000 A 
ATOM      3  C   UNL     1       4.150   2.987  19.404  0.00  0.00    +0.000 A 
ATOM      4  C   UNL     1       3.502   1.785  19.720  0.00  0.00    +0.000 A 
ATOM      5  C   UNL     1       2.162   1.610  19.393  0.00  0.00    +0.000 A 
ATOM      6  C   UNL     1       1.511   2.617  18.691  0.00  0.00    +0.000 A 
ATOM      7  F   UNL     1       0.219   2.450  18.364  0.00  0.00    +0.000 F 
ATOM      8  C   UNL     1       2.165   3.803  18.349  0.00  0.00    +0.000 A 
ATOM      9  F   UNL     1       1.491   4.722  17.638  0.00  0.00    +0.000 F 
ENDBRANCH   1   2
BRANCH   1  10
ATOM     10  C   UNL     1       3.296   6.696  18.619  0.00  0.00    +0.000 A 
ATOM     11  C   UNL     1       2.507   6.959  19.765  0.00  0.00    +0.000 A 
ATOM     12  C   UNL     1       1.690   8.091  19.853  0.00  0.00    +0.000 A 
ATOM     13  C   UNL     1       1.634   8.986  18.791  0.00  0.00    +0.000 A 
ATOM     14 CL   UNL     1       0.645  10.388  18.900  0.00  0.00    +0.000 Cl
ATOM     15  C   UNL     1       2.364   8.738  17.635  0.00  0.00    +0.000 A 
ATOM     16  C   UNL     1       3.161   7.590  17.539  0.00  0.00    +0.000 A 
ENDBRANCH   1  10
BRANCH   1  17
ATOM     17  C   UNL     1       5.048   5.377  17.278  0.00  0.00    +0.000 A 
ATOM     18  C   UNL     1       4.690   4.653  16.128  0.00  0.00    +0.000 A 
ATOM     19  C   UNL     1       5.563   4.571  15.045  0.00  0.00    +0.000 A 
ATOM     20  C   UNL     1       6.776   5.228  15.133  0.00  0.00    +0.000 A 
ATOM     21  N   UNL     1       7.165   5.937  16.212  0.00  0.00    +0.000 NA
ATOM     22  C   UNL     1       6.298   5.998  17.252  0.00  0.00    +0.000 A 
ENDBRANCH   1  17
BRANCH   1  23
ATOM     23  O   UNL     1       5.081   5.564  19.670  0.00  0.00    +0.000 OA
ATOM     24  H   UNL     1       5.900   5.969  19.339  0.00  0.00    +0.000 HD
ENDBRANCH   1  23
TORSDOF 4
ENDMDL
MODEL 4
REMARK VINA RESULT:      -8.1      1.335      1.930
REMARK  Name = 
REMARK  4 active torsions:
REMARK  status: ('A' for Active; 'I' for Inactive)
REMARK    1  A    between atoms: O_1  and  C_2
REMARK    2  A    between atoms: C_2  and  C_3
REMARK    3  A    between atoms: C_2  and  C_10
REMARK    4  A    between atoms: C_2  and  C_16
REMARK                            x       y       z     vdW  Elec       q    Type
REMARK                         _______ _______ _______ _____ _____    ______ ____
ROOT
ATOM      1  C   UNL     1       4.150   5.414  18.543  0.00  0.00    +0.000 C 
ENDROOT
BRANCH   1   2
ATOM      2  C   UNL     1       3.475   4.031  18.720  0.00  0.00    +0.000 A 
ATOM      3  C   UNL     1       4.185   2.941  19.277  0.00  0.00    +0.000 A 
ATOM      4  C   UNL     1       3.566   1.715  19.554  0.00  0.00    +0.000 A 
ATOM      5  C   UNL     1       2.216   1.537  19.271  0.00  0.00    +0.000 A 
ATOM      6  C   UNL     1       1.525   2.568  18.648  0.00  0.00    +0.000 A 
ATOM      7  F   UNL     1       0.224   2.399  18.362  0.00  0.00    +0.000 F 
ATOM      8  C   UNL     1       2.149   3.780  18.343  0.00  0.00    +0.000 A 
ATOM      9  F   UNL     1       1.436   4.724  17.707  0.00  0.00    +0.000 F 
ENDBRANCH   1   2
BRANCH   1  10
ATOM     10  C   UNL     1       3.236   6.669  18.634  0.00  0.00    +0.000 A 
ATOM     11  C   UNL     1       3.183   7.600  17.569  0.00  0.00    +0.000 A 
ATOM     12  C   UNL     1       2.383   8.747  17.631  0.00  0.00    +0.000 A 
ATOM     13  C   UNL     1       1.621   8.995  18.766  0.00  0.00    +0.000 A 
ATOM     14 CL   UNL     1       0.622  10.392  18.841  0.00  0.00    +0.000 Cl
ATOM     15  C   UNL     1       1.680   8.123  19.847  0.00  0.00    +0.000 A 
ATOM     16  C   UNL     1       2.502   6.990  19.793  0.00  0.00    +0.000 A 
ENDBRANCH   1  10
BRANCH   1  17
ATOM     17  C   UNL     1       5.038   5.422  17.292  0.00  0.00    +0.000 A 
ATOM     18  C   UNL     1       4.702   4.740  16.110  0.00  0.00    +0.000 A 
ATOM     19  C   UNL     1       5.593   4.701  15.039  0.00  0.00    +0.000 A 
ATOM     20  C   UNL     1       6.804   5.357  15.173  0.00  0.00    +0.000 A 
ATOM     21  N   UNL     1       7.172   6.025  16.284  0.00  0.00    +0.000 NA
ATOM     22  C   UNL     1       6.287   6.046  17.310  0.00  0.00    +0.000 A 
ENDBRANCH   1  17
BRANCH   1  23
ATOM     23  O   UNL     1       5.028   5.552  19.687  0.00  0.00    +0.000 OA
ATOM     24  H   UNL     1       4.469   5.669  20.473  0.00  0.00    +0.000 HD
ENDBRANCH   1  23
TORSDOF 4
ENDMDL
MODEL 5
REMARK VINA RESULT:      -8.0      2.365      4.366
REMARK  Name = 
REMARK  4 active torsions:
REMARK  status: ('A' for Active; 'I' for Inactive)
REMARK    1  A    between atoms: O_1  and  C_2
REMARK    2  A    between atoms: C_2  and  C_3
REMARK    3  A    between atoms: C_2  and  C_10
REMARK    4  A    between atoms: C_2  and  C_16
REMARK                            x       y       z     vdW  Elec       q    Type
REMARK                         _______ _______ _______ _____ _____    ______ ____
ROOT
ATOM      1  C   UNL     1       2.827   4.881  18.381  0.00  0.00    +0.000 C 
ENDROOT
BRANCH   1   2
ATOM      2  C   UNL     1       4.254   4.693  17.812  0.00  0.00    +0.000 A 
ATOM      3  C   UNL     1       4.471   3.977  16.611  0.00  0.00    +0.000 A 
ATOM      4  C   UNL     1       5.736   3.891  16.014  0.00  0.00    +0.000 A 
ATOM      5  C   UNL     1       6.829   4.510  16.609  0.00  0.00    +0.000 A 
ATOM      6  C   UNL     1       6.652   5.146  17.831  0.00  0.00    +0.000 A 
ATOM      7  F   UNL     1       7.706   5.737  18.416  0.00  0.00    +0.000 F 
ATOM      8  C   UNL     1       5.396   5.206  18.441  0.00  0.00    +0.000 A 
ATOM      9  F   UNL     1       5.298   5.804  19.641  0.00  0.00    +0.000 F 
ENDBRANCH   1   2
BRANCH   1  10
ATOM     10  C   UNL     1       2.380   6.333  18.718  0.00  0.00    +0.000 A 
ATOM     11  C   UNL     1       2.338   7.325  17.709  0.00  0.00    +0.000 A 
ATOM     12  C   UNL     1       1.955   8.642  17.987  0.00  0.00    +0.000 A 
ATOM     13  C   UNL     1       1.614   9.003  19.285  0.00  0.00    +0.000 A 
ATOM     14 CL   UNL     1       1.127  10.615  19.630  0.00  0.00    +0.000 Cl
ATOM     15  C   UNL     1       1.684   8.063  20.307  0.00  0.00    +0.000 A 
ATOM     16  C   UNL     1       2.092   6.752  20.032  0.00  0.00    +0.000 A 
ENDBRANCH   1  10
BRANCH   1  17
ATOM     17  C   UNL     1       2.577   3.905  19.539  0.00  0.00    +0.000 A 
ATOM     18  C   UNL     1       1.311   3.710  20.116  0.00  0.00    +0.000 A 
ATOM     19  C   UNL     1       1.161   2.886  21.230  0.00  0.00    +0.000 A 
ATOM     20  C   UNL     1       2.287   2.263  21.737  0.00  0.00    +0.000 A 
ATOM     21  N   UNL     1       3.522   2.416  21.219  0.00  0.00    +0.000 NA
ATOM     22  C   UNL     1       3.639   3.225  20.138  0.00  0.00    +0.000 A 
ENDBRANCH   1  17
BRANCH   1  23
ATOM     23  O   UNL     1       1.939   4.495  17.303  0.00  0.00    +0.000 OA
ATOM     24  H   UNL     1       2.488   4.312  16.523  0.00  0.00    +0.000 HD
ENDBRANCH   1  23
TORSDOF 4
ENDMDL
MODEL 6
REMARK VINA RESULT:      -8.0      3.241      5.765
REMARK  Name = 
REMARK  4 active torsions:
REMARK  status: ('A' for Active; 'I' for Inactive)
REMARK    1  A    between atoms: O_1  and  C_2
REMARK    2  A    between atoms: C_2  and  C_3
REMARK    3  A    between atoms: C_2  and  C_10
REMARK    4  A    between atoms: C_2  and  C_16
REMARK                            x       y       z     vdW  Elec       q    Type
REMARK                         _______ _______ _______ _____ _____    ______ ____
ROOT
ATOM      1  C   UNL     1       3.788   5.591  18.709  0.00  0.00    +0.000 C 
ENDROOT
BRANCH   1   2
ATOM      2  C   UNL     1       2.972   6.903  18.808  0.00  0.00    +0.000 A 
ATOM      3  C   UNL     1       3.000   7.858  17.764  0.00  0.00    +0.000 A 
ATOM      4  C   UNL     1       2.183   8.996  17.775  0.00  0.00    +0.000 A 
ATOM      5  C   UNL     1       1.319   9.222  18.841  0.00  0.00    +0.000 A 
ATOM      6  C   UNL     1       1.339   8.339  19.914  0.00  0.00    +0.000 A 
ATOM      7  F   UNL     1       0.515   8.557  20.950  0.00  0.00    +0.000 F 
ATOM      8  C   UNL     1       2.175   7.220  19.916  0.00  0.00    +0.000 A 
ATOM      9  F   UNL     1       2.174   6.424  20.999  0.00  0.00    +0.000 F 
ENDBRANCH   1   2
BRANCH   1  10
ATOM     10  C   UNL     1       4.757   5.444  17.500  0.00  0.00    +0.000 A 
ATOM     11  C   UNL     1       4.449   4.566  16.434  0.00  0.00    +0.000 A 
ATOM     12  C   UNL     1       5.310   4.401  15.343  0.00  0.00    +0.000 A 
ATOM     13  C   UNL     1       6.507   5.106  15.296  0.00  0.00    +0.000 A 
ATOM     14 CL   UNL     1       7.561   4.921  13.950  0.00  0.00    +0.000 Cl
ATOM     15  C   UNL     1       6.860   5.946  16.346  0.00  0.00    +0.000 A 
ATOM     16  C   UNL     1       6.008   6.088  17.449  0.00  0.00    +0.000 A 
ENDBRANCH   1  10
BRANCH   1  17
ATOM     17  C   UNL     1       2.870   4.373  18.878  0.00  0.00    +0.000 A 
ATOM     18  C   UNL     1       1.643   4.240  18.205  0.00  0.00    +0.000 A 
ATOM     19  C   UNL     1       0.804   3.160  18.473  0.00  0.00    +0.000 A 
ATOM     20  C   UNL     1       1.219   2.226  19.406  0.00  0.00    +0.000 A 
ATOM     21  N   UNL     1       2.386   2.308  20.076  0.00  0.00    +0.000 NA
ATOM     22  C   UNL     1       3.181   3.370  19.798  0.00  0.00    +0.000 A 
ENDBRANCH   1  17
BRANCH   1  23
ATOM     23  O   UNL     1       4.677   5.614  19.853  0.00  0.00    +0.000 OA
ATOM     24  H   UNL     1       4.751   4.704  20.185  0.00  0.00    +0.000 HD
ENDBRANCH   1  23
TORSDOF 4
ENDMDL
MODEL 7
REMARK VINA RESULT:      -8.0      3.329      5.859
REMARK  Name = 
REMARK  4 active torsions:
REMARK  status: ('A' for Active; 'I' for Inactive)
REMARK    1  A    between atoms: O_1  and  C_2
REMARK    2  A    between atoms: C_2  and  C_3
REMARK    3  A    between atoms: C_2  and  C_10
REMARK    4  A    between atoms: C_2  and  C_16
REMARK                            x       y       z     vdW  Elec       q    Type
REMARK                         _______ _______ _______ _____ _____    ______ ____
ROOT
ATOM      1  C   UNL     1       3.523   5.676  18.813  0.00  0.00    +0.000 C 
ENDROOT
BRANCH   1   2
ATOM      2  C   UNL     1       2.765   7.023  18.903  0.00  0.00    +0.000 A 
ATOM      3  C   UNL     1       2.823   7.964  17.847  0.00  0.00    +0.000 A 
ATOM      4  C   UNL     1       2.055   9.136  17.852  0.00  0.00    +0.000 A 
ATOM      5  C   UNL     1       1.212   9.411  18.923  0.00  0.00    +0.000 A 
ATOM      6  C   UNL     1       1.205   8.540  20.006  0.00  0.00    +0.000 A 
ATOM      7  F   UNL     1       0.400   8.806  21.047  0.00  0.00    +0.000 F 
ATOM      8  C   UNL     1       1.993   7.387  20.014  0.00  0.00    +0.000 A 
ATOM      9  F   UNL     1       1.968   6.605  21.107  0.00  0.00    +0.000 F 
ENDBRANCH   1   2
BRANCH   1  10
ATOM     10  C   UNL     1       4.525   5.500  17.635  0.00  0.00    +0.000 A 
ATOM     11  C   UNL     1       4.343   4.469  16.683  0.00  0.00    +0.000 A 
ATOM     12  C   UNL     1       5.238   4.278  15.624  0.00  0.00    +0.000 A 
ATOM     13  C   UNL     1       6.344   5.109  15.496  0.00  0.00    +0.000 A 
ATOM     14 CL   UNL     1       7.437   4.890  14.188  0.00  0.00    +0.000 Cl
ATOM     15  C   UNL     1       6.575   6.106  16.437  0.00  0.00    +0.000 A 
ATOM     16  C   UNL     1       5.693   6.279  17.511  0.00  0.00    +0.000 A 
ENDBRANCH   1  10
BRANCH   1  17
ATOM     17  C   UNL     1       2.545   4.500  18.933  0.00  0.00    +0.000 A 
ATOM     18  C   UNL     1       2.652   3.515  19.930  0.00  0.00    +0.000 A 
ATOM     19  C   UNL     1       1.796   2.415  19.931  0.00  0.00    +0.000 A 
ATOM     20  C   UNL     1       0.838   2.332  18.936  0.00  0.00    +0.000 A 
ATOM     21  N   UNL     1       0.694   3.251  17.961  0.00  0.00    +0.000 NA
ATOM     22  C   UNL     1       1.542   4.308  17.982  0.00  0.00    +0.000 A 
ENDBRANCH   1  17
BRANCH   1  23
ATOM     23  O   UNL     1       4.372   5.644  19.987  0.00  0.00    +0.000 OA
ATOM     24  H   UNL     1       5.007   6.375  19.909  0.00  0.00    +0.000 HD
ENDBRANCH   1  23
TORSDOF 4
ENDMDL
MODEL 8
REMARK VINA RESULT:      -7.9      3.257      5.761
REMARK  Name = 
REMARK  4 active torsions:
REMARK  status: ('A' for Active; 'I' for Inactive)
REMARK    1  A    between atoms: O_1  and  C_2
REMARK    2  A    between atoms: C_2  and  C_3
REMARK    3  A    between atoms: C_2  and  C_10
REMARK    4  A    between atoms: C_2  and  C_16
REMARK                            x       y       z     vdW  Elec       q    Type
REMARK                         _______ _______ _______ _____ _____    ______ ____
ROOT
ATOM      1  C   UNL     1       3.763   5.547  18.749  0.00  0.00    +0.000 C 
ENDROOT
BRANCH   1   2
ATOM      2  C   UNL     1       2.956   6.866  18.823  0.00  0.00    +0.000 A 
ATOM      3  C   UNL     1       2.999   7.806  17.766  0.00  0.00    +0.000 A 
ATOM      4  C   UNL     1       2.190   8.950  17.755  0.00  0.00    +0.000 A 
ATOM      5  C   UNL     1       1.320   9.197  18.811  0.00  0.00    +0.000 A 
ATOM      6  C   UNL     1       1.324   8.328  19.895  0.00  0.00    +0.000 A 
ATOM      7  F   UNL     1       0.493   8.566  20.922  0.00  0.00    +0.000 F 
ATOM      8  C   UNL     1       2.152   7.203  19.920  0.00  0.00    +0.000 A 
ATOM      9  F   UNL     1       2.137   6.423  21.013  0.00  0.00    +0.000 F 
ENDBRANCH   1   2
BRANCH   1  10
ATOM     10  C   UNL     1       4.721   5.365  17.536  0.00  0.00    +0.000 A 
ATOM     11  C   UNL     1       5.938   6.083  17.466  0.00  0.00    +0.000 A 
ATOM     12  C   UNL     1       6.810   5.951  16.379  0.00  0.00    +0.000 A 
ATOM     13  C   UNL     1       6.481   5.103  15.329  0.00  0.00    +0.000 A 
ATOM     14 CL   UNL     1       7.555   4.924  13.999  0.00  0.00    +0.000 Cl
ATOM     15  C   UNL     1       5.274   4.414  15.346  0.00  0.00    +0.000 A 
ATOM     16  C   UNL     1       4.391   4.567  16.422  0.00  0.00    +0.000 A 
ENDBRANCH   1  10
BRANCH   1  17
ATOM     17  C   UNL     1       2.839   4.339  18.955  0.00  0.00    +0.000 A 
ATOM     18  C   UNL     1       1.643   4.159  18.240  0.00  0.00    +0.000 A 
ATOM     19  C   UNL     1       0.794   3.096  18.539  0.00  0.00    +0.000 A 
ATOM     20  C   UNL     1       1.169   2.224  19.546  0.00  0.00    +0.000 A 
ATOM     21  N   UNL     1       2.306   2.352  20.259  0.00  0.00    +0.000 NA
ATOM     22  C   UNL     1       3.111   3.397  19.949  0.00  0.00    +0.000 A 
ENDBRANCH   1  17
BRANCH   1  23
ATOM     23  O   UNL     1       4.662   5.592  19.885  0.00  0.00    +0.000 OA
ATOM     24  H   UNL     1       4.541   6.452  20.320  0.00  0.00    +0.000 HD
ENDBRANCH   1  23
TORSDOF 4
ENDMDL
MODEL 9
REMARK VINA RESULT:      -7.9      1.649      2.130
REMARK  Name = 
REMARK  4 active torsions:
REMARK  status: ('A' for Active; 'I' for Inactive)
REMARK    1  A    between atoms: O_1  and  C_2
REMARK    2  A    between atoms: C_2  and  C_3
REMARK    3  A    between atoms: C_2  and  C_10
REMARK    4  A    between atoms: C_2  and  C_16
REMARK                            x       y       z     vdW  Elec       q    Type
REMARK                         _______ _______ _______ _____ _____    ______ ____
ROOT
ATOM      1  C   UNL     1       3.504   5.808  18.828  0.00  0.00    +0.000 C 
ENDROOT
BRANCH   1   2
ATOM      2  C   UNL     1       2.832   4.482  19.261  0.00  0.00    +0.000 A 
ATOM      3  C   UNL     1       3.325   3.742  20.362  0.00  0.00    +0.000 A 
ATOM      4  C   UNL     1       2.669   2.603  20.846  0.00  0.00    +0.000 A 
ATOM      5  C   UNL     1       1.501   2.160  20.235  0.00  0.00    +0.000 A 
ATOM      6  C   UNL     1       1.048   2.825  19.102  0.00  0.00    +0.000 A 
ATOM      7  F   UNL     1      -0.073   2.396  18.502  0.00  0.00    +0.000 F 
ATOM      8  C   UNL     1       1.720   3.943  18.601  0.00  0.00    +0.000 A 
ATOM      9  F   UNL     1       1.252   4.520  17.482  0.00  0.00    +0.000 F 
ENDBRANCH   1   2
BRANCH   1  10
ATOM     10  C   UNL     1       2.635   7.098  18.883  0.00  0.00    +0.000 A 
ATOM     11  C   UNL     1       2.484   7.914  17.737  0.00  0.00    +0.000 A 
ATOM     12  C   UNL     1       1.723   9.088  17.764  0.00  0.00    +0.000 A 
ATOM     13  C   UNL     1       1.100   9.480  18.942  0.00  0.00    +0.000 A 
ATOM     14 CL   UNL     1       0.150  10.912  18.977  0.00  0.00    +0.000 Cl
ATOM     15  C   UNL     1       1.261   8.724  20.097  0.00  0.00    +0.000 A 
ATOM     16  C   UNL     1       2.045   7.563  20.075  0.00  0.00    +0.000 A 
ENDBRANCH   1  10
BRANCH   1  17
ATOM     17  C   UNL     1       4.214   5.635  17.478  0.00  0.00    +0.000 A 
ATOM     18  C   UNL     1       4.412   4.382  16.873  0.00  0.00    +0.000 A 
ATOM     19  C   UNL     1       5.150   4.275  15.696  0.00  0.00    +0.000 A 
ATOM     20  C   UNL     1       5.668   5.432  15.142  0.00  0.00    +0.000 A 
ATOM     21  N   UNL     1       5.504   6.656  15.683  0.00  0.00    +0.000 NA
ATOM     22  C   UNL     1       4.784   6.731  16.828  0.00  0.00    +0.000 A 
ENDBRANCH   1  17
BRANCH   1  23
ATOM     23  O   UNL     1       4.532   6.050  19.820  0.00  0.00    +0.000 OA
ATOM     24  H   UNL     1       4.825   5.186  20.155  0.00  0.00    +0.000 HD
ENDBRANCH   1  23
TORSDOF 4
ENDMDL
