MODEL 1
REMARK VINA RESULT:      -6.9      0.000      0.000
REMARK  Name = 
REMARK  5 active torsions:
REMARK  status: ('A' for Active; 'I' for Inactive)
REMARK    1  A    between atoms: C_1  and  O_2
REMARK    2  A    between atoms: O_2  and  C_3
REMARK    3  A    between atoms: C_7  and  C_8
REMARK    4  A    between atoms: C_9  and  C_10
REMARK    5  A    between atoms: C_10  and  C_12
REMARK                            x       y       z     vdW  Elec       q    Type
REMARK                         _______ _______ _______ _____ _____    ______ ____
ROOT
ATOM      1  C   UNL     1       3.228   6.279  18.731  0.00  0.00    +0.000 C 
ATOM      2  C   UNL     1       2.899   5.303  17.872  0.00  0.00    +0.000 C 
ENDROOT
BRANCH   1   7
ATOM      3  C   UNL     1       1.099   9.015  20.276  0.00  0.00    +0.000 A 
ATOM      4  C   UNL     1       0.836   9.795  19.150  0.00  0.00    +0.000 A 
ATOM      5  C   UNL     1       1.347   9.434  17.903  0.00  0.00    +0.000 A 
ATOM      6  C   UNL     1       2.130   8.286  17.777  0.00  0.00    +0.000 A 
ATOM      7  C   UNL     1       2.424   7.500  18.897  0.00  0.00    +0.000 A 
ATOM      8  C   UNL     1       1.894   7.874  20.145  0.00  0.00    +0.000 A 
BRANCH   3  10
ATOM      9  C   UNL     1      -0.490   8.630  22.006  0.00  0.00    +0.000 C 
ATOM     10  O   UNL     1       0.516   9.457  21.431  0.00  0.00    +0.000 OA
ENDBRANCH   3  10
ENDBRANCH   1   7
BRANCH   2  11
ATOM     11  C   UNL     1       3.732   4.079  17.743  0.00  0.00    +0.000 C 
ATOM     12  O   UNL     1       3.340   2.973  18.100  0.00  0.00    +0.000 OA
BRANCH  11  13
ATOM     13  C   UNL     1       5.103   4.265  17.199  0.00  0.00    +0.000 A 
ATOM     14  C   UNL     1       6.159   4.466  18.084  0.00  0.00    +0.000 A 
ATOM     15  C   UNL     1       7.424   4.642  17.550  0.00  0.00    +0.000 A 
ATOM     16  N   UNL     1       7.688   4.623  16.224  0.00  0.00    +0.000 NA
ATOM     17  C   UNL     1       6.649   4.402  15.393  0.00  0.00    +0.000 A 
ATOM     18  C   UNL     1       5.349   4.217  15.825  0.00  0.00    +0.000 A 
ENDBRANCH  11  13
ENDBRANCH   2  11
TORSDOF 4
ENDMDL
MODEL 2
REMARK VINA RESULT:      -6.8      0.382      1.174
REMARK  Name = 
REMARK  5 active torsions:
REMARK  status: ('A' for Active; 'I' for Inactive)
REMARK    1  A    between atoms: C_1  and  O_2
REMARK    2  A    between atoms: O_2  and  C_3
REMARK    3  A    between atoms: C_7  and  C_8
REMARK    4  A    between atoms: C_9  and  C_10
REMARK    5  A    between atoms: C_10  and  C_12
REMARK                            x       y       z     vdW  Elec       q    Type
REMARK                         _______ _______ _______ _____ _____    ______ ____
ROOT
ATOM      1  C   UNL     1       3.045   6.433  19.025  0.00  0.00    +0.000 C 
ATOM      2  C   UNL     1       2.976   5.557  18.013  0.00  0.00    +0.000 C 
ENDROOT
BRANCH   1   7
ATOM      3  C   UNL     1       0.901   9.320  20.240  0.00  0.00    +0.000 A 
ATOM      4  C   UNL     1       0.723  10.020  19.047  0.00  0.00    +0.000 A 
ATOM      5  C   UNL     1       1.296   9.559  17.862  0.00  0.00    +0.000 A 
ATOM      6  C   UNL     1       2.055   8.388  17.865  0.00  0.00    +0.000 A 
ATOM      7  C   UNL     1       2.264   7.681  19.055  0.00  0.00    +0.000 A 
ATOM      8  C   UNL     1       1.672   8.156  20.238  0.00  0.00    +0.000 A 
BRANCH   3  10
ATOM      9  C   UNL     1       0.242   9.077  22.515  0.00  0.00    +0.000 C 
ATOM     10  O   UNL     1       0.263   9.857  21.324  0.00  0.00    +0.000 OA
ENDBRANCH   3  10
ENDBRANCH   1   7
BRANCH   2  11
ATOM     11  C   UNL     1       3.773   4.301  18.027  0.00  0.00    +0.000 C 
ATOM     12  O   UNL     1       3.354   3.259  18.519  0.00  0.00    +0.000 OA
BRANCH  11  13
ATOM     13  C   UNL     1       5.141   4.380  17.453  0.00  0.00    +0.000 A 
ATOM     14  C   UNL     1       5.307   4.227  16.078  0.00  0.00    +0.000 A 
ATOM     15  C   UNL     1       6.593   4.300  15.572  0.00  0.00    +0.000 A 
ATOM     16  N   UNL     1       7.688   4.516  16.333  0.00  0.00    +0.000 NA
ATOM     17  C   UNL     1       7.494   4.684  17.658  0.00  0.00    +0.000 A 
ATOM     18  C   UNL     1       6.253   4.628  18.262  0.00  0.00    +0.000 A 
ENDBRANCH  11  13
ENDBRANCH   2  11
TORSDOF 4
ENDMDL
MODEL 3
REMARK VINA RESULT:      -6.7      3.839      4.635
REMARK  Name = 
REMARK  5 active torsions:
REMARK  status: ('A' for Active; 'I' for Inactive)
REMARK    1  A    between atoms: C_1  and  O_2
REMARK    2  A    between atoms: O_2  and  C_3
REMARK    3  A    between atoms: C_7  and  C_8
REMARK    4  A    between atoms: C_9  and  C_10
REMARK    5  A    between atoms: C_10  and  C_12
REMARK                            x       y       z     vdW  Elec       q    Type
REMARK                         _______ _______ _______ _____ _____    ______ ____
ROOT
ATOM      1  C   UNL     1       5.106   4.423  17.468  0.00  0.00    +0.000 C 
ATOM      2  C   UNL     1       5.231   5.234  16.407  0.00  0.00    +0.000 C 
ENDROOT
BRANCH   1   7
ATOM      3  C   UNL     1       2.542   3.764  20.187  0.00  0.00    +0.000 A 
ATOM      4  C   UNL     1       1.373   3.727  19.428  0.00  0.00    +0.000 A 
ATOM      5  C   UNL     1       1.420   3.916  18.047  0.00  0.00    +0.000 A 
ATOM      6  C   UNL     1       2.643   4.147  17.416  0.00  0.00    +0.000 A 
ATOM      7  C   UNL     1       3.826   4.208  18.162  0.00  0.00    +0.000 A 
ATOM      8  C   UNL     1       3.762   4.007  19.552  0.00  0.00    +0.000 A 
BRANCH   3  10
ATOM      9  C   UNL     1       1.415   2.541  21.890  0.00  0.00    +0.000 C 
ATOM     10  O   UNL     1       2.367   3.534  21.524  0.00  0.00    +0.000 OA
ENDBRANCH   3  10
ENDBRANCH   1   7
BRANCH   2  11
ATOM     11  C   UNL     1       6.541   5.415  15.727  0.00  0.00    +0.000 C 
ATOM     12  O   UNL     1       7.472   6.026  16.240  0.00  0.00    +0.000 OA
BRANCH  11  13
ATOM     13  C   UNL     1       6.657   4.854  14.355  0.00  0.00    +0.000 A 
ATOM     14  C   UNL     1       5.745   3.886  13.942  0.00  0.00    +0.000 A 
ATOM     15  C   UNL     1       5.879   3.379  12.661  0.00  0.00    +0.000 A 
ATOM     16  N   UNL     1       6.838   3.774  11.794  0.00  0.00    +0.000 NA
ATOM     17  C   UNL     1       7.692   4.730  12.214  0.00  0.00    +0.000 A 
ATOM     18  C   UNL     1       7.643   5.300  13.472  0.00  0.00    +0.000 A 
ENDBRANCH  11  13
ENDBRANCH   2  11
TORSDOF 4
ENDMDL
MODEL 4
REMARK VINA RESULT:      -6.7      3.935      7.541
REMARK  Name = 
REMARK  5 active torsions:
REMARK  status: ('A' for Active; 'I' for Inactive)
REMARK    1  A    between atoms: C_1  and  O_2
REMARK    2  A    between atoms: O_2  and  C_3
REMARK    3  A    between atoms: C_7  and  C_8
REMARK    4  A    between atoms: C_9  and  C_10
REMARK    5  A    between atoms: C_10  and  C_12
REMARK                            x       y       z     vdW  Elec       q    Type
REMARK                         _______ _______ _______ _____ _____    ______ ____
ROOT
ATOM      1  C   UNL     1       6.136   4.750  16.052  0.00  0.00    +0.000 C 
ATOM      2  C   UNL     1       5.335   3.938  16.756  0.00  0.00    +0.000 C 
ENDROOT
BRANCH   1   7
ATOM      3  C   UNL     1       5.942   3.475  12.483  0.00  0.00    +0.000 A 
ATOM      4  C   UNL     1       7.003   4.173  11.908  0.00  0.00    +0.000 A 
ATOM      5  C   UNL     1       7.772   5.050  12.674  0.00  0.00    +0.000 A 
ATOM      6  C   UNL     1       7.479   5.234  14.026  0.00  0.00    +0.000 A 
ATOM      7  C   UNL     1       6.405   4.559  14.618  0.00  0.00    +0.000 A 
ATOM      8  C   UNL     1       5.646   3.674  13.834  0.00  0.00    +0.000 A 
BRANCH   3  10
ATOM      9  C   UNL     1       4.049   3.076  11.095  0.00  0.00    +0.000 C 
ATOM     10  O   UNL     1       5.286   2.624  11.636  0.00  0.00    +0.000 OA
ENDBRANCH   3  10
ENDBRANCH   1   7
BRANCH   2  11
ATOM     11  C   UNL     1       5.079   4.173  18.202  0.00  0.00    +0.000 C 
ATOM     12  O   UNL     1       5.981   4.378  19.007  0.00  0.00    +0.000 OA
BRANCH  11  13
ATOM     13  C   UNL     1       3.662   4.097  18.644  0.00  0.00    +0.000 A 
ATOM     14  C   UNL     1       3.277   4.778  19.797  0.00  0.00    +0.000 A 
ATOM     15  C   UNL     1       1.952   4.686  20.188  0.00  0.00    +0.000 A 
ATOM     16  N   UNL     1       1.018   3.980  19.513  0.00  0.00    +0.000 NA
ATOM     17  C   UNL     1       1.415   3.351  18.387  0.00  0.00    +0.000 A 
ATOM     18  C   UNL     1       2.713   3.379  17.913  0.00  0.00    +0.000 A 
ENDBRANCH  11  13
ENDBRANCH   2  11
TORSDOF 4
ENDMDL
MODEL 5
REMARK VINA RESULT:      -6.7      6.030      7.210
REMARK  Name = 
REMARK  5 active torsions:
REMARK  status: ('A' for Active; 'I' for Inactive)
REMARK    1  A    between atoms: C_1  and  O_2
REMARK    2  A    between atoms: O_2  and  C_3
REMARK    3  A    between atoms: C_7  and  C_8
REMARK    4  A    between atoms: C_9  and  C_10
REMARK    5  A    between atoms: C_10  and  C_12
REMARK                            x       y       z     vdW  Elec       q    Type
REMARK                         _______ _______ _______ _____ _____    ______ ____
ROOT
ATOM      1  C   UNL     1       8.057   9.245  17.587  0.00  0.00    +0.000 C 
ATOM      2  C   UNL     1       7.982   7.991  18.055  0.00  0.00    +0.000 C 
ENDROOT
BRANCH   1   7
ATOM      3  C   UNL     1       9.475  12.645  18.499  0.00  0.00    +0.000 A 
ATOM      4  C   UNL     1      10.024  12.362  19.749  0.00  0.00    +0.000 A 
ATOM      5  C   UNL     1       9.932  11.079  20.289  0.00  0.00    +0.000 A 
ATOM      6  C   UNL     1       9.285  10.069  19.577  0.00  0.00    +0.000 A 
ATOM      7  C   UNL     1       8.709  10.336  18.330  0.00  0.00    +0.000 A 
ATOM      8  C   UNL     1       8.818  11.633  17.798  0.00  0.00    +0.000 A 
BRANCH   3  10
ATOM      9  C   UNL     1      10.988  14.439  18.097  0.00  0.00    +0.000 C 
ATOM     10  O   UNL     1       9.659  13.930  18.068  0.00  0.00    +0.000 OA
ENDBRANCH   3  10
ENDBRANCH   1   7
BRANCH   2  11
ATOM     11  C   UNL     1       7.325   6.914  17.267  0.00  0.00    +0.000 C 
ATOM     12  O   UNL     1       7.760   6.528  16.187  0.00  0.00    +0.000 OA
BRANCH  11  13
ATOM     13  C   UNL     1       6.071   6.352  17.832  0.00  0.00    +0.000 A 
ATOM     14  C   UNL     1       4.850   6.749  17.294  0.00  0.00    +0.000 A 
ATOM     15  C   UNL     1       3.698   6.213  17.843  0.00  0.00    +0.000 A 
ATOM     16  N   UNL     1       3.695   5.327  18.863  0.00  0.00    +0.000 NA
ATOM     17  C   UNL     1       4.894   4.942  19.348  0.00  0.00    +0.000 A 
ATOM     18  C   UNL     1       6.100   5.418  18.871  0.00  0.00    +0.000 A 
ENDBRANCH  11  13
ENDBRANCH   2  11
TORSDOF 4
ENDMDL
MODEL 6
REMARK VINA RESULT:      -6.7      6.022      7.322
REMARK  Name = 
REMARK  5 active torsions:
REMARK  status: ('A' for Active; 'I' for Inactive)
REMARK    1  A    between atoms: C_1  and  O_2
REMARK    2  A    between atoms: O_2  and  C_3
REMARK    3  A    between atoms: C_7  and  C_8
REMARK    4  A    between atoms: C_9  and  C_10
REMARK    5  A    between atoms: C_10  and  C_12
REMARK                            x       y       z     vdW  Elec       q    Type
REMARK                         _______ _______ _______ _____ _____    ______ ____
ROOT
ATOM      1  C   UNL     1       8.251   9.203  17.633  0.00  0.00    +0.000 C 
ATOM      2  C   UNL     1       7.982   7.985  18.126  0.00  0.00    +0.000 C 
ENDROOT
BRANCH   1   7
ATOM      3  C   UNL     1      10.102  12.381  18.568  0.00  0.00    +0.000 A 
ATOM      4  C   UNL     1      10.272  12.180  19.938  0.00  0.00    +0.000 A 
ATOM      5  C   UNL     1       9.789  11.022  20.549  0.00  0.00    +0.000 A 
ATOM      6  C   UNL     1       9.127  10.057  19.789  0.00  0.00    +0.000 A 
ATOM      7  C   UNL     1       8.927  10.249  18.417  0.00  0.00    +0.000 A 
ATOM      8  C   UNL     1       9.427  11.417  17.816  0.00  0.00    +0.000 A 
BRANCH   3  10
ATOM      9  C   UNL     1      11.230  13.486  16.787  0.00  0.00    +0.000 C 
ATOM     10  O   UNL     1      10.647  13.539  18.085  0.00  0.00    +0.000 OA
ENDBRANCH   3  10
ENDBRANCH   1   7
BRANCH   2  11
ATOM     11  C   UNL     1       7.308   6.951  17.297  0.00  0.00    +0.000 C 
ATOM     12  O   UNL     1       7.747   6.587  16.211  0.00  0.00    +0.000 OA
BRANCH  11  13
ATOM     13  C   UNL     1       6.032   6.405  17.828  0.00  0.00    +0.000 A 
ATOM     14  C   UNL     1       6.073   5.495  18.881  0.00  0.00    +0.000 A 
ATOM     15  C   UNL     1       4.870   4.999  19.353  0.00  0.00    +0.000 A 
ATOM     16  N   UNL     1       3.665   5.352  18.853  0.00  0.00    +0.000 NA
ATOM     17  C   UNL     1       3.655   6.253  17.849  0.00  0.00    +0.000 A 
ATOM     18  C   UNL     1       4.799   6.807  17.307  0.00  0.00    +0.000 A 
ENDBRANCH  11  13
ENDBRANCH   2  11
TORSDOF 4
ENDMDL
MODEL 7
REMARK VINA RESULT:      -6.6      3.225      6.968
REMARK  Name = 
REMARK  5 active torsions:
REMARK  status: ('A' for Active; 'I' for Inactive)
REMARK    1  A    between atoms: C_1  and  O_2
REMARK    2  A    between atoms: O_2  and  C_3
REMARK    3  A    between atoms: C_7  and  C_8
REMARK    4  A    between atoms: C_9  and  C_10
REMARK    5  A    between atoms: C_10  and  C_12
REMARK                            x       y       z     vdW  Elec       q    Type
REMARK                         _______ _______ _______ _____ _____    ______ ____
ROOT
ATOM      1  C   UNL     1       4.424   5.203  17.906  0.00  0.00    +0.000 C 
ATOM      2  C   UNL     1       3.392   6.058  17.924  0.00  0.00    +0.000 C 
ENDROOT
BRANCH   1   7
ATOM      3  C   UNL     1       5.741   4.311  14.460  0.00  0.00    +0.000 A 
ATOM      4  C   UNL     1       7.069   4.715  14.586  0.00  0.00    +0.000 A 
ATOM      5  C   UNL     1       7.530   5.273  15.779  0.00  0.00    +0.000 A 
ATOM      6  C   UNL     1       6.658   5.431  16.857  0.00  0.00    +0.000 A 
ATOM      7  C   UNL     1       5.316   5.051  16.745  0.00  0.00    +0.000 A 
ATOM      8  C   UNL     1       4.870   4.484  15.538  0.00  0.00    +0.000 A 
BRANCH   3  10
ATOM      9  C   UNL     1       6.484   3.564  12.326  0.00  0.00    +0.000 C 
ATOM     10  O   UNL     1       5.421   3.752  13.254  0.00  0.00    +0.000 OA
ENDBRANCH   3  10
ENDBRANCH   1   7
BRANCH   2  11
ATOM     11  C   UNL     1       2.523   6.190  19.123  0.00  0.00    +0.000 C 
ATOM     12  O   UNL     1       2.209   7.277  19.595  0.00  0.00    +0.000 OA
BRANCH  11  13
ATOM     13  C   UNL     1       2.083   4.923  19.764  0.00  0.00    +0.000 A 
ATOM     14  C   UNL     1       2.447   4.672  21.085  0.00  0.00    +0.000 A 
ATOM     15  C   UNL     1       2.028   3.482  21.655  0.00  0.00    +0.000 A 
ATOM     16  N   UNL     1       1.285   2.559  21.004  0.00  0.00    +0.000 NA
ATOM     17  C   UNL     1       0.928   2.840  19.733  0.00  0.00    +0.000 A 
ATOM     18  C   UNL     1       1.296   3.998  19.074  0.00  0.00    +0.000 A 
ENDBRANCH  11  13
ENDBRANCH   2  11
TORSDOF 4
ENDMDL
MODEL 8
REMARK VINA RESULT:      -6.6      4.069      7.792
REMARK  Name = 
REMARK  5 active torsions:
REMARK  status: ('A' for Active; 'I' for Inactive)
REMARK    1  A    between atoms: C_1  and  O_2
REMARK    2  A    between atoms: O_2  and  C_3
REMARK    3  A    between atoms: C_7  and  C_8
REMARK    4  A    between atoms: C_9  and  C_10
REMARK    5  A    between atoms: C_10  and  C_12
REMARK                            x       y       z     vdW  Elec       q    Type
REMARK                         _______ _______ _______ _____ _____    ______ ____
ROOT
ATOM      1  C   UNL     1       5.414   4.829  15.681  0.00  0.00    +0.000 C 
ATOM      2  C   UNL     1       5.587   4.030  16.744  0.00  0.00    +0.000 C 
ENDROOT
BRANCH   1   7
ATOM      3  C   UNL     1       5.984   3.260  12.272  0.00  0.00    +0.000 A 
ATOM      4  C   UNL     1       7.138   3.935  11.874  0.00  0.00    +0.000 A 
ATOM      5  C   UNL     1       7.722   4.890  12.706  0.00  0.00    +0.000 A 
ATOM      6  C   UNL     1       7.150   5.178  13.946  0.00  0.00    +0.000 A 
ATOM      7  C   UNL     1       5.980   4.527  14.356  0.00  0.00    +0.000 A 
ATOM      8  C   UNL     1       5.409   3.562  13.509  0.00  0.00    +0.000 A 
BRANCH   3  10
ATOM      9  C   UNL     1       6.373   1.212  11.123  0.00  0.00    +0.000 C 
ATOM     10  O   UNL     1       5.527   2.327  11.382  0.00  0.00    +0.000 OA
ENDBRANCH   3  10
ENDBRANCH   1   7
BRANCH   2  11
ATOM     11  C   UNL     1       4.987   4.365  18.063  0.00  0.00    +0.000 C 
ATOM     12  O   UNL     1       5.576   5.035  18.905  0.00  0.00    +0.000 OA
BRANCH  11  13
ATOM     13  C   UNL     1       3.640   3.802  18.339  0.00  0.00    +0.000 A 
ATOM     14  C   UNL     1       3.540   2.608  19.049  0.00  0.00    +0.000 A 
ATOM     15  C   UNL     1       2.273   2.103  19.288  0.00  0.00    +0.000 A 
ATOM     16  N   UNL     1       1.136   2.706  18.876  0.00  0.00    +0.000 NA
ATOM     17  C   UNL     1       1.263   3.874  18.212  0.00  0.00    +0.000 A 
ATOM     18  C   UNL     1       2.480   4.460  17.922  0.00  0.00    +0.000 A 
ENDBRANCH  11  13
ENDBRANCH   2  11
TORSDOF 4
ENDMDL
MODEL 9
REMARK VINA RESULT:      -6.6      1.066      2.088
REMARK  Name = 
REMARK  5 active torsions:
REMARK  status: ('A' for Active; 'I' for Inactive)
REMARK    1  A    between atoms: C_1  and  O_2
REMARK    2  A    between atoms: O_2  and  C_3
REMARK    3  A    between atoms: C_7  and  C_8
REMARK    4  A    between atoms: C_9  and  C_10
REMARK    5  A    between atoms: C_10  and  C_12
REMARK                            x       y       z     vdW  Elec       q    Type
REMARK                         _______ _______ _______ _____ _____    ______ ____
ROOT
ATOM      1  C   UNL     1       2.746   6.321  17.882  0.00  0.00    +0.000 C 
ATOM      2  C   UNL     1       3.099   5.124  18.375  0.00  0.00    +0.000 C 
ENDROOT
BRANCH   1   7
ATOM      3  C   UNL     1       1.298   9.650  18.989  0.00  0.00    +0.000 A 
ATOM      4  C   UNL     1       1.113   9.404  20.349  0.00  0.00    +0.000 A 
ATOM      5  C   UNL     1       1.454   8.168  20.898  0.00  0.00    +0.000 A 
ATOM      6  C   UNL     1       1.984   7.166  20.084  0.00  0.00    +0.000 A 
ATOM      7  C   UNL     1       2.159   7.384  18.712  0.00  0.00    +0.000 A 
ATOM      8  C   UNL     1       1.817   8.638  18.177  0.00  0.00    +0.000 A 
BRANCH   3  10
ATOM      9  C   UNL     1      -0.415  11.278  18.704  0.00  0.00    +0.000 C 
ATOM     10  O   UNL     1       0.955  10.909  18.579  0.00  0.00    +0.000 OA
ENDBRANCH   3  10
ENDBRANCH   1   7
BRANCH   2  11
ATOM     11  C   UNL     1       3.701   4.081  17.503  0.00  0.00    +0.000 C 
ATOM     12  O   UNL     1       3.085   3.082  17.148  0.00  0.00    +0.000 OA
BRANCH  11  13
ATOM     13  C   UNL     1       5.122   4.281  17.116  0.00  0.00    +0.000 A 
ATOM     14  C   UNL     1       5.472   4.211  15.770  0.00  0.00    +0.000 A 
ATOM     15  C   UNL     1       6.803   4.397  15.439  0.00  0.00    +0.000 A 
ATOM     16  N   UNL     1       7.773   4.646  16.345  0.00  0.00    +0.000 NA
ATOM     17  C   UNL     1       7.401   4.732  17.639  0.00  0.00    +0.000 A 
ATOM     18  C   UNL     1       6.100   4.562  18.073  0.00  0.00    +0.000 A 
ENDBRANCH  11  13
ENDBRANCH   2  11
TORSDOF 4
ENDMDL
