MODEL 1
REMARK VINA RESULT:      -8.0      0.000      0.000
REMARK  Name = 
REMARK  6 active torsions:
REMARK  status: ('A' for Active; 'I' for Inactive)
REMARK    1  A    between atoms: C_1  and  C_2
REMARK    2  A    between atoms: C_2  and  C_3
REMARK    3  A    between atoms: N_15  and  C_16
REMARK    4  A    between atoms: C_16  and  C_17
REMARK    5  A    between atoms: C_17  and  C_18
REMARK    6  A    between atoms: C_18  and  C_19
REMARK                            x       y       z     vdW  Elec       q    Type
REMARK                         _______ _______ _______ _____ _____    ______ ____
ROOT
ATOM      1  C   UNL     1       4.921   5.740  15.813  0.00  0.00    +0.000 C 
ATOM      2  C   UNL     1       6.397   5.266  15.800  0.00  0.00    +0.000 C 
ATOM      3  C   UNL     1       7.301   6.424  16.325  0.00  0.00    +0.000 C 
ATOM      4  C   UNL     1       7.083   6.756  17.801  0.00  0.00    +0.000 C 
ATOM      5  C   UNL     1       7.229   5.508  18.662  0.00  0.00    +0.000 C 
ATOM      6  N   UNL     1       6.357   4.437  18.184  0.00  0.00    +0.000 N 
ATOM      7  C   UNL     1       5.386   3.965  19.055  0.00  0.00    +0.000 C 
ATOM      8  O   UNL     1       5.209   4.438  20.172  0.00  0.00    +0.000 OA
ATOM      9  N   UNL     1       4.611   2.933  18.591  0.00  0.00    +0.000 N 
ATOM     10  C   UNL     1       6.559   4.056  16.774  0.00  0.00    +0.000 C 
ATOM     11  H   UNL     1       5.032   2.320  17.914  0.00  0.00    +0.000 HD
ENDROOT
BRANCH   2  12
ATOM     12  C   UNL     1       6.743   4.854  14.347  0.00  0.00    +0.000 A 
ATOM     13  C   UNL     1       7.721   5.516  13.581  0.00  0.00    +0.000 A 
ATOM     14  C   UNL     1       7.944   5.189  12.237  0.00  0.00    +0.000 A 
ATOM     15  C   UNL     1       7.194   4.190  11.627  0.00  0.00    +0.000 A 
ATOM     16  C   UNL     1       6.238   3.503  12.365  0.00  0.00    +0.000 A 
ATOM     17  C   UNL     1       6.024   3.825  13.709  0.00  0.00    +0.000 A 
ENDBRANCH   2  12
BRANCH   9  18
ATOM     18  C   UNL     1       3.582   2.348  19.436  0.00  0.00    +0.000 C 
BRANCH  18  19
ATOM     19  C   UNL     1       2.315   2.033  18.644  0.00  0.00    +0.000 C 
BRANCH  19  20
ATOM     20  C   UNL     1       1.157   2.946  19.054  0.00  0.00    +0.000 C 
BRANCH  20  21
ATOM     21  C   UNL     1       1.603   4.374  19.212  0.00  0.00    +0.000 A 
ATOM     22  C   UNL     1       1.992   5.141  18.111  0.00  0.00    +0.000 A 
ATOM     23  C   UNL     1       2.363   6.470  18.292  0.00  0.00    +0.000 A 
ATOM     24  C   UNL     1       2.333   6.992  19.575  0.00  0.00    +0.000 A 
ATOM     25  N   UNL     1       1.967   6.284  20.664  0.00  0.00    +0.000 NA
ATOM     26  C   UNL     1       1.607   4.996  20.458  0.00  0.00    +0.000 A 
ENDBRANCH  20  21
ENDBRANCH  19  20
ENDBRANCH  18  19
ENDBRANCH   9  18
TORSDOF 5
ENDMDL
MODEL 2
REMARK VINA RESULT:      -7.9      3.692      7.731
REMARK  Name = 
REMARK  6 active torsions:
REMARK  status: ('A' for Active; 'I' for Inactive)
REMARK    1  A    between atoms: C_1  and  C_2
REMARK    2  A    between atoms: C_2  and  C_3
REMARK    3  A    between atoms: N_15  and  C_16
REMARK    4  A    between atoms: C_16  and  C_17
REMARK    5  A    between atoms: C_17  and  C_18
REMARK    6  A    between atoms: C_18  and  C_19
REMARK                            x       y       z     vdW  Elec       q    Type
REMARK                         _______ _______ _______ _____ _____    ______ ____
ROOT
ATOM      1  C   UNL     1       3.591   6.105  17.953  0.00  0.00    +0.000 C 
ATOM      2  C   UNL     1       3.982   4.622  18.181  0.00  0.00    +0.000 C 
ATOM      3  C   UNL     1       3.710   3.823  16.869  0.00  0.00    +0.000 C 
ATOM      4  C   UNL     1       4.620   4.220  15.707  0.00  0.00    +0.000 C 
ATOM      5  C   UNL     1       6.085   4.132  16.113  0.00  0.00    +0.000 C 
ATOM      6  N   UNL     1       6.340   4.907  17.326  0.00  0.00    +0.000 N 
ATOM      7  C   UNL     1       7.243   5.954  17.238  0.00  0.00    +0.000 C 
ATOM      8  O   UNL     1       7.791   6.275  16.188  0.00  0.00    +0.000 OA
ATOM      9  N   UNL     1       7.490   6.636  18.402  0.00  0.00    +0.000 N 
ATOM     10  C   UNL     1       5.510   4.532  18.486  0.00  0.00    +0.000 C 
ATOM     11  H   UNL     1       7.388   6.120  19.259  0.00  0.00    +0.000 HD
ENDROOT
BRANCH   2  12
ATOM     12  C   UNL     1       3.149   4.098  19.379  0.00  0.00    +0.000 A 
ATOM     13  C   UNL     1       3.602   3.073  20.231  0.00  0.00    +0.000 A 
ATOM     14  C   UNL     1       2.789   2.549  21.243  0.00  0.00    +0.000 A 
ATOM     15  C   UNL     1       1.501   3.038  21.429  0.00  0.00    +0.000 A 
ATOM     16  C   UNL     1       1.035   4.065  20.619  0.00  0.00    +0.000 A 
ATOM     17  C   UNL     1       1.852   4.595  19.614  0.00  0.00    +0.000 A 
ENDBRANCH   2  12
BRANCH   9  18
ATOM     18  C   UNL     1       8.444   7.735  18.424  0.00  0.00    +0.000 C 
BRANCH  18  19
ATOM     19  C   UNL     1       7.752   9.083  18.231  0.00  0.00    +0.000 C 
BRANCH  19  20
ATOM     20  C   UNL     1       8.686  10.103  17.573  0.00  0.00    +0.000 C 
BRANCH  20  21
ATOM     21  C   UNL     1       9.573  10.778  18.583  0.00  0.00    +0.000 A 
ATOM     22  C   UNL     1      10.784  11.367  18.211  0.00  0.00    +0.000 A 
ATOM     23  C   UNL     1      11.560  12.016  19.167  0.00  0.00    +0.000 A 
ATOM     24  C   UNL     1      11.097  12.054  20.472  0.00  0.00    +0.000 A 
ATOM     25  N   UNL     1       9.936  11.495  20.873  0.00  0.00    +0.000 NA
ATOM     26  C   UNL     1       9.200  10.875  19.921  0.00  0.00    +0.000 A 
ENDBRANCH  20  21
ENDBRANCH  19  20
ENDBRANCH  18  19
ENDBRANCH   9  18
TORSDOF 5
ENDMDL
MODEL 3
REMARK VINA RESULT:      -7.9      4.156      8.051
REMARK  Name = 
REMARK  6 active torsions:
REMARK  status: ('A' for Active; 'I' for Inactive)
REMARK    1  A    between atoms: C_1  and  C_2
REMARK    2  A    between atoms: C_2  and  C_3
REMARK    3  A    between atoms: N_15  and  C_16
REMARK    4  A    between atoms: C_16  and  C_17
REMARK    5  A    between atoms: C_17  and  C_18
REMARK    6  A    between atoms: C_18  and  C_19
REMARK                            x       y       z     vdW  Elec       q    Type
REMARK                         _______ _______ _______ _____ _____    ______ ____
ROOT
ATOM      1  C   UNL     1       3.736   5.998  17.474  0.00  0.00    +0.000 C 
ATOM      2  C   UNL     1       4.453   4.787  18.126  0.00  0.00    +0.000 C 
ATOM      3  C   UNL     1       4.596   3.656  17.061  0.00  0.00    +0.000 C 
ATOM      4  C   UNL     1       5.541   4.008  15.912  0.00  0.00    +0.000 C 
ATOM      5  C   UNL     1       6.901   4.441  16.445  0.00  0.00    +0.000 C 
ATOM      6  N   UNL     1       6.762   5.521  17.419  0.00  0.00    +0.000 N 
ATOM      7  C   UNL     1       7.372   6.731  17.125  0.00  0.00    +0.000 C 
ATOM      8  O   UNL     1       7.973   6.935  16.075  0.00  0.00    +0.000 OA
ATOM      9  N   UNL     1       7.256   7.711  18.077  0.00  0.00    +0.000 N 
ATOM     10  C   UNL     1       5.889   5.212  18.567  0.00  0.00    +0.000 C 
ATOM     11  H   UNL     1       7.160   7.407  19.030  0.00  0.00    +0.000 HD
ENDROOT
BRANCH   2  12
ATOM     12  C   UNL     1       3.608   4.347  19.349  0.00  0.00    +0.000 A 
ATOM     13  C   UNL     1       3.553   3.013  19.796  0.00  0.00    +0.000 A 
ATOM     14  C   UNL     1       2.705   2.626  20.841  0.00  0.00    +0.000 A 
ATOM     15  C   UNL     1       1.891   3.563  21.465  0.00  0.00    +0.000 A 
ATOM     16  C   UNL     1       1.941   4.891  21.061  0.00  0.00    +0.000 A 
ATOM     17  C   UNL     1       2.796   5.279  20.024  0.00  0.00    +0.000 A 
ENDBRANCH   2  12
BRANCH   9  18
ATOM     18  C   UNL     1       7.884   9.009  17.878  0.00  0.00    +0.000 C 
BRANCH  18  19
ATOM     19  C   UNL     1       9.100   9.190  18.783  0.00  0.00    +0.000 C 
BRANCH  19  20
ATOM     20  C   UNL     1       9.049  10.526  19.530  0.00  0.00    +0.000 C 
BRANCH  20  21
ATOM     21  C   UNL     1       9.707  11.628  18.745  0.00  0.00    +0.000 A 
ATOM     22  C   UNL     1      11.011  11.499  18.262  0.00  0.00    +0.000 A 
ATOM     23  C   UNL     1      11.574  12.525  17.508  0.00  0.00    +0.000 A 
ATOM     24  C   UNL     1      10.808  13.652  17.259  0.00  0.00    +0.000 A 
ATOM     25  N   UNL     1       9.546  13.817  17.709  0.00  0.00    +0.000 NA
ATOM     26  C   UNL     1       9.025  12.802  18.436  0.00  0.00    +0.000 A 
ENDBRANCH  20  21
ENDBRANCH  19  20
ENDBRANCH  18  19
ENDBRANCH   9  18
TORSDOF 5
ENDMDL
MODEL 4
REMARK VINA RESULT:      -7.9      4.150      8.137
REMARK  Name = 
REMARK  6 active torsions:
REMARK  status: ('A' for Active; 'I' for Inactive)
REMARK    1  A    between atoms: C_1  and  C_2
REMARK    2  A    between atoms: C_2  and  C_3
REMARK    3  A    between atoms: N_15  and  C_16
REMARK    4  A    between atoms: C_16  and  C_17
REMARK    5  A    between atoms: C_17  and  C_18
REMARK    6  A    between atoms: C_18  and  C_19
REMARK                            x       y       z     vdW  Elec       q    Type
REMARK                         _______ _______ _______ _____ _____    ______ ____
ROOT
ATOM      1  C   UNL     1       3.659   5.941  17.488  0.00  0.00    +0.000 C 
ATOM      2  C   UNL     1       4.375   4.675  18.025  0.00  0.00    +0.000 C 
ATOM      3  C   UNL     1       4.408   3.599  16.896  0.00  0.00    +0.000 C 
ATOM      4  C   UNL     1       5.285   3.983  15.705  0.00  0.00    +0.000 C 
ATOM      5  C   UNL     1       6.692   4.345  16.163  0.00  0.00    +0.000 C 
ATOM      6  N   UNL     1       6.656   5.376  17.199  0.00  0.00    +0.000 N 
ATOM      7  C   UNL     1       7.285   6.580  16.926  0.00  0.00    +0.000 C 
ATOM      8  O   UNL     1       7.821   6.822  15.849  0.00  0.00    +0.000 OA
ATOM      9  N   UNL     1       7.268   7.511  17.933  0.00  0.00    +0.000 N 
ATOM     10  C   UNL     1       5.852   5.032  18.387  0.00  0.00    +0.000 C 
ATOM     11  H   UNL     1       7.225   7.159  18.874  0.00  0.00    +0.000 HD
ENDROOT
BRANCH   2  12
ATOM     12  C   UNL     1       3.601   4.196  19.279  0.00  0.00    +0.000 A 
ATOM     13  C   UNL     1       2.645   4.995  19.935  0.00  0.00    +0.000 A 
ATOM     14  C   UNL     1       2.034   4.577  21.124  0.00  0.00    +0.000 A 
ATOM     15  C   UNL     1       2.363   3.350  21.686  0.00  0.00    +0.000 A 
ATOM     16  C   UNL     1       3.286   2.530  21.049  0.00  0.00    +0.000 A 
ATOM     17  C   UNL     1       3.889   2.944  19.856  0.00  0.00    +0.000 A 
ENDBRANCH   2  12
BRANCH   9  18
ATOM     18  C   UNL     1       7.924   8.798  17.758  0.00  0.00    +0.000 C 
BRANCH  18  19
ATOM     19  C   UNL     1       8.908   9.086  18.890  0.00  0.00    +0.000 C 
BRANCH  19  20
ATOM     20  C   UNL     1       8.818  10.542  19.354  0.00  0.00    +0.000 C 
BRANCH  20  21
ATOM     21  C   UNL     1      10.064  11.313  19.013  0.00  0.00    +0.000 A 
ATOM     22  C   UNL     1      11.114  11.440  19.925  0.00  0.00    +0.000 A 
ATOM     23  C   UNL     1      12.267  12.129  19.560  0.00  0.00    +0.000 A 
ATOM     24  C   UNL     1      12.333  12.671  18.287  0.00  0.00    +0.000 A 
ATOM     25  N   UNL     1      11.340  12.573  17.377  0.00  0.00    +0.000 NA
ATOM     26  C   UNL     1      10.233  11.895  17.759  0.00  0.00    +0.000 A 
ENDBRANCH  20  21
ENDBRANCH  19  20
ENDBRANCH  18  19
ENDBRANCH   9  18
TORSDOF 5
ENDMDL
MODEL 5
REMARK VINA RESULT:      -7.8      3.722      7.591
REMARK  Name = 
REMARK  6 active torsions:
REMARK  status: ('A' for Active; 'I' for Inactive)
REMARK    1  A    between atoms: C_1  and  C_2
REMARK    2  A    between atoms: C_2  and  C_3
REMARK    3  A    between atoms: N_15  and  C_16
REMARK    4  A    between atoms: C_16  and  C_17
REMARK    5  A    between atoms: C_17  and  C_18
REMARK    6  A    between atoms: C_18  and  C_19
REMARK                            x       y       z     vdW  Elec       q    Type
REMARK                         _______ _______ _______ _____ _____    ______ ____
ROOT
ATOM      1  C   UNL     1       3.562   6.016  17.854  0.00  0.00    +0.000 C 
ATOM      2  C   UNL     1       3.945   4.527  18.054  0.00  0.00    +0.000 C 
ATOM      3  C   UNL     1       3.716   3.765  16.712  0.00  0.00    +0.000 C 
ATOM      4  C   UNL     1       4.665   4.193  15.592  0.00  0.00    +0.000 C 
ATOM      5  C   UNL     1       6.115   4.092  16.044  0.00  0.00    +0.000 C 
ATOM      6  N   UNL     1       6.330   4.833  17.285  0.00  0.00    +0.000 N 
ATOM      7  C   UNL     1       7.236   5.881  17.257  0.00  0.00    +0.000 C 
ATOM      8  O   UNL     1       7.818   6.230  16.235  0.00  0.00    +0.000 OA
ATOM      9  N   UNL     1       7.445   6.530  18.447  0.00  0.00    +0.000 N 
ATOM     10  C   UNL     1       5.462   4.426  18.407  0.00  0.00    +0.000 C 
ATOM     11  H   UNL     1       7.314   5.990  19.285  0.00  0.00    +0.000 HD
ENDROOT
BRANCH   2  12
ATOM     12  C   UNL     1       3.073   3.970  19.208  0.00  0.00    +0.000 A 
ATOM     13  C   UNL     1       1.751   4.396  19.437  0.00  0.00    +0.000 A 
ATOM     14  C   UNL     1       1.020   3.952  20.546  0.00  0.00    +0.000 A 
ATOM     15  C   UNL     1       1.594   3.069  21.454  0.00  0.00    +0.000 A 
ATOM     16  C   UNL     1       2.888   2.613  21.241  0.00  0.00    +0.000 A 
ATOM     17  C   UNL     1       3.614   3.050  20.127  0.00  0.00    +0.000 A 
ENDBRANCH   2  12
BRANCH   9  18
ATOM     18  C   UNL     1       8.397   7.627  18.531  0.00  0.00    +0.000 C 
BRANCH  18  19
ATOM     19  C   UNL     1       7.809   8.925  17.982  0.00  0.00    +0.000 C 
BRANCH  19  20
ATOM     20  C   UNL     1       8.908   9.922  17.603  0.00  0.00    +0.000 C 
BRANCH  20  21
ATOM     21  C   UNL     1       9.075  10.990  18.648  0.00  0.00    +0.000 A 
ATOM     22  C   UNL     1       9.488  10.682  19.946  0.00  0.00    +0.000 A 
ATOM     23  C   UNL     1       9.667  11.702  20.876  0.00  0.00    +0.000 A 
ATOM     24  C   UNL     1       9.426  13.006  20.474  0.00  0.00    +0.000 A 
ATOM     25  N   UNL     1       9.024  13.346  19.232  0.00  0.00    +0.000 NA
ATOM     26  C   UNL     1       8.862  12.334  18.348  0.00  0.00    +0.000 A 
ENDBRANCH  20  21
ENDBRANCH  19  20
ENDBRANCH  18  19
ENDBRANCH   9  18
TORSDOF 5
ENDMDL
MODEL 6
REMARK VINA RESULT:      -7.8      0.310      1.008
REMARK  Name = 
REMARK  6 active torsions:
REMARK  status: ('A' for Active; 'I' for Inactive)
REMARK    1  A    between atoms: C_1  and  C_2
REMARK    2  A    between atoms: C_2  and  C_3
REMARK    3  A    between atoms: N_15  and  C_16
REMARK    4  A    between atoms: C_16  and  C_17
REMARK    5  A    between atoms: C_17  and  C_18
REMARK    6  A    between atoms: C_18  and  C_19
REMARK                            x       y       z     vdW  Elec       q    Type
REMARK                         _______ _______ _______ _____ _____    ______ ____
ROOT
ATOM      1  C   UNL     1       4.833   5.768  15.901  0.00  0.00    +0.000 C 
ATOM      2  C   UNL     1       6.299   5.274  15.793  0.00  0.00    +0.000 C 
ATOM      3  C   UNL     1       7.250   6.422  16.252  0.00  0.00    +0.000 C 
ATOM      4  C   UNL     1       7.135   6.761  17.738  0.00  0.00    +0.000 C 
ATOM      5  C   UNL     1       7.320   5.514  18.592  0.00  0.00    +0.000 C 
ATOM      6  N   UNL     1       6.405   4.453  18.178  0.00  0.00    +0.000 N 
ATOM      7  C   UNL     1       5.488   3.997  19.112  0.00  0.00    +0.000 C 
ATOM      8  O   UNL     1       5.391   4.476  20.237  0.00  0.00    +0.000 OA
ATOM      9  N   UNL     1       4.670   2.974  18.704  0.00  0.00    +0.000 N 
ATOM     10  C   UNL     1       6.509   4.065  16.758  0.00  0.00    +0.000 C 
ATOM     11  H   UNL     1       5.038   2.353  18.004  0.00  0.00    +0.000 HD
ENDROOT
BRANCH   2  12
ATOM     12  C   UNL     1       6.543   4.853  14.321  0.00  0.00    +0.000 A 
ATOM     13  C   UNL     1       5.797   3.843  13.685  0.00  0.00    +0.000 A 
ATOM     14  C   UNL     1       6.105   3.413  12.388  0.00  0.00    +0.000 A 
ATOM     15  C   UNL     1       7.167   3.983  11.695  0.00  0.00    +0.000 A 
ATOM     16  C   UNL     1       7.906   4.998  12.289  0.00  0.00    +0.000 A 
ATOM     17  C   UNL     1       7.591   5.434  13.581  0.00  0.00    +0.000 A 
ENDBRANCH   2  12
BRANCH   9  18
ATOM     18  C   UNL     1       3.692   2.405  19.618  0.00  0.00    +0.000 C 
BRANCH  18  19
ATOM     19  C   UNL     1       2.304   2.337  18.985  0.00  0.00    +0.000 C 
BRANCH  19  20
ATOM     20  C   UNL     1       1.314   3.258  19.704  0.00  0.00    +0.000 C 
BRANCH  20  21
ATOM     21  C   UNL     1       1.696   4.705  19.560  0.00  0.00    +0.000 A 
ATOM     22  C   UNL     1       2.011   5.256  18.315  0.00  0.00    +0.000 A 
ATOM     23  C   UNL     1       2.324   6.608  18.216  0.00  0.00    +0.000 A 
ATOM     24  C   UNL     1       2.312   7.371  19.373  0.00  0.00    +0.000 A 
ATOM     25  N   UNL     1       2.016   6.878  20.594  0.00  0.00    +0.000 NA
ATOM     26  C   UNL     1       1.712   5.561  20.659  0.00  0.00    +0.000 A 
ENDBRANCH  20  21
ENDBRANCH  19  20
ENDBRANCH  18  19
ENDBRANCH   9  18
TORSDOF 5
ENDMDL
MODEL 7
REMARK VINA RESULT:      -7.7      4.150      7.865
REMARK  Name = 
REMARK  6 active torsions:
REMARK  status: ('A' for Active; 'I' for Inactive)
REMARK    1  A    between atoms: C_1  and  C_2
REMARK    2  A    between atoms: C_2  and  C_3
REMARK    3  A    between atoms: N_15  and  C_16
REMARK    4  A    between atoms: C_16  and  C_17
REMARK    5  A    between atoms: C_17  and  C_18
REMARK    6  A    between atoms: C_18  and  C_19
REMARK                            x       y       z     vdW  Elec       q    Type
REMARK                         _______ _______ _______ _____ _____    ______ ____
ROOT
ATOM      1  C   UNL     1       3.674   5.915  17.409  0.00  0.00    +0.000 C 
ATOM      2  C   UNL     1       4.377   4.718  18.102  0.00  0.00    +0.000 C 
ATOM      3  C   UNL     1       4.515   3.553  17.074  0.00  0.00    +0.000 C 
ATOM      4  C   UNL     1       5.468   3.860  15.919  0.00  0.00    +0.000 C 
ATOM      5  C   UNL     1       6.829   4.298  16.444  0.00  0.00    +0.000 C 
ATOM      6  N   UNL     1       6.696   5.410  17.382  0.00  0.00    +0.000 N 
ATOM      7  C   UNL     1       7.317   6.604  17.053  0.00  0.00    +0.000 C 
ATOM      8  O   UNL     1       7.925   6.770  16.000  0.00  0.00    +0.000 OA
ATOM      9  N   UNL     1       7.207   7.615  17.974  0.00  0.00    +0.000 N 
ATOM     10  C   UNL     1       5.815   5.144  18.536  0.00  0.00    +0.000 C 
ATOM     11  H   UNL     1       7.103   7.342  18.936  0.00  0.00    +0.000 HD
ENDROOT
BRANCH   2  12
ATOM     12  C   UNL     1       3.524   4.325  19.335  0.00  0.00    +0.000 A 
ATOM     13  C   UNL     1       3.661   3.087  19.991  0.00  0.00    +0.000 A 
ATOM     14  C   UNL     1       2.809   2.716  21.039  0.00  0.00    +0.000 A 
ATOM     15  C   UNL     1       1.799   3.574  21.457  0.00  0.00    +0.000 A 
ATOM     16  C   UNL     1       1.655   4.812  20.844  0.00  0.00    +0.000 A 
ATOM     17  C   UNL     1       2.513   5.186  19.803  0.00  0.00    +0.000 A 
ENDBRANCH   2  12
BRANCH   9  18
ATOM     18  C   UNL     1       7.846   8.900  17.736  0.00  0.00    +0.000 C 
BRANCH  18  19
ATOM     19  C   UNL     1       8.817   9.261  18.858  0.00  0.00    +0.000 C 
BRANCH  19  20
ATOM     20  C   UNL     1       9.688  10.463  18.481  0.00  0.00    +0.000 C 
BRANCH  20  21
ATOM     21  C   UNL     1       9.725  11.489  19.580  0.00  0.00    +0.000 A 
ATOM     22  C   UNL     1      10.175  12.791  19.346  0.00  0.00    +0.000 A 
ATOM     23  C   UNL     1      10.159  13.724  20.379  0.00  0.00    +0.000 A 
ATOM     24  C   UNL     1       9.692  13.323  21.620  0.00  0.00    +0.000 A 
ATOM     25  N   UNL     1       9.251  12.075  21.888  0.00  0.00    +0.000 NA
ATOM     26  C   UNL     1       9.274  11.191  20.864  0.00  0.00    +0.000 A 
ENDBRANCH  20  21
ENDBRANCH  19  20
ENDBRANCH  18  19
ENDBRANCH   9  18
TORSDOF 5
ENDMDL
MODEL 8
REMARK VINA RESULT:      -7.7      4.130      8.021
REMARK  Name = 
REMARK  6 active torsions:
REMARK  status: ('A' for Active; 'I' for Inactive)
REMARK    1  A    between atoms: C_1  and  C_2
REMARK    2  A    between atoms: C_2  and  C_3
REMARK    3  A    between atoms: N_15  and  C_16
REMARK    4  A    between atoms: C_16  and  C_17
REMARK    5  A    between atoms: C_17  and  C_18
REMARK    6  A    between atoms: C_18  and  C_19
REMARK                            x       y       z     vdW  Elec       q    Type
REMARK                         _______ _______ _______ _____ _____    ______ ____
ROOT
ATOM      1  C   UNL     1       3.610   6.323  16.878  0.00  0.00    +0.000 C 
ATOM      2  C   UNL     1       4.111   5.088  17.671  0.00  0.00    +0.000 C 
ATOM      3  C   UNL     1       4.327   3.906  16.676  0.00  0.00    +0.000 C 
ATOM      4  C   UNL     1       5.468   4.136  15.685  0.00  0.00    +0.000 C 
ATOM      5  C   UNL     1       6.757   4.484  16.417  0.00  0.00    +0.000 C 
ATOM      6  N   UNL     1       6.556   5.611  17.325  0.00  0.00    +0.000 N 
ATOM      7  C   UNL     1       7.303   6.757  17.099  0.00  0.00    +0.000 C 
ATOM      8  O   UNL     1       8.077   6.870  16.155  0.00  0.00    +0.000 OA
ATOM      9  N   UNL     1       7.120   7.782  17.992  0.00  0.00    +0.000 N 
ATOM     10  C   UNL     1       5.489   5.418  18.326  0.00  0.00    +0.000 C 
ATOM     11  H   UNL     1       6.848   7.525  18.926  0.00  0.00    +0.000 HD
ENDROOT
BRANCH   2  12
ATOM     12  C   UNL     1       3.050   4.765  18.754  0.00  0.00    +0.000 A 
ATOM     13  C   UNL     1       3.057   5.362  20.029  0.00  0.00    +0.000 A 
ATOM     14  C   UNL     1       2.147   4.979  21.022  0.00  0.00    +0.000 A 
ATOM     15  C   UNL     1       1.207   3.988  20.764  0.00  0.00    +0.000 A 
ATOM     16  C   UNL     1       1.160   3.398  19.508  0.00  0.00    +0.000 A 
ATOM     17  C   UNL     1       2.063   3.789  18.513  0.00  0.00    +0.000 A 
ENDBRANCH   2  12
BRANCH   9  18
ATOM     18  C   UNL     1       7.876   9.017  17.860  0.00  0.00    +0.000 C 
BRANCH  18  19
ATOM     19  C   UNL     1       9.012   9.093  18.878  0.00  0.00    +0.000 C 
BRANCH  19  20
ATOM     20  C   UNL     1       9.051  10.456  19.575  0.00  0.00    +0.000 C 
BRANCH  20  21
ATOM     21  C   UNL     1       9.971  11.415  18.870  0.00  0.00    +0.000 A 
ATOM     22  C   UNL     1      11.343  11.435  19.134  0.00  0.00    +0.000 A 
ATOM     23  C   UNL     1      12.168  12.311  18.435  0.00  0.00    +0.000 A 
ATOM     24  C   UNL     1      11.592  13.143  17.489  0.00  0.00    +0.000 A 
ATOM     25  N   UNL     1      10.272  13.156  17.207  0.00  0.00    +0.000 NA
ATOM     26  C   UNL     1       9.495  12.292  17.899  0.00  0.00    +0.000 A 
ENDBRANCH  20  21
ENDBRANCH  19  20
ENDBRANCH  18  19
ENDBRANCH   9  18
TORSDOF 5
ENDMDL
MODEL 9
REMARK VINA RESULT:      -7.6      1.008      1.477
REMARK  Name = 
REMARK  6 active torsions:
REMARK  status: ('A' for Active; 'I' for Inactive)
REMARK    1  A    between atoms: C_1  and  C_2
REMARK    2  A    between atoms: C_2  and  C_3
REMARK    3  A    between atoms: N_15  and  C_16
REMARK    4  A    between atoms: C_16  and  C_17
REMARK    5  A    between atoms: C_17  and  C_18
REMARK    6  A    between atoms: C_18  and  C_19
REMARK                            x       y       z     vdW  Elec       q    Type
REMARK                         _______ _______ _______ _____ _____    ______ ____
ROOT
ATOM      1  C   UNL     1       5.059   6.142  15.782  0.00  0.00    +0.000 C 
ATOM      2  C   UNL     1       6.404   5.370  15.783  0.00  0.00    +0.000 C 
ATOM      3  C   UNL     1       7.541   6.343  16.225  0.00  0.00    +0.000 C 
ATOM      4  C   UNL     1       7.431   6.798  17.681  0.00  0.00    +0.000 C 
ATOM      5  C   UNL     1       7.335   5.599  18.615  0.00  0.00    +0.000 C 
ATOM      6  N   UNL     1       6.249   4.708  18.214  0.00  0.00    +0.000 N 
ATOM      7  C   UNL     1       5.222   4.500  19.122  0.00  0.00    +0.000 C 
ATOM      8  O   UNL     1       5.173   5.063  20.210  0.00  0.00    +0.000 OA
ATOM      9  N   UNL     1       4.239   3.627  18.731  0.00  0.00    +0.000 N 
ATOM     10  C   UNL     1       6.335   4.212  16.827  0.00  0.00    +0.000 C 
ATOM     11  H   UNL     1       4.508   2.901  18.089  0.00  0.00    +0.000 HD
ENDROOT
BRANCH   2  12
ATOM     12  C   UNL     1       6.624   4.812  14.354  0.00  0.00    +0.000 A 
ATOM     13  C   UNL     1       7.609   5.314  13.483  0.00  0.00    +0.000 A 
ATOM     14  C   UNL     1       7.720   4.860  12.163  0.00  0.00    +0.000 A 
ATOM     15  C   UNL     1       6.848   3.891  11.681  0.00  0.00    +0.000 A 
ATOM     16  C   UNL     1       5.881   3.359  12.525  0.00  0.00    +0.000 A 
ATOM     17  C   UNL     1       5.777   3.807  13.846  0.00  0.00    +0.000 A 
ENDBRANCH   2  12
BRANCH   9  18
ATOM     18  C   UNL     1       3.131   3.319  19.622  0.00  0.00    +0.000 C 
BRANCH  18  19
ATOM     19  C   UNL     1       1.955   4.268  19.405  0.00  0.00    +0.000 C 
BRANCH  19  20
ATOM     20  C   UNL     1       1.965   5.414  20.420  0.00  0.00    +0.000 C 
BRANCH  20  21
ATOM     21  C   UNL     1       1.971   6.757  19.743  0.00  0.00    +0.000 A 
ATOM     22  C   UNL     1       2.477   6.919  18.450  0.00  0.00    +0.000 A 
ATOM     23  C   UNL     1       2.431   8.169  17.841  0.00  0.00    +0.000 A 
ATOM     24  C   UNL     1       1.877   9.224  18.548  0.00  0.00    +0.000 A 
ATOM     25  N   UNL     1       1.381   9.111  19.798  0.00  0.00    +0.000 NA
ATOM     26  C   UNL     1       1.435   7.882  20.363  0.00  0.00    +0.000 A 
ENDBRANCH  20  21
ENDBRANCH  19  20
ENDBRANCH  18  19
ENDBRANCH   9  18
TORSDOF 5
ENDMDL
