MODEL 1
REMARK VINA RESULT:      -5.8      0.000      0.000
REMARK  Name = 
REMARK  8 active torsions:
REMARK  status: ('A' for Active; 'I' for Inactive)
REMARK    1  A    between atoms: C_1  and  O_2
REMARK    2  A    between atoms: O_2  and  C_3
REMARK    3  A    between atoms: C_3  and  C_4
REMARK    4  A    between atoms: C_4  and  C_5
REMARK    5  A    between atoms: C_5  and  N_6
REMARK    6  A    between atoms: N_6  and  C_7
REMARK    7  A    between atoms: N_6  and  C_8
REMARK    8  A    between atoms: C_8  and  C_9
REMARK                            x       y       z     vdW  Elec       q    Type
REMARK                         _______ _______ _______ _____ _____    ______ ____
ROOT
ATOM      1  C   UNL     1       5.089   5.155  18.528  0.00  0.00    +0.000 A 
ATOM      2  C   UNL     1       6.455   5.477  18.712  0.00  0.00    +0.000 A 
ATOM      3  C   UNL     1       7.364   5.394  17.655  0.00  0.00    +0.000 A 
ATOM      4  C   UNL     1       6.882   4.989  16.428  0.00  0.00    +0.000 A 
ATOM      5  C   UNL     1       5.561   4.655  16.243  0.00  0.00    +0.000 A 
ATOM      6  C   UNL     1       4.643   4.717  17.270  0.00  0.00    +0.000 A 
ATOM      7  O   UNL     1       5.290   4.299  14.959  0.00  0.00    +0.000 OA
ATOM      8  C   UNL     1       6.586   4.476  14.351  0.00  0.00    +0.000 C 
ATOM      9  O   UNL     1       7.608   4.884  15.283  0.00  0.00    +0.000 OA
ENDROOT
BRANCH   1  10
ATOM     10  C   UNL     1       4.102   5.351  19.661  0.00  0.00    +0.000 C 
BRANCH  10  11
ATOM     11  N   UNL     1       2.725   5.617  19.190  0.00  0.00    +0.000 NA
ATOM     12  C   UNL     1       2.594   7.042  18.872  0.00  0.00    +0.000 C 
BRANCH  11  13
ATOM     13  C   UNL     1       1.729   5.185  20.191  0.00  0.00    +0.000 C 
BRANCH  13  14
ATOM     14  C   UNL     1       1.437   3.683  20.175  0.00  0.00    +0.000 C 
BRANCH  14  15
ATOM     15  C   UNL     1       1.139   3.206  18.758  0.00  0.00    +0.000 C 
BRANCH  15  17
ATOM     16  C   UNL     1       3.036   1.809  18.709  0.00  0.00    +0.000 C 
ATOM     17  O   UNL     1       1.619   1.869  18.628  0.00  0.00    +0.000 OA
ENDBRANCH  15  17
ENDBRANCH  14  15
ENDBRANCH  13  14
ENDBRANCH  11  13
ENDBRANCH  10  11
ENDBRANCH   1  10
TORSDOF 6
ENDMDL
MODEL 2
REMARK VINA RESULT:      -5.8      2.361      6.256
REMARK  Name = 
REMARK  8 active torsions:
REMARK  status: ('A' for Active; 'I' for Inactive)
REMARK    1  A    between atoms: C_1  and  O_2
REMARK    2  A    between atoms: O_2  and  C_3
REMARK    3  A    between atoms: C_3  and  C_4
REMARK    4  A    between atoms: C_4  and  C_5
REMARK    5  A    between atoms: C_5  and  N_6
REMARK    6  A    between atoms: N_6  and  C_7
REMARK    7  A    between atoms: N_6  and  C_8
REMARK    8  A    between atoms: C_8  and  C_9
REMARK                            x       y       z     vdW  Elec       q    Type
REMARK                         _______ _______ _______ _____ _____    ______ ____
ROOT
ATOM      1  C   UNL     1       4.017   3.727  17.839  0.00  0.00    +0.000 A 
ATOM      2  C   UNL     1       2.794   4.310  17.428  0.00  0.00    +0.000 A 
ATOM      3  C   UNL     1       1.678   4.309  18.268  0.00  0.00    +0.000 A 
ATOM      4  C   UNL     1       1.812   3.722  19.509  0.00  0.00    +0.000 A 
ATOM      5  C   UNL     1       2.988   3.135  19.910  0.00  0.00    +0.000 A 
ATOM      6  C   UNL     1       4.103   3.111  19.099  0.00  0.00    +0.000 A 
ATOM      7  O   UNL     1       2.915   2.631  21.170  0.00  0.00    +0.000 OA
ATOM      8  C   UNL     1       1.565   2.994  21.527  0.00  0.00    +0.000 C 
ATOM      9  O   UNL     1       0.848   3.659  20.466  0.00  0.00    +0.000 OA
ENDROOT
BRANCH   1  10
ATOM     10  C   UNL     1       5.243   3.829  16.954  0.00  0.00    +0.000 C 
BRANCH  10  11
ATOM     11  N   UNL     1       5.184   4.969  16.013  0.00  0.00    +0.000 NA
ATOM     12  C   UNL     1       5.403   4.476  14.650  0.00  0.00    +0.000 C 
BRANCH  11  13
ATOM     13  C   UNL     1       6.162   6.012  16.381  0.00  0.00    +0.000 C 
BRANCH  13  14
ATOM     14  C   UNL     1       6.420   6.124  17.885  0.00  0.00    +0.000 C 
BRANCH  14  15
ATOM     15  C   UNL     1       7.725   6.865  18.155  0.00  0.00    +0.000 C 
BRANCH  15  17
ATOM     16  C   UNL     1       8.130   9.172  17.902  0.00  0.00    +0.000 C 
ATOM     17  O   UNL     1       7.814   7.956  17.241  0.00  0.00    +0.000 OA
ENDBRANCH  15  17
ENDBRANCH  14  15
ENDBRANCH  13  14
ENDBRANCH  11  13
ENDBRANCH  10  11
ENDBRANCH   1  10
TORSDOF 6
ENDMDL
MODEL 3
REMARK VINA RESULT:      -5.7      1.903      2.966
REMARK  Name = 
REMARK  8 active torsions:
REMARK  status: ('A' for Active; 'I' for Inactive)
REMARK    1  A    between atoms: C_1  and  O_2
REMARK    2  A    between atoms: O_2  and  C_3
REMARK    3  A    between atoms: C_3  and  C_4
REMARK    4  A    between atoms: C_4  and  C_5
REMARK    5  A    between atoms: C_5  and  N_6
REMARK    6  A    between atoms: N_6  and  C_7
REMARK    7  A    between atoms: N_6  and  C_8
REMARK    8  A    between atoms: C_8  and  C_9
REMARK                            x       y       z     vdW  Elec       q    Type
REMARK                         _______ _______ _______ _____ _____    ______ ____
ROOT
ATOM      1  C   UNL     1       4.400   3.624  17.616  0.00  0.00    +0.000 A 
ATOM      2  C   UNL     1       4.666   3.862  16.246  0.00  0.00    +0.000 A 
ATOM      3  C   UNL     1       5.646   4.775  15.851  0.00  0.00    +0.000 A 
ATOM      4  C   UNL     1       6.345   5.433  16.841  0.00  0.00    +0.000 A 
ATOM      5  C   UNL     1       6.082   5.224  18.174  0.00  0.00    +0.000 A 
ATOM      6  C   UNL     1       5.113   4.337  18.595  0.00  0.00    +0.000 A 
ATOM      7  O   UNL     1       6.891   5.956  18.985  0.00  0.00    +0.000 OA
ATOM      8  C   UNL     1       7.714   6.627  18.008  0.00  0.00    +0.000 C 
ATOM      9  O   UNL     1       7.353   6.324  16.645  0.00  0.00    +0.000 OA
ENDROOT
BRANCH   1  10
ATOM     10  C   UNL     1       3.406   2.556  18.024  0.00  0.00    +0.000 C 
BRANCH  10  11
ATOM     11  N   UNL     1       2.007   2.913  17.696  0.00  0.00    +0.000 NA
ATOM     12  C   UNL     1       1.886   4.373  17.642  0.00  0.00    +0.000 C 
BRANCH  11  13
ATOM     13  C   UNL     1       1.067   2.321  18.668  0.00  0.00    +0.000 C 
BRANCH  13  14
ATOM     14  C   UNL     1       0.755   3.223  19.865  0.00  0.00    +0.000 C 
BRANCH  14  15
ATOM     15  C   UNL     1       1.378   2.665  21.139  0.00  0.00    +0.000 C 
BRANCH  15  17
ATOM     16  C   UNL     1       2.231   4.861  21.135  0.00  0.00    +0.000 C 
ATOM     17  O   UNL     1       2.464   3.512  21.511  0.00  0.00    +0.000 OA
ENDBRANCH  15  17
ENDBRANCH  14  15
ENDBRANCH  13  14
ENDBRANCH  11  13
ENDBRANCH  10  11
ENDBRANCH   1  10
TORSDOF 6
ENDMDL
MODEL 4
REMARK VINA RESULT:      -5.7      1.870      3.162
REMARK  Name = 
REMARK  8 active torsions:
REMARK  status: ('A' for Active; 'I' for Inactive)
REMARK    1  A    between atoms: C_1  and  O_2
REMARK    2  A    between atoms: O_2  and  C_3
REMARK    3  A    between atoms: C_3  and  C_4
REMARK    4  A    between atoms: C_4  and  C_5
REMARK    5  A    between atoms: C_5  and  N_6
REMARK    6  A    between atoms: N_6  and  C_7
REMARK    7  A    between atoms: N_6  and  C_8
REMARK    8  A    between atoms: C_8  and  C_9
REMARK                            x       y       z     vdW  Elec       q    Type
REMARK                         _______ _______ _______ _____ _____    ______ ____
ROOT
ATOM      1  C   UNL     1       4.078   4.043  16.758  0.00  0.00    +0.000 A 
ATOM      2  C   UNL     1       4.938   3.701  15.687  0.00  0.00    +0.000 A 
ATOM      3  C   UNL     1       6.128   4.398  15.469  0.00  0.00    +0.000 A 
ATOM      4  C   UNL     1       6.435   5.427  16.334  0.00  0.00    +0.000 A 
ATOM      5  C   UNL     1       5.598   5.780  17.366  0.00  0.00    +0.000 A 
ATOM      6  C   UNL     1       4.411   5.117  17.600  0.00  0.00    +0.000 A 
ATOM      7  O   UNL     1       6.092   6.805  18.109  0.00  0.00    +0.000 OA
ATOM      8  C   UNL     1       7.351   7.037  17.444  0.00  0.00    +0.000 C 
ATOM      9  O   UNL     1       7.561   6.188  16.298  0.00  0.00    +0.000 OA
ENDROOT
BRANCH   1  10
ATOM     10  C   UNL     1       2.844   3.209  17.038  0.00  0.00    +0.000 C 
BRANCH  10  11
ATOM     11  N   UNL     1       2.797   2.692  18.424  0.00  0.00    +0.000 NA
ATOM     12  C   UNL     1       3.694   1.537  18.534  0.00  0.00    +0.000 C 
BRANCH  11  13
ATOM     13  C   UNL     1       1.415   2.350  18.816  0.00  0.00    +0.000 C 
BRANCH  13  14
ATOM     14  C   UNL     1       0.806   3.302  19.849  0.00  0.00    +0.000 C 
BRANCH  14  15
ATOM     15  C   UNL     1       1.503   3.152  21.197  0.00  0.00    +0.000 C 
BRANCH  15  17
ATOM     16  C   UNL     1       1.834   5.426  20.678  0.00  0.00    +0.000 C 
ATOM     17  O   UNL     1       2.312   4.307  21.410  0.00  0.00    +0.000 OA
ENDBRANCH  15  17
ENDBRANCH  14  15
ENDBRANCH  13  14
ENDBRANCH  11  13
ENDBRANCH  10  11
ENDBRANCH   1  10
TORSDOF 6
ENDMDL
MODEL 5
REMARK VINA RESULT:      -5.7      1.707      5.639
REMARK  Name = 
REMARK  8 active torsions:
REMARK  status: ('A' for Active; 'I' for Inactive)
REMARK    1  A    between atoms: C_1  and  O_2
REMARK    2  A    between atoms: O_2  and  C_3
REMARK    3  A    between atoms: C_3  and  C_4
REMARK    4  A    between atoms: C_4  and  C_5
REMARK    5  A    between atoms: C_5  and  N_6
REMARK    6  A    between atoms: N_6  and  C_7
REMARK    7  A    between atoms: N_6  and  C_8
REMARK    8  A    between atoms: C_8  and  C_9
REMARK                            x       y       z     vdW  Elec       q    Type
REMARK                         _______ _______ _______ _____ _____    ______ ____
ROOT
ATOM      1  C   UNL     1       3.750   5.630  18.092  0.00  0.00    +0.000 A 
ATOM      2  C   UNL     1       3.357   6.070  19.379  0.00  0.00    +0.000 A 
ATOM      3  C   UNL     1       2.375   5.391  20.104  0.00  0.00    +0.000 A 
ATOM      4  C   UNL     1       1.805   4.278  19.521  0.00  0.00    +0.000 A 
ATOM      5  C   UNL     1       2.165   3.854  18.264  0.00  0.00    +0.000 A 
ATOM      6  C   UNL     1       3.123   4.510  17.521  0.00  0.00    +0.000 A 
ATOM      7  O   UNL     1       1.499   2.732  17.883  0.00  0.00    +0.000 OA
ATOM      8  C   UNL     1       0.699   2.482  19.058  0.00  0.00    +0.000 C 
ATOM      9  O   UNL     1       0.865   3.476  20.089  0.00  0.00    +0.000 OA
ENDROOT
BRANCH   1  10
ATOM     10  C   UNL     1       4.887   6.320  17.367  0.00  0.00    +0.000 C 
BRANCH  10  11
ATOM     11  N   UNL     1       6.212   5.742  17.686  0.00  0.00    +0.000 NA
ATOM     12  C   UNL     1       7.204   6.820  17.742  0.00  0.00    +0.000 C 
BRANCH  11  13
ATOM     13  C   UNL     1       6.587   4.704  16.706  0.00  0.00    +0.000 C 
BRANCH  13  14
ATOM     14  C   UNL     1       6.420   5.132  15.246  0.00  0.00    +0.000 C 
BRANCH  14  15
ATOM     15  C   UNL     1       5.916   3.970  14.397  0.00  0.00    +0.000 C 
BRANCH  15  17
ATOM     16  C   UNL     1       5.988   3.147  12.191  0.00  0.00    +0.000 C 
ATOM     17  O   UNL     1       6.593   4.010  13.142  0.00  0.00    +0.000 OA
ENDBRANCH  15  17
ENDBRANCH  14  15
ENDBRANCH  13  14
ENDBRANCH  11  13
ENDBRANCH  10  11
ENDBRANCH   1  10
TORSDOF 6
ENDMDL
MODEL 6
REMARK VINA RESULT:      -5.7      1.024      1.248
REMARK  Name = 
REMARK  8 active torsions:
REMARK  status: ('A' for Active; 'I' for Inactive)
REMARK    1  A    between atoms: C_1  and  O_2
REMARK    2  A    between atoms: O_2  and  C_3
REMARK    3  A    between atoms: C_3  and  C_4
REMARK    4  A    between atoms: C_4  and  C_5
REMARK    5  A    between atoms: C_5  and  N_6
REMARK    6  A    between atoms: N_6  and  C_7
REMARK    7  A    between atoms: N_6  and  C_8
REMARK    8  A    between atoms: C_8  and  C_9
REMARK                            x       y       z     vdW  Elec       q    Type
REMARK                         _______ _______ _______ _____ _____    ______ ____
ROOT
ATOM      1  C   UNL     1       4.954   4.779  18.116  0.00  0.00    +0.000 A 
ATOM      2  C   UNL     1       6.312   4.939  18.485  0.00  0.00    +0.000 A 
ATOM      3  C   UNL     1       7.323   4.955  17.521  0.00  0.00    +0.000 A 
ATOM      4  C   UNL     1       6.950   4.810  16.201  0.00  0.00    +0.000 A 
ATOM      5  C   UNL     1       5.638   4.635  15.833  0.00  0.00    +0.000 A 
ATOM      6  C   UNL     1       4.619   4.605  16.762  0.00  0.00    +0.000 A 
ATOM      7  O   UNL     1       5.484   4.529  14.487  0.00  0.00    +0.000 OA
ATOM      8  C   UNL     1       6.849   4.689  14.047  0.00  0.00    +0.000 C 
ATOM      9  O   UNL     1       7.789   4.836  15.131  0.00  0.00    +0.000 OA
ENDROOT
BRANCH   1  10
ATOM     10  C   UNL     1       3.865   4.868  19.166  0.00  0.00    +0.000 C 
BRANCH  10  11
ATOM     11  N   UNL     1       2.652   5.564  18.684  0.00  0.00    +0.000 NA
ATOM     12  C   UNL     1       2.535   6.854  19.371  0.00  0.00    +0.000 C 
BRANCH  11  13
ATOM     13  C   UNL     1       1.449   4.730  18.877  0.00  0.00    +0.000 C 
BRANCH  13  14
ATOM     14  C   UNL     1       1.583   3.305  18.335  0.00  0.00    +0.000 C 
BRANCH  14  15
ATOM     15  C   UNL     1       1.201   2.284  19.402  0.00  0.00    +0.000 C 
BRANCH  15  17
ATOM     16  C   UNL     1       1.783   2.561  21.668  0.00  0.00    +0.000 C 
ATOM     17  O   UNL     1       0.933   2.987  20.614  0.00  0.00    +0.000 OA
ENDBRANCH  15  17
ENDBRANCH  14  15
ENDBRANCH  13  14
ENDBRANCH  11  13
ENDBRANCH  10  11
ENDBRANCH   1  10
TORSDOF 6
ENDMDL
MODEL 7
REMARK VINA RESULT:      -5.7      1.647      2.496
REMARK  Name = 
REMARK  8 active torsions:
REMARK  status: ('A' for Active; 'I' for Inactive)
REMARK    1  A    between atoms: C_1  and  O_2
REMARK    2  A    between atoms: O_2  and  C_3
REMARK    3  A    between atoms: C_3  and  C_4
REMARK    4  A    between atoms: C_4  and  C_5
REMARK    5  A    between atoms: C_5  and  N_6
REMARK    6  A    between atoms: N_6  and  C_7
REMARK    7  A    between atoms: N_6  and  C_8
REMARK    8  A    between atoms: C_8  and  C_9
REMARK                            x       y       z     vdW  Elec       q    Type
REMARK                         _______ _______ _______ _____ _____    ______ ____
ROOT
ATOM      1  C   UNL     1       4.945   4.488  17.306  0.00  0.00    +0.000 A 
ATOM      2  C   UNL     1       6.012   5.316  17.731  0.00  0.00    +0.000 A 
ATOM      3  C   UNL     1       7.036   5.678  16.854  0.00  0.00    +0.000 A 
ATOM      4  C   UNL     1       6.969   5.202  15.562  0.00  0.00    +0.000 A 
ATOM      5  C   UNL     1       5.949   4.381  15.144  0.00  0.00    +0.000 A 
ATOM      6  C   UNL     1       4.930   3.998  15.989  0.00  0.00    +0.000 A 
ATOM      7  O   UNL     1       6.061   4.038  13.833  0.00  0.00    +0.000 OA
ATOM      8  C   UNL     1       7.254   4.762  13.467  0.00  0.00    +0.000 C 
ATOM      9  O   UNL     1       7.854   5.478  14.566  0.00  0.00    +0.000 OA
ENDROOT
BRANCH   1  10
ATOM     10  C   UNL     1       3.792   4.192  18.244  0.00  0.00    +0.000 C 
BRANCH  10  11
ATOM     11  N   UNL     1       3.700   2.762  18.614  0.00  0.00    +0.000 NA
ATOM     12  C   UNL     1       2.464   2.203  18.057  0.00  0.00    +0.000 C 
BRANCH  11  13
ATOM     13  C   UNL     1       3.769   2.587  20.078  0.00  0.00    +0.000 C 
BRANCH  13  14
ATOM     14  C   UNL     1       2.404   2.468  20.759  0.00  0.00    +0.000 C 
BRANCH  14  15
ATOM     15  C   UNL     1       2.079   3.735  21.542  0.00  0.00    +0.000 C 
BRANCH  15  17
ATOM     16  C   UNL     1       1.723   5.877  20.629  0.00  0.00    +0.000 C 
ATOM     17  O   UNL     1       1.230   4.550  20.736  0.00  0.00    +0.000 OA
ENDBRANCH  15  17
ENDBRANCH  14  15
ENDBRANCH  13  14
ENDBRANCH  11  13
ENDBRANCH  10  11
ENDBRANCH   1  10
TORSDOF 6
ENDMDL
MODEL 8
REMARK VINA RESULT:      -5.6      2.268      5.979
REMARK  Name = 
REMARK  8 active torsions:
REMARK  status: ('A' for Active; 'I' for Inactive)
REMARK    1  A    between atoms: C_1  and  O_2
REMARK    2  A    between atoms: O_2  and  C_3
REMARK    3  A    between atoms: C_3  and  C_4
REMARK    4  A    between atoms: C_4  and  C_5
REMARK    5  A    between atoms: C_5  and  N_6
REMARK    6  A    between atoms: N_6  and  C_7
REMARK    7  A    between atoms: N_6  and  C_8
REMARK    8  A    between atoms: C_8  and  C_9
REMARK                            x       y       z     vdW  Elec       q    Type
REMARK                         _______ _______ _______ _____ _____    ______ ____
ROOT
ATOM      1  C   UNL     1       3.809   3.675  17.947  0.00  0.00    +0.000 A 
ATOM      2  C   UNL     1       2.462   3.946  17.603  0.00  0.00    +0.000 A 
ATOM      3  C   UNL     1       1.430   3.746  18.522  0.00  0.00    +0.000 A 
ATOM      4  C   UNL     1       1.770   3.280  19.774  0.00  0.00    +0.000 A 
ATOM      5  C   UNL     1       3.071   2.995  20.113  0.00  0.00    +0.000 A 
ATOM      6  C   UNL     1       4.110   3.172  19.223  0.00  0.00    +0.000 A 
ATOM      7  O   UNL     1       3.193   2.564  21.396  0.00  0.00    +0.000 OA
ATOM      8  C   UNL     1       1.821   2.638  21.836  0.00  0.00    +0.000 C 
ATOM      9  O   UNL     1       0.908   3.062  20.803  0.00  0.00    +0.000 OA
ENDROOT
BRANCH   1  10
ATOM     10  C   UNL     1       4.922   3.995  16.970  0.00  0.00    +0.000 C 
BRANCH  10  11
ATOM     11  N   UNL     1       4.831   5.364  16.417  0.00  0.00    +0.000 NA
ATOM     12  C   UNL     1       5.619   5.435  15.182  0.00  0.00    +0.000 C 
BRANCH  11  13
ATOM     13  C   UNL     1       5.272   6.367  17.406  0.00  0.00    +0.000 C 
BRANCH  13  14
ATOM     14  C   UNL     1       6.484   7.190  16.964  0.00  0.00    +0.000 C 
BRANCH  14  15
ATOM     15  C   UNL     1       7.630   7.040  17.957  0.00  0.00    +0.000 C 
BRANCH  15  17
ATOM     16  C   UNL     1       7.933   5.524  19.736  0.00  0.00    +0.000 C 
ATOM     17  O   UNL     1       7.709   5.668  18.341  0.00  0.00    +0.000 OA
ENDBRANCH  15  17
ENDBRANCH  14  15
ENDBRANCH  13  14
ENDBRANCH  11  13
ENDBRANCH  10  11
ENDBRANCH   1  10
TORSDOF 6
ENDMDL
MODEL 9
REMARK VINA RESULT:      -5.6      1.915      3.299
REMARK  Name = 
REMARK  8 active torsions:
REMARK  status: ('A' for Active; 'I' for Inactive)
REMARK    1  A    between atoms: C_1  and  O_2
REMARK    2  A    between atoms: O_2  and  C_3
REMARK    3  A    between atoms: C_3  and  C_4
REMARK    4  A    between atoms: C_4  and  C_5
REMARK    5  A    between atoms: C_5  and  N_6
REMARK    6  A    between atoms: N_6  and  C_7
REMARK    7  A    between atoms: N_6  and  C_8
REMARK    8  A    between atoms: C_8  and  C_9
REMARK                            x       y       z     vdW  Elec       q    Type
REMARK                         _______ _______ _______ _____ _____    ______ ____
ROOT
ATOM      1  C   UNL     1       4.450   3.783  18.533  0.00  0.00    +0.000 A 
ATOM      2  C   UNL     1       4.281   3.730  17.128  0.00  0.00    +0.000 A 
ATOM      3  C   UNL     1       5.043   4.536  16.279  0.00  0.00    +0.000 A 
ATOM      4  C   UNL     1       5.965   5.382  16.858  0.00  0.00    +0.000 A 
ATOM      5  C   UNL     1       6.123   5.457  18.222  0.00  0.00    +0.000 A 
ATOM      6  C   UNL     1       5.378   4.682  19.085  0.00  0.00    +0.000 A 
ATOM      7  O   UNL     1       7.092   6.338  18.585  0.00  0.00    +0.000 OA
ATOM      8  C   UNL     1       7.546   6.787  17.291  0.00  0.00    +0.000 C 
ATOM      9  O   UNL     1       6.814   6.208  16.192  0.00  0.00    +0.000 OA
ENDROOT
BRANCH   1  10
ATOM     10  C   UNL     1       3.686   2.829  19.428  0.00  0.00    +0.000 C 
BRANCH  10  11
ATOM     11  N   UNL     1       2.919   3.518  20.488  0.00  0.00    +0.000 NA
ATOM     12  C   UNL     1       2.437   2.525  21.453  0.00  0.00    +0.000 C 
BRANCH  11  13
ATOM     13  C   UNL     1       1.810   4.306  19.914  0.00  0.00    +0.000 C 
BRANCH  13  14
ATOM     14  C   UNL     1       1.575   5.651  20.605  0.00  0.00    +0.000 C 
BRANCH  14  15
ATOM     15  C   UNL     1       2.372   6.755  19.920  0.00  0.00    +0.000 C 
BRANCH  15  17
ATOM     16  C   UNL     1       3.034   7.528  17.795  0.00  0.00    +0.000 C 
ATOM     17  O   UNL     1       2.360   6.507  18.516  0.00  0.00    +0.000 OA
ENDBRANCH  15  17
ENDBRANCH  14  15
ENDBRANCH  13  14
ENDBRANCH  11  13
ENDBRANCH  10  11
ENDBRANCH   1  10
TORSDOF 6
ENDMDL
