MODEL 1
REMARK VINA RESULT:      -7.4      0.000      0.000
REMARK  Name = 
REMARK  5 active torsions:
REMARK  status: ('A' for Active; 'I' for Inactive)
REMARK    1  A    between atoms: C_1  and  C_2
REMARK    2  A    between atoms: C_4  and  O_5
REMARK    3  A    between atoms: C_7  and  C_8
REMARK    4  A    between atoms: C_12  and  O_13
REMARK    5  A    between atoms: C_12  and  C_14
REMARK                            x       y       z     vdW  Elec       q    Type
REMARK                         _______ _______ _______ _____ _____    ______ ____
ROOT
ATOM      1  C   UNL     1       6.936   4.652  16.322  0.00  0.00    +0.000 C 
ATOM      2  O   UNL     1       7.899   4.349  17.027  0.00  0.00    +0.000 OA
ATOM      3  N   UNL     1       5.715   5.009  16.850  0.00  0.00    +0.000 N 
ATOM      4  C   UNL     1       5.343   5.130  18.251  0.00  0.00    +0.000 C 
ATOM      5  C   UNL     1       4.014   5.802  17.735  0.00  0.00    +0.000 C 
ATOM      6  C   UNL     1       4.849   6.115  16.447  0.00  0.00    +0.000 C 
ENDROOT
BRANCH   1  12
ATOM      7  C   UNL     1       5.468   2.802  11.890  0.00  0.00    +0.000 C 
ATOM      8  C   UNL     1       6.314   3.734  12.703  0.00  0.00    +0.000 A 
ATOM      9  C   UNL     1       7.190   4.632  12.089  0.00  0.00    +0.000 A 
ATOM     10  C   UNL     1       7.950   5.462  12.893  0.00  0.00    +0.000 A 
ATOM     11  N   UNL     1       7.906   5.461  14.231  0.00  0.00    +0.000 NA
ATOM     12  C   UNL     1       7.048   4.596  14.823  0.00  0.00    +0.000 A 
ATOM     13  C   UNL     1       6.237   3.724  14.101  0.00  0.00    +0.000 A 
BRANCH  10  14
ATOM     14  O   UNL     1       8.821   6.364  12.356  0.00  0.00    +0.000 OA
ATOM     15  H   UNL     1       8.388   6.795  11.606  0.00  0.00    +0.000 HD
ENDBRANCH  10  14
ENDBRANCH   1  12
BRANCH   5  16
ATOM     16  C   UNL     1       3.515   7.029  18.508  0.00  0.00    +0.000 C 
ATOM     17  C   UNL     1       2.220   7.714  18.152  0.00  0.00    +0.000 C 
ATOM     18  C   UNL     1       2.360   7.022  19.479  0.00  0.00    +0.000 C 
ENDBRANCH   5  16
BRANCH   5  19
ATOM     19  O   UNL     1       2.930   4.854  17.479  0.00  0.00    +0.000 OA
ATOM     20  H   UNL     1       2.203   5.154  18.049  0.00  0.00    +0.000 HD
ENDBRANCH   5  19
TORSDOF 4
ENDMDL
MODEL 2
REMARK VINA RESULT:      -7.3      1.325      1.465
REMARK  Name = 
REMARK  5 active torsions:
REMARK  status: ('A' for Active; 'I' for Inactive)
REMARK    1  A    between atoms: C_1  and  C_2
REMARK    2  A    between atoms: C_4  and  O_5
REMARK    3  A    between atoms: C_7  and  C_8
REMARK    4  A    between atoms: C_12  and  O_13
REMARK    5  A    between atoms: C_12  and  C_14
REMARK                            x       y       z     vdW  Elec       q    Type
REMARK                         _______ _______ _______ _____ _____    ______ ____
ROOT
ATOM      1  C   UNL     1       6.745   4.439  16.640  0.00  0.00    +0.000 C 
ATOM      2  O   UNL     1       7.726   4.617  17.363  0.00  0.00    +0.000 OA
ATOM      3  N   UNL     1       5.491   4.172  17.145  0.00  0.00    +0.000 N 
ATOM      4  C   UNL     1       5.085   4.086  18.539  0.00  0.00    +0.000 C 
ATOM      5  C   UNL     1       3.603   4.058  17.999  0.00  0.00    +0.000 C 
ATOM      6  C   UNL     1       4.213   4.744  16.729  0.00  0.00    +0.000 C 
ENDROOT
BRANCH   1  12
ATOM      7  C   UNL     1       5.276   2.951  12.073  0.00  0.00    +0.000 C 
ATOM      8  C   UNL     1       6.161   3.774  12.960  0.00  0.00    +0.000 A 
ATOM      9  C   UNL     1       7.113   4.643  12.420  0.00  0.00    +0.000 A 
ATOM     10  C   UNL     1       7.906   5.370  13.289  0.00  0.00    +0.000 A 
ATOM     11  N   UNL     1       7.825   5.297  14.624  0.00  0.00    +0.000 NA
ATOM     12  C   UNL     1       6.893   4.461  15.143  0.00  0.00    +0.000 A 
ATOM     13  C   UNL     1       6.045   3.690  14.352  0.00  0.00    +0.000 A 
BRANCH  10  14
ATOM     14  O   UNL     1       8.850   6.238  12.827  0.00  0.00    +0.000 OA
ATOM     15  H   UNL     1       9.227   6.709  13.583  0.00  0.00    +0.000 HD
ENDBRANCH  10  14
ENDBRANCH   1  12
BRANCH   5  16
ATOM     16  C   UNL     1       2.573   4.895  18.767  0.00  0.00    +0.000 C 
ATOM     17  C   UNL     1       1.418   4.254  19.495  0.00  0.00    +0.000 C 
ATOM     18  C   UNL     1       2.482   4.980  20.270  0.00  0.00    +0.000 C 
ENDBRANCH   5  16
BRANCH   5  19
ATOM     19  O   UNL     1       3.099   2.715  17.719  0.00  0.00    +0.000 OA
ATOM     20  H   UNL     1       3.362   2.542  16.800  0.00  0.00    +0.000 HD
ENDBRANCH   5  19
TORSDOF 4
ENDMDL
MODEL 3
REMARK VINA RESULT:      -7.3      2.440      6.690
REMARK  Name = 
REMARK  5 active torsions:
REMARK  status: ('A' for Active; 'I' for Inactive)
REMARK    1  A    between atoms: C_1  and  C_2
REMARK    2  A    between atoms: C_4  and  O_5
REMARK    3  A    between atoms: C_7  and  C_8
REMARK    4  A    between atoms: C_12  and  O_13
REMARK    5  A    between atoms: C_12  and  C_14
REMARK                            x       y       z     vdW  Elec       q    Type
REMARK                         _______ _______ _______ _____ _____    ______ ____
ROOT
ATOM      1  C   UNL     1       5.439   4.769  18.849  0.00  0.00    +0.000 C 
ATOM      2  O   UNL     1       6.406   4.587  19.589  0.00  0.00    +0.000 OA
ATOM      3  N   UNL     1       5.565   4.892  17.483  0.00  0.00    +0.000 N 
ATOM      4  C   UNL     1       6.775   4.803  16.681  0.00  0.00    +0.000 C 
ATOM      5  C   UNL     1       5.820   4.782  15.426  0.00  0.00    +0.000 C 
ATOM      6  C   UNL     1       4.741   4.279  16.444  0.00  0.00    +0.000 C 
ENDROOT
BRANCH   1  12
ATOM      7  C   UNL     1       1.431   2.815  21.162  0.00  0.00    +0.000 C 
ATOM      8  C   UNL     1       2.160   3.983  20.569  0.00  0.00    +0.000 A 
ATOM      9  C   UNL     1       1.606   5.265  20.596  0.00  0.00    +0.000 A 
ATOM     10  C   UNL     1       2.323   6.302  20.026  0.00  0.00    +0.000 A 
ATOM     11  N   UNL     1       3.520   6.159  19.444  0.00  0.00    +0.000 NA
ATOM     12  C   UNL     1       4.058   4.916  19.429  0.00  0.00    +0.000 A 
ATOM     13  C   UNL     1       3.418   3.809  19.980  0.00  0.00    +0.000 A 
BRANCH  10  14
ATOM     14  O   UNL     1       1.841   7.577  20.023  0.00  0.00    +0.000 OA
ATOM     15  H   UNL     1       2.521   8.160  20.388  0.00  0.00    +0.000 HD
ENDBRANCH  10  14
ENDBRANCH   1  12
BRANCH   5  16
ATOM     16  C   UNL     1       6.175   3.799  14.305  0.00  0.00    +0.000 C 
ATOM     17  C   UNL     1       5.440   3.804  12.988  0.00  0.00    +0.000 C 
ATOM     18  C   UNL     1       6.898   4.168  13.033  0.00  0.00    +0.000 C 
ENDBRANCH   5  16
BRANCH   5  19
ATOM     19  O   UNL     1       5.509   6.108  14.896  0.00  0.00    +0.000 OA
ATOM     20  H   UNL     1       5.405   6.668  15.682  0.00  0.00    +0.000 HD
ENDBRANCH   5  19
TORSDOF 4
ENDMDL
MODEL 4
REMARK VINA RESULT:      -7.2      3.429      4.952
REMARK  Name = 
REMARK  5 active torsions:
REMARK  status: ('A' for Active; 'I' for Inactive)
REMARK    1  A    between atoms: C_1  and  C_2
REMARK    2  A    between atoms: C_4  and  O_5
REMARK    3  A    between atoms: C_7  and  C_8
REMARK    4  A    between atoms: C_12  and  O_13
REMARK    5  A    between atoms: C_12  and  C_14
REMARK                            x       y       z     vdW  Elec       q    Type
REMARK                         _______ _______ _______ _____ _____    ______ ____
ROOT
ATOM      1  C   UNL     1       5.792   4.413  16.926  0.00  0.00    +0.000 C 
ATOM      2  O   UNL     1       6.140   3.830  15.899  0.00  0.00    +0.000 OA
ATOM      3  N   UNL     1       4.523   4.298  17.449  0.00  0.00    +0.000 N 
ATOM      4  C   UNL     1       3.417   3.492  16.954  0.00  0.00    +0.000 C 
ATOM      5  C   UNL     1       2.690   3.840  18.309  0.00  0.00    +0.000 C 
ATOM      6  C   UNL     1       4.139   4.102  18.845  0.00  0.00    +0.000 C 
ENDROOT
BRANCH   1  12
ATOM      7  C   UNL     1       7.926   8.925  17.489  0.00  0.00    +0.000 C 
ATOM      8  C   UNL     1       7.737   7.503  17.924  0.00  0.00    +0.000 A 
ATOM      9  C   UNL     1       8.396   7.001  19.050  0.00  0.00    +0.000 A 
ATOM     10  C   UNL     1       8.187   5.678  19.396  0.00  0.00    +0.000 A 
ATOM     11  N   UNL     1       7.393   4.838  18.721  0.00  0.00    +0.000 NA
ATOM     12  C   UNL     1       6.748   5.332  17.636  0.00  0.00    +0.000 A 
ATOM     13  C   UNL     1       6.888   6.650  17.209  0.00  0.00    +0.000 A 
BRANCH  10  14
ATOM     14  O   UNL     1       8.796   5.129  20.485  0.00  0.00    +0.000 OA
ATOM     15  H   UNL     1       9.597   4.674  20.189  0.00  0.00    +0.000 HD
ENDBRANCH  10  14
ENDBRANCH   1  12
BRANCH   5  16
ATOM     16  C   UNL     1       1.931   2.700  18.998  0.00  0.00    +0.000 C 
ATOM     17  C   UNL     1       0.960   2.963  20.122  0.00  0.00    +0.000 C 
ATOM     18  C   UNL     1       0.462   2.411  18.815  0.00  0.00    +0.000 C 
ENDBRANCH   5  16
BRANCH   5  19
ATOM     19  O   UNL     1       1.888   5.061  18.255  0.00  0.00    +0.000 OA
ATOM     20  H   UNL     1       1.955   5.357  17.333  0.00  0.00    +0.000 HD
ENDBRANCH   5  19
TORSDOF 4
ENDMDL
MODEL 5
REMARK VINA RESULT:      -7.0      2.244      6.831
REMARK  Name = 
REMARK  5 active torsions:
REMARK  status: ('A' for Active; 'I' for Inactive)
REMARK    1  A    between atoms: C_1  and  C_2
REMARK    2  A    between atoms: C_4  and  O_5
REMARK    3  A    between atoms: C_7  and  C_8
REMARK    4  A    between atoms: C_12  and  O_13
REMARK    5  A    between atoms: C_12  and  C_14
REMARK                            x       y       z     vdW  Elec       q    Type
REMARK                         _______ _______ _______ _____ _____    ______ ____
ROOT
ATOM      1  C   UNL     1       5.486   4.689  18.803  0.00  0.00    +0.000 C 
ATOM      2  O   UNL     1       6.479   4.606  19.526  0.00  0.00    +0.000 OA
ATOM      3  N   UNL     1       5.575   4.831  17.436  0.00  0.00    +0.000 N 
ATOM      4  C   UNL     1       6.774   4.874  16.614  0.00  0.00    +0.000 C 
ATOM      5  C   UNL     1       5.805   4.759  15.375  0.00  0.00    +0.000 C 
ATOM      6  C   UNL     1       4.802   4.139  16.407  0.00  0.00    +0.000 C 
ENDROOT
BRANCH   1  12
ATOM      7  C   UNL     1       1.461   7.143  20.537  0.00  0.00    +0.000 C 
ATOM      8  C   UNL     1       2.171   5.867  20.199  0.00  0.00    +0.000 A 
ATOM      9  C   UNL     1       1.546   4.629  20.374  0.00  0.00    +0.000 A 
ATOM     10  C   UNL     1       2.256   3.486  20.052  0.00  0.00    +0.000 A 
ATOM     11  N   UNL     1       3.510   3.483  19.584  0.00  0.00    +0.000 NA
ATOM     12  C   UNL     1       4.108   4.686  19.407  0.00  0.00    +0.000 A 
ATOM     13  C   UNL     1       3.477   5.894  19.697  0.00  0.00    +0.000 A 
BRANCH  10  14
ATOM     14  O   UNL     1       1.703   2.247  20.195  0.00  0.00    +0.000 OA
ATOM     15  H   UNL     1       1.761   1.789  19.345  0.00  0.00    +0.000 HD
ENDBRANCH  10  14
ENDBRANCH   1  12
BRANCH   5  16
ATOM     16  C   UNL     1       6.242   3.823  14.241  0.00  0.00    +0.000 C 
ATOM     17  C   UNL     1       5.515   3.790  12.920  0.00  0.00    +0.000 C 
ATOM     18  C   UNL     1       6.939   4.268  12.980  0.00  0.00    +0.000 C 
ENDBRANCH   5  16
BRANCH   5  19
ATOM     19  O   UNL     1       5.346   6.047  14.859  0.00  0.00    +0.000 OA
ATOM     20  H   UNL     1       4.996   5.846  13.976  0.00  0.00    +0.000 HD
ENDBRANCH   5  19
TORSDOF 4
ENDMDL
MODEL 6
REMARK VINA RESULT:      -6.9      2.101      2.545
REMARK  Name = 
REMARK  5 active torsions:
REMARK  status: ('A' for Active; 'I' for Inactive)
REMARK    1  A    between atoms: C_1  and  C_2
REMARK    2  A    between atoms: C_4  and  O_5
REMARK    3  A    between atoms: C_7  and  C_8
REMARK    4  A    between atoms: C_12  and  O_13
REMARK    5  A    between atoms: C_12  and  C_14
REMARK                            x       y       z     vdW  Elec       q    Type
REMARK                         _______ _______ _______ _____ _____    ______ ____
ROOT
ATOM      1  C   UNL     1       5.173   5.711  16.040  0.00  0.00    +0.000 C 
ATOM      2  O   UNL     1       4.842   6.897  16.054  0.00  0.00    +0.000 OA
ATOM      3  N   UNL     1       4.936   4.864  17.100  0.00  0.00    +0.000 N 
ATOM      4  C   UNL     1       4.260   5.161  18.353  0.00  0.00    +0.000 C 
ATOM      5  C   UNL     1       4.286   3.607  18.618  0.00  0.00    +0.000 C 
ATOM      6  C   UNL     1       4.425   3.495  17.061  0.00  0.00    +0.000 C 
ENDROOT
BRANCH   1  12
ATOM      7  C   UNL     1       5.334   2.728  12.002  0.00  0.00    +0.000 C 
ATOM      8  C   UNL     1       5.967   3.744  12.905  0.00  0.00    +0.000 A 
ATOM      9  C   UNL     1       7.242   4.249  12.638  0.00  0.00    +0.000 A 
ATOM     10  C   UNL     1       7.776   5.178  13.513  0.00  0.00    +0.000 A 
ATOM     11  N   UNL     1       7.151   5.629  14.608  0.00  0.00    +0.000 NA
ATOM     12  C   UNL     1       5.910   5.144  14.857  0.00  0.00    +0.000 A 
ATOM     13  C   UNL     1       5.284   4.210  14.035  0.00  0.00    +0.000 A 
BRANCH  10  14
ATOM     14  O   UNL     1       9.013   5.713  13.308  0.00  0.00    +0.000 OA
ATOM     15  H   UNL     1       8.919   6.484  12.732  0.00  0.00    +0.000 HD
ENDBRANCH  10  14
ENDBRANCH   1  12
BRANCH   5  16
ATOM     16  C   UNL     1       3.015   2.986  19.210  0.00  0.00    +0.000 C 
ATOM     17  C   UNL     1       2.931   2.593  20.663  0.00  0.00    +0.000 C 
ATOM     18  C   UNL     1       2.060   3.698  20.134  0.00  0.00    +0.000 C 
ENDBRANCH   5  16
BRANCH   5  19
ATOM     19  O   UNL     1       5.483   3.144  19.317  0.00  0.00    +0.000 OA
ATOM     20  H   UNL     1       5.473   3.622  20.162  0.00  0.00    +0.000 HD
ENDBRANCH   5  19
TORSDOF 4
ENDMDL
MODEL 7
REMARK VINA RESULT:      -6.7      2.624      6.569
REMARK  Name = 
REMARK  5 active torsions:
REMARK  status: ('A' for Active; 'I' for Inactive)
REMARK    1  A    between atoms: C_1  and  C_2
REMARK    2  A    between atoms: C_4  and  O_5
REMARK    3  A    between atoms: C_7  and  C_8
REMARK    4  A    between atoms: C_12  and  O_13
REMARK    5  A    between atoms: C_12  and  C_14
REMARK                            x       y       z     vdW  Elec       q    Type
REMARK                         _______ _______ _______ _____ _____    ______ ____
ROOT
ATOM      1  C   UNL     1       5.235   4.347  18.625  0.00  0.00    +0.000 C 
ATOM      2  O   UNL     1       6.058   4.362  19.541  0.00  0.00    +0.000 OA
ATOM      3  N   UNL     1       5.555   4.711  17.336  0.00  0.00    +0.000 N 
ATOM      4  C   UNL     1       6.849   5.125  16.814  0.00  0.00    +0.000 C 
ATOM      5  C   UNL     1       6.198   5.002  15.384  0.00  0.00    +0.000 C 
ATOM      6  C   UNL     1       5.185   4.039  16.092  0.00  0.00    +0.000 C 
ENDROOT
BRANCH   1  12
ATOM      7  C   UNL     1       1.683   2.599  21.716  0.00  0.00    +0.000 C 
ATOM      8  C   UNL     1       2.104   3.166  20.394  0.00  0.00    +0.000 A 
ATOM      9  C   UNL     1       1.167   3.425  19.390  0.00  0.00    +0.000 A 
ATOM     10  C   UNL     1       1.618   3.941  18.189  0.00  0.00    +0.000 A 
ATOM     11  N   UNL     1       2.901   4.210  17.918  0.00  0.00    +0.000 NA
ATOM     12  C   UNL     1       3.805   3.967  18.898  0.00  0.00    +0.000 A 
ATOM     13  C   UNL     1       3.451   3.453  20.143  0.00  0.00    +0.000 A 
BRANCH  10  14
ATOM     14  O   UNL     1       0.754   4.220  17.171  0.00  0.00    +0.000 OA
ATOM     15  H   UNL     1       0.155   3.468  17.065  0.00  0.00    +0.000 HD
ENDBRANCH  10  14
ENDBRANCH   1  12
BRANCH   5  16
ATOM     16  C   UNL     1       7.056   4.361  14.287  0.00  0.00    +0.000 C 
ATOM     17  C   UNL     1       6.484   4.020  12.934  0.00  0.00    +0.000 C 
ATOM     18  C   UNL     1       7.549   5.075  13.053  0.00  0.00    +0.000 C 
ENDBRANCH   5  16
BRANCH   5  19
ATOM     19  O   UNL     1       5.560   6.231  14.914  0.00  0.00    +0.000 OA
ATOM     20  H   UNL     1       4.688   5.948  14.595  0.00  0.00    +0.000 HD
ENDBRANCH   5  19
TORSDOF 4
ENDMDL
MODEL 8
REMARK VINA RESULT:      -6.6      1.759      6.554
REMARK  Name = 
REMARK  5 active torsions:
REMARK  status: ('A' for Active; 'I' for Inactive)
REMARK    1  A    between atoms: C_1  and  C_2
REMARK    2  A    between atoms: C_4  and  O_5
REMARK    3  A    between atoms: C_7  and  C_8
REMARK    4  A    between atoms: C_12  and  O_13
REMARK    5  A    between atoms: C_12  and  C_14
REMARK                            x       y       z     vdW  Elec       q    Type
REMARK                         _______ _______ _______ _____ _____    ______ ____
ROOT
ATOM      1  C   UNL     1       5.787   4.768  18.150  0.00  0.00    +0.000 C 
ATOM      2  O   UNL     1       6.658   4.323  18.899  0.00  0.00    +0.000 OA
ATOM      3  N   UNL     1       5.933   4.799  16.781  0.00  0.00    +0.000 N 
ATOM      4  C   UNL     1       7.050   4.314  15.985  0.00  0.00    +0.000 C 
ATOM      5  C   UNL     1       6.124   4.544  14.730  0.00  0.00    +0.000 C 
ATOM      6  C   UNL     1       4.951   4.433  15.763  0.00  0.00    +0.000 C 
ENDROOT
BRANCH   1  12
ATOM      7  C   UNL     1       2.136   8.216  18.079  0.00  0.00    +0.000 C 
ATOM      8  C   UNL     1       2.760   6.982  18.658  0.00  0.00    +0.000 A 
ATOM      9  C   UNL     1       2.150   6.293  19.710  0.00  0.00    +0.000 A 
ATOM     10  C   UNL     1       2.778   5.166  20.207  0.00  0.00    +0.000 A 
ATOM     11  N   UNL     1       3.941   4.687  19.748  0.00  0.00    +0.000 NA
ATOM     12  C   UNL     1       4.524   5.352  18.722  0.00  0.00    +0.000 A 
ATOM     13  C   UNL     1       3.969   6.493  18.149  0.00  0.00    +0.000 A 
BRANCH  10  14
ATOM     14  O   UNL     1       2.234   4.446  21.229  0.00  0.00    +0.000 OA
ATOM     15  H   UNL     1       2.513   3.525  21.135  0.00  0.00    +0.000 HD
ENDBRANCH  10  14
ENDBRANCH   1  12
BRANCH   5  16
ATOM     16  C   UNL     1       6.149   3.461  13.646  0.00  0.00    +0.000 C 
ATOM     17  C   UNL     1       5.259   3.539  12.430  0.00  0.00    +0.000 C 
ATOM     18  C   UNL     1       6.751   3.631  12.273  0.00  0.00    +0.000 C 
ENDBRANCH   5  16
BRANCH   5  19
ATOM     19  O   UNL     1       6.230   5.882  14.152  0.00  0.00    +0.000 OA
ATOM     20  H   UNL     1       7.096   6.208  14.447  0.00  0.00    +0.000 HD
ENDBRANCH   5  19
TORSDOF 4
ENDMDL
MODEL 9
REMARK VINA RESULT:      -6.5      2.781      6.429
REMARK  Name = 
REMARK  5 active torsions:
REMARK  status: ('A' for Active; 'I' for Inactive)
REMARK    1  A    between atoms: C_1  and  C_2
REMARK    2  A    between atoms: C_4  and  O_5
REMARK    3  A    between atoms: C_7  and  C_8
REMARK    4  A    between atoms: C_12  and  O_13
REMARK    5  A    between atoms: C_12  and  C_14
REMARK                            x       y       z     vdW  Elec       q    Type
REMARK                         _______ _______ _______ _____ _____    ______ ____
ROOT
ATOM      1  C   UNL     1       4.566   5.290  17.336  0.00  0.00    +0.000 C 
ATOM      2  O   UNL     1       4.639   6.445  17.756  0.00  0.00    +0.000 OA
ATOM      3  N   UNL     1       4.968   4.937  16.066  0.00  0.00    +0.000 N 
ATOM      4  C   UNL     1       5.555   5.786  15.041  0.00  0.00    +0.000 C 
ATOM      5  C   UNL     1       5.856   4.454  14.254  0.00  0.00    +0.000 C 
ATOM      6  C   UNL     1       5.757   3.775  15.662  0.00  0.00    +0.000 C 
ENDROOT
BRANCH   1  12
ATOM      7  C   UNL     1       0.638   2.543  18.839  0.00  0.00    +0.000 C 
ATOM      8  C   UNL     1       2.100   2.871  18.884  0.00  0.00    +0.000 A 
ATOM      9  C   UNL     1       2.979   2.133  19.681  0.00  0.00    +0.000 A 
ATOM     10  C   UNL     1       4.316   2.488  19.687  0.00  0.00    +0.000 A 
ATOM     11  N   UNL     1       4.830   3.500  18.977  0.00  0.00    +0.000 NA
ATOM     12  C   UNL     1       3.976   4.206  18.197  0.00  0.00    +0.000 A 
ATOM     13  C   UNL     1       2.615   3.924  18.119  0.00  0.00    +0.000 A 
BRANCH  10  14
ATOM     14  O   UNL     1       5.225   1.806  20.440  0.00  0.00    +0.000 OA
ATOM     15  H   UNL     1       4.945   1.845  21.365  0.00  0.00    +0.000 HD
ENDBRANCH  10  14
ENDBRANCH   1  12
BRANCH   5  16
ATOM     16  C   UNL     1       7.224   4.350  13.569  0.00  0.00    +0.000 C 
ATOM     17  C   UNL     1       7.350   4.070  12.093  0.00  0.00    +0.000 C 
ATOM     18  C   UNL     1       7.805   5.391  12.646  0.00  0.00    +0.000 C 
ENDBRANCH   5  16
BRANCH   5  19
ATOM     19  O   UNL     1       4.777   4.037  13.359  0.00  0.00    +0.000 OA
ATOM     20  H   UNL     1       4.335   4.864  13.107  0.00  0.00    +0.000 HD
ENDBRANCH   5  19
TORSDOF 4
ENDMDL
