MODEL 1
REMARK VINA RESULT:      -7.5      0.000      0.000
REMARK  Name = 
REMARK  9 active torsions:
REMARK  status: ('A' for Active; 'I' for Inactive)
REMARK    1  A    between atoms: C_1  and  C_2
REMARK    2  A    between atoms: C_2  and  N_3
REMARK    3  A    between atoms: N_3  and  C_4
REMARK    4  A    between atoms: N_3  and  C_6
REMARK    5  A    between atoms: C_4  and  C_5
REMARK    6  A    between atoms: C_6  and  C_7
REMARK    7  A    between atoms: C_7  and  N_8
REMARK    8  A    between atoms: N_8  and  C_9
REMARK    9  A    between atoms: C_12  and  C_13
REMARK                            x       y       z     vdW  Elec       q    Type
REMARK                         _______ _______ _______ _____ _____    ______ ____
ROOT
ATOM      1  C   UNL     1       4.100   4.001  17.731  0.00  0.00    +0.000 A 
ATOM      2  C   UNL     1       4.227   2.725  18.338  0.00  0.00    +0.000 A 
ATOM      3  C   UNL     1       3.659   2.421  19.555  0.00  0.00    +0.000 A 
ATOM      4  C   UNL     1       2.948   3.375  20.258  0.00  0.00    +0.000 A 
ATOM      5  C   UNL     1       2.346   2.991  21.587  0.00  0.00    +0.000 C 
ATOM      6  C   UNL     1       2.811   4.672  19.717  0.00  0.00    +0.000 A 
ATOM      7  S   UNL     1       1.958   5.828  20.603  0.00  0.00    +0.000 S 
ATOM      8  C   UNL     1       1.869   7.310  19.843  0.00  0.00    +0.000 A 
ATOM      9  C   UNL     1       1.204   8.373  20.461  0.00  0.00    +0.000 A 
ATOM     10  C   UNL     1       1.130   9.611  19.824  0.00  0.00    +0.000 A 
ATOM     11  C   UNL     1       1.716   9.784  18.573  0.00  0.00    +0.000 A 
ATOM     12  C   UNL     1       2.384   8.722  17.958  0.00  0.00    +0.000 A 
ATOM     13  C   UNL     1       2.481   7.451  18.585  0.00  0.00    +0.000 A 
ATOM     14  C   UNL     1       3.185   6.387  17.931  0.00  0.00    +0.000 A 
ATOM     15  O   UNL     1       3.672   6.680  16.860  0.00  0.00    +0.000 OA
ATOM     16  C   UNL     1       3.367   5.037  18.447  0.00  0.00    +0.000 A 
ENDROOT
BRANCH   1  17
ATOM     17  N   UNL     1       4.673   4.179  16.411  0.00  0.00    +0.000 N 
ATOM     18  H   UNL     1       4.111   4.229  15.563  0.00  0.00    +0.000 HD
BRANCH  17  19
ATOM     19  C   UNL     1       6.095   4.051  16.163  0.00  0.00    +0.000 C 
BRANCH  19  20
ATOM     20  C   UNL     1       6.752   5.402  15.836  0.00  0.00    +0.000 C 
BRANCH  20  21
ATOM     21  N   UNL     1       7.481   5.980  16.998  0.00  0.00    +0.000 NA
BRANCH  21  23
ATOM     22  C   UNL     1       7.955   8.387  17.650  0.00  0.00    +0.000 C 
ATOM     23  C   UNL     1       6.914   7.291  17.434  0.00  0.00    +0.000 C 
ENDBRANCH  21  23
BRANCH  21  24
ATOM     24  C   UNL     1       7.616   4.983  18.090  0.00  0.00    +0.000 C 
ATOM     25  C   UNL     1       7.748   5.588  19.497  0.00  0.00    +0.000 C 
ENDBRANCH  21  24
ENDBRANCH  20  21
ENDBRANCH  19  20
ENDBRANCH  17  19
ENDBRANCH   1  17
TORSDOF 6
ENDMDL
MODEL 2
REMARK VINA RESULT:      -7.1      2.630      5.972
REMARK  Name = 
REMARK  9 active torsions:
REMARK  status: ('A' for Active; 'I' for Inactive)
REMARK    1  A    between atoms: C_1  and  C_2
REMARK    2  A    between atoms: C_2  and  N_3
REMARK    3  A    between atoms: N_3  and  C_4
REMARK    4  A    between atoms: N_3  and  C_6
REMARK    5  A    between atoms: C_4  and  C_5
REMARK    6  A    between atoms: C_6  and  C_7
REMARK    7  A    between atoms: C_7  and  N_8
REMARK    8  A    between atoms: N_8  and  C_9
REMARK    9  A    between atoms: C_12  and  C_13
REMARK                            x       y       z     vdW  Elec       q    Type
REMARK                         _______ _______ _______ _____ _____    ______ ____
ROOT
ATOM      1  C   UNL     1       2.142   6.094  19.854  0.00  0.00    +0.000 A 
ATOM      2  C   UNL     1       1.315   5.312  20.701  0.00  0.00    +0.000 A 
ATOM      3  C   UNL     1       1.250   3.939  20.616  0.00  0.00    +0.000 A 
ATOM      4  C   UNL     1       1.986   3.258  19.665  0.00  0.00    +0.000 A 
ATOM      5  C   UNL     1       1.878   1.753  19.614  0.00  0.00    +0.000 C 
ATOM      6  C   UNL     1       2.806   3.984  18.775  0.00  0.00    +0.000 A 
ATOM      7  S   UNL     1       3.678   3.133  17.607  0.00  0.00    +0.000 S 
ATOM      8  C   UNL     1       4.607   4.115  16.631  0.00  0.00    +0.000 A 
ATOM      9  C   UNL     1       5.377   3.555  15.607  0.00  0.00    +0.000 A 
ATOM     10  C   UNL     1       6.154   4.376  14.792  0.00  0.00    +0.000 A 
ATOM     11  C   UNL     1       6.164   5.753  15.002  0.00  0.00    +0.000 A 
ATOM     12  C   UNL     1       5.391   6.312  16.023  0.00  0.00    +0.000 A 
ATOM     13  C   UNL     1       4.585   5.501  16.865  0.00  0.00    +0.000 A 
ATOM     14  C   UNL     1       3.794   6.110  17.895  0.00  0.00    +0.000 A 
ATOM     15  O   UNL     1       3.873   7.318  17.951  0.00  0.00    +0.000 OA
ATOM     16  C   UNL     1       2.923   5.412  18.831  0.00  0.00    +0.000 A 
ENDROOT
BRANCH   1  17
ATOM     17  N   UNL     1       2.188   7.524  20.091  0.00  0.00    +0.000 N 
ATOM     18  H   UNL     1       2.985   8.104  19.834  0.00  0.00    +0.000 HD
BRANCH  17  19
ATOM     19  C   UNL     1       1.217   8.199  20.929  0.00  0.00    +0.000 C 
BRANCH  19  20
ATOM     20  C   UNL     1       0.990   9.656  20.497  0.00  0.00    +0.000 C 
BRANCH  20  21
ATOM     21  N   UNL     1       0.635   9.778  19.057  0.00  0.00    +0.000 NA
BRANCH  21  23
ATOM     22  C   UNL     1      -1.399   9.950  17.548  0.00  0.00    +0.000 C 
ATOM     23  C   UNL     1      -0.721  10.369  18.849  0.00  0.00    +0.000 C 
ENDBRANCH  21  23
BRANCH  21  24
ATOM     24  C   UNL     1       1.716  10.456  18.298  0.00  0.00    +0.000 C 
ATOM     25  C   UNL     1       1.822  11.969  18.547  0.00  0.00    +0.000 C 
ENDBRANCH  21  24
ENDBRANCH  20  21
ENDBRANCH  19  20
ENDBRANCH  17  19
ENDBRANCH   1  17
TORSDOF 6
ENDMDL
MODEL 3
REMARK VINA RESULT:      -7.1      2.852      6.371
REMARK  Name = 
REMARK  9 active torsions:
REMARK  status: ('A' for Active; 'I' for Inactive)
REMARK    1  A    between atoms: C_1  and  C_2
REMARK    2  A    between atoms: C_2  and  N_3
REMARK    3  A    between atoms: N_3  and  C_4
REMARK    4  A    between atoms: N_3  and  C_6
REMARK    5  A    between atoms: C_4  and  C_5
REMARK    6  A    between atoms: C_6  and  C_7
REMARK    7  A    between atoms: C_7  and  N_8
REMARK    8  A    between atoms: N_8  and  C_9
REMARK    9  A    between atoms: C_12  and  C_13
REMARK                            x       y       z     vdW  Elec       q    Type
REMARK                         _______ _______ _______ _____ _____    ______ ____
ROOT
ATOM      1  C   UNL     1       2.262   6.157  19.789  0.00  0.00    +0.000 A 
ATOM      2  C   UNL     1       1.423   5.431  20.673  0.00  0.00    +0.000 A 
ATOM      3  C   UNL     1       1.322   4.058  20.642  0.00  0.00    +0.000 A 
ATOM      4  C   UNL     1       2.030   3.321  19.712  0.00  0.00    +0.000 A 
ATOM      5  C   UNL     1       1.883   1.820  19.720  0.00  0.00    +0.000 C 
ATOM      6  C   UNL     1       2.860   3.991  18.787  0.00  0.00    +0.000 A 
ATOM      7  S   UNL     1       3.699   3.072  17.646  0.00  0.00    +0.000 S 
ATOM      8  C   UNL     1       4.644   3.991  16.624  0.00  0.00    +0.000 A 
ATOM      9  C   UNL     1       5.389   3.372  15.616  0.00  0.00    +0.000 A 
ATOM     10  C   UNL     1       6.179   4.140  14.763  0.00  0.00    +0.000 A 
ATOM     11  C   UNL     1       6.227   5.523  14.919  0.00  0.00    +0.000 A 
ATOM     12  C   UNL     1       5.479   6.141  15.924  0.00  0.00    +0.000 A 
ATOM     13  C   UNL     1       4.660   5.385  16.804  0.00  0.00    +0.000 A 
ATOM     14  C   UNL     1       3.895   6.054  17.816  0.00  0.00    +0.000 A 
ATOM     15  O   UNL     1       4.006   7.261  17.824  0.00  0.00    +0.000 OA
ATOM     16  C   UNL     1       3.016   5.416  18.787  0.00  0.00    +0.000 A 
ENDROOT
BRANCH   1  17
ATOM     17  N   UNL     1       2.348   7.594  19.969  0.00  0.00    +0.000 N 
ATOM     18  H   UNL     1       3.188   8.131  19.761  0.00  0.00    +0.000 HD
BRANCH  17  19
ATOM     19  C   UNL     1       1.337   8.343  20.689  0.00  0.00    +0.000 C 
BRANCH  19  20
ATOM     20  C   UNL     1       1.022   9.688  20.016  0.00  0.00    +0.000 C 
BRANCH  20  21
ATOM     21  N   UNL     1       0.043  10.499  20.789  0.00  0.00    +0.000 NA
BRANCH  21  23
ATOM     22  C   UNL     1      -1.344  10.310  18.671  0.00  0.00    +0.000 C 
ATOM     23  C   UNL     1      -1.001  11.120  19.919  0.00  0.00    +0.000 C 
ENDBRANCH  21  23
BRANCH  21  24
ATOM     24  C   UNL     1      -0.502   9.726  21.933  0.00  0.00    +0.000 C 
ATOM     25  C   UNL     1      -0.977  10.582  23.119  0.00  0.00    +0.000 C 
ENDBRANCH  21  24
ENDBRANCH  20  21
ENDBRANCH  19  20
ENDBRANCH  17  19
ENDBRANCH   1  17
TORSDOF 6
ENDMDL
MODEL 4
REMARK VINA RESULT:      -7.0      3.009      6.312
REMARK  Name = 
REMARK  9 active torsions:
REMARK  status: ('A' for Active; 'I' for Inactive)
REMARK    1  A    between atoms: C_1  and  C_2
REMARK    2  A    between atoms: C_2  and  N_3
REMARK    3  A    between atoms: N_3  and  C_4
REMARK    4  A    between atoms: N_3  and  C_6
REMARK    5  A    between atoms: C_4  and  C_5
REMARK    6  A    between atoms: C_6  and  C_7
REMARK    7  A    between atoms: C_7  and  N_8
REMARK    8  A    between atoms: N_8  and  C_9
REMARK    9  A    between atoms: C_12  and  C_13
REMARK                            x       y       z     vdW  Elec       q    Type
REMARK                         _______ _______ _______ _____ _____    ______ ____
ROOT
ATOM      1  C   UNL     1       2.092   6.007  20.042  0.00  0.00    +0.000 A 
ATOM      2  C   UNL     1       1.226   5.165  20.786  0.00  0.00    +0.000 A 
ATOM      3  C   UNL     1       1.089   3.820  20.524  0.00  0.00    +0.000 A 
ATOM      4  C   UNL     1       1.789   3.231  19.487  0.00  0.00    +0.000 A 
ATOM      5  C   UNL     1       1.604   1.754  19.242  0.00  0.00    +0.000 C 
ATOM      6  C   UNL     1       2.646   4.024  18.694  0.00  0.00    +0.000 A 
ATOM      7  S   UNL     1       3.473   3.288  17.420  0.00  0.00    +0.000 S 
ATOM      8  C   UNL     1       4.452   4.340  16.573  0.00  0.00    +0.000 A 
ATOM      9  C   UNL     1       5.192   3.879  15.480  0.00  0.00    +0.000 A 
ATOM     10  C   UNL     1       6.010   4.759  14.774  0.00  0.00    +0.000 A 
ATOM     11  C   UNL     1       6.091   6.094  15.160  0.00  0.00    +0.000 A 
ATOM     12  C   UNL     1       5.349   6.554  16.251  0.00  0.00    +0.000 A 
ATOM     13  C   UNL     1       4.502   5.683  16.986  0.00  0.00    +0.000 A 
ATOM     14  C   UNL     1       3.744   6.193  18.091  0.00  0.00    +0.000 A 
ATOM     15  O   UNL     1       3.885   7.378  18.303  0.00  0.00    +0.000 OA
ATOM     16  C   UNL     1       2.838   5.425  18.935  0.00  0.00    +0.000 A 
ENDROOT
BRANCH   1  17
ATOM     17  N   UNL     1       2.213   7.389  20.463  0.00  0.00    +0.000 N 
ATOM     18  H   UNL     1       3.110   7.848  20.614  0.00  0.00    +0.000 HD
BRANCH  17  19
ATOM     19  C   UNL     1       1.077   8.153  20.939  0.00  0.00    +0.000 C 
BRANCH  19  20
ATOM     20  C   UNL     1       1.445   9.070  22.116  0.00  0.00    +0.000 C 
BRANCH  20  21
ATOM     21  N   UNL     1       0.705  10.361  22.089  0.00  0.00    +0.000 NA
BRANCH  21  23
ATOM     22  C   UNL     1       1.319  12.136  20.381  0.00  0.00    +0.000 C 
ATOM     23  C   UNL     1       0.511  10.881  20.702  0.00  0.00    +0.000 C 
ENDBRANCH  21  23
BRANCH  21  24
ATOM     24  C   UNL     1      -0.544  10.274  22.886  0.00  0.00    +0.000 C 
ATOM     25  C   UNL     1      -1.345  11.584  22.968  0.00  0.00    +0.000 C 
ENDBRANCH  21  24
ENDBRANCH  20  21
ENDBRANCH  19  20
ENDBRANCH  17  19
ENDBRANCH   1  17
TORSDOF 6
ENDMDL
MODEL 5
REMARK VINA RESULT:      -7.0      2.828      6.422
REMARK  Name = 
REMARK  9 active torsions:
REMARK  status: ('A' for Active; 'I' for Inactive)
REMARK    1  A    between atoms: C_1  and  C_2
REMARK    2  A    between atoms: C_2  and  N_3
REMARK    3  A    between atoms: N_3  and  C_4
REMARK    4  A    between atoms: N_3  and  C_6
REMARK    5  A    between atoms: C_4  and  C_5
REMARK    6  A    between atoms: C_6  and  C_7
REMARK    7  A    between atoms: C_7  and  N_8
REMARK    8  A    between atoms: N_8  and  C_9
REMARK    9  A    between atoms: C_12  and  C_13
REMARK                            x       y       z     vdW  Elec       q    Type
REMARK                         _______ _______ _______ _____ _____    ______ ____
ROOT
ATOM      1  C   UNL     1       2.157   6.091  19.875  0.00  0.00    +0.000 A 
ATOM      2  C   UNL     1       1.330   5.312  20.725  0.00  0.00    +0.000 A 
ATOM      3  C   UNL     1       1.260   3.939  20.639  0.00  0.00    +0.000 A 
ATOM      4  C   UNL     1       1.989   3.256  19.685  0.00  0.00    +0.000 A 
ATOM      5  C   UNL     1       1.876   1.752  19.632  0.00  0.00    +0.000 C 
ATOM      6  C   UNL     1       2.808   3.980  18.792  0.00  0.00    +0.000 A 
ATOM      7  S   UNL     1       3.673   3.126  17.620  0.00  0.00    +0.000 S 
ATOM      8  C   UNL     1       4.602   4.106  16.640  0.00  0.00    +0.000 A 
ATOM      9  C   UNL     1       5.366   3.544  15.613  0.00  0.00    +0.000 A 
ATOM     10  C   UNL     1       6.142   4.363  14.796  0.00  0.00    +0.000 A 
ATOM     11  C   UNL     1       6.158   5.740  15.007  0.00  0.00    +0.000 A 
ATOM     12  C   UNL     1       5.392   6.301  16.031  0.00  0.00    +0.000 A 
ATOM     13  C   UNL     1       4.586   5.492  16.876  0.00  0.00    +0.000 A 
ATOM     14  C   UNL     1       3.801   6.103  17.909  0.00  0.00    +0.000 A 
ATOM     15  O   UNL     1       3.885   7.311  17.966  0.00  0.00    +0.000 OA
ATOM     16  C   UNL     1       2.932   5.408  18.849  0.00  0.00    +0.000 A 
ENDROOT
BRANCH   1  17
ATOM     17  N   UNL     1       2.209   7.521  20.113  0.00  0.00    +0.000 N 
ATOM     18  H   UNL     1       2.998   8.102  19.835  0.00  0.00    +0.000 HD
BRANCH  17  19
ATOM     19  C   UNL     1       1.262   8.194  20.979  0.00  0.00    +0.000 C 
BRANCH  19  20
ATOM     20  C   UNL     1       1.099   9.679  20.619  0.00  0.00    +0.000 C 
BRANCH  20  21
ATOM     21  N   UNL     1      -0.311  10.043  20.314  0.00  0.00    +0.000 NA
BRANCH  21  23
ATOM     22  C   UNL     1      -0.840  10.782  22.684  0.00  0.00    +0.000 C 
ATOM     23  C   UNL     1      -0.827  11.131  21.197  0.00  0.00    +0.000 C 
ENDBRANCH  21  23
BRANCH  21  24
ATOM     24  C   UNL     1      -0.490  10.303  18.863  0.00  0.00    +0.000 C 
ATOM     25  C   UNL     1      -1.922  10.681  18.451  0.00  0.00    +0.000 C 
ENDBRANCH  21  24
ENDBRANCH  20  21
ENDBRANCH  19  20
ENDBRANCH  17  19
ENDBRANCH   1  17
TORSDOF 6
ENDMDL
MODEL 6
REMARK VINA RESULT:      -7.0      0.408      1.252
REMARK  Name = 
REMARK  9 active torsions:
REMARK  status: ('A' for Active; 'I' for Inactive)
REMARK    1  A    between atoms: C_1  and  C_2
REMARK    2  A    between atoms: C_2  and  N_3
REMARK    3  A    between atoms: N_3  and  C_4
REMARK    4  A    between atoms: N_3  and  C_6
REMARK    5  A    between atoms: C_4  and  C_5
REMARK    6  A    between atoms: C_6  and  C_7
REMARK    7  A    between atoms: C_7  and  N_8
REMARK    8  A    between atoms: N_8  and  C_9
REMARK    9  A    between atoms: C_12  and  C_13
REMARK                            x       y       z     vdW  Elec       q    Type
REMARK                         _______ _______ _______ _____ _____    ______ ____
ROOT
ATOM      1  C   UNL     1       4.050   4.239  17.710  0.00  0.00    +0.000 A 
ATOM      2  C   UNL     1       4.194   2.942  18.266  0.00  0.00    +0.000 A 
ATOM      3  C   UNL     1       3.624   2.580  19.467  0.00  0.00    +0.000 A 
ATOM      4  C   UNL     1       2.894   3.495  20.202  0.00  0.00    +0.000 A 
ATOM      5  C   UNL     1       2.291   3.048  21.511  0.00  0.00    +0.000 C 
ATOM      6  C   UNL     1       2.740   4.810  19.714  0.00  0.00    +0.000 A 
ATOM      7  S   UNL     1       1.864   5.916  20.640  0.00  0.00    +0.000 S 
ATOM      8  C   UNL     1       1.757   7.426  19.940  0.00  0.00    +0.000 A 
ATOM      9  C   UNL     1       1.072   8.453  20.595  0.00  0.00    +0.000 A 
ATOM     10  C   UNL     1       0.982   9.714  20.009  0.00  0.00    +0.000 A 
ATOM     11  C   UNL     1       1.573   9.947  18.770  0.00  0.00    +0.000 A 
ATOM     12  C   UNL     1       2.260   8.920  18.117  0.00  0.00    +0.000 A 
ATOM     13  C   UNL     1       2.374   7.627  18.692  0.00  0.00    +0.000 A 
ATOM     14  C   UNL     1       3.098   6.601  18.001  0.00  0.00    +0.000 A 
ATOM     15  O   UNL     1       3.586   6.944  16.946  0.00  0.00    +0.000 OA
ATOM     16  C   UNL     1       3.298   5.234  18.463  0.00  0.00    +0.000 A 
ENDROOT
BRANCH   1  17
ATOM     17  N   UNL     1       4.629   4.479  16.402  0.00  0.00    +0.000 N 
ATOM     18  H   UNL     1       4.138   4.974  15.660  0.00  0.00    +0.000 HD
BRANCH  17  19
ATOM     19  C   UNL     1       5.845   3.823  15.964  0.00  0.00    +0.000 C 
BRANCH  19  20
ATOM     20  C   UNL     1       7.065   4.755  16.032  0.00  0.00    +0.000 C 
BRANCH  20  21
ATOM     21  N   UNL     1       6.955   5.763  17.122  0.00  0.00    +0.000 NA
BRANCH  21  23
ATOM     22  C   UNL     1       6.825   5.359  19.624  0.00  0.00    +0.000 C 
ATOM     23  C   UNL     1       7.680   5.349  18.360  0.00  0.00    +0.000 C 
ENDBRANCH  21  23
BRANCH  21  24
ATOM     24  C   UNL     1       7.316   7.117  16.631  0.00  0.00    +0.000 C 
ATOM     25  C   UNL     1       7.854   8.069  17.712  0.00  0.00    +0.000 C 
ENDBRANCH  21  24
ENDBRANCH  20  21
ENDBRANCH  19  20
ENDBRANCH  17  19
ENDBRANCH   1  17
TORSDOF 6
ENDMDL
MODEL 7
REMARK VINA RESULT:      -6.9      2.746      6.139
REMARK  Name = 
REMARK  9 active torsions:
REMARK  status: ('A' for Active; 'I' for Inactive)
REMARK    1  A    between atoms: C_1  and  C_2
REMARK    2  A    between atoms: C_2  and  N_3
REMARK    3  A    between atoms: N_3  and  C_4
REMARK    4  A    between atoms: N_3  and  C_6
REMARK    5  A    between atoms: C_4  and  C_5
REMARK    6  A    between atoms: C_6  and  C_7
REMARK    7  A    between atoms: C_7  and  N_8
REMARK    8  A    between atoms: N_8  and  C_9
REMARK    9  A    between atoms: C_12  and  C_13
REMARK                            x       y       z     vdW  Elec       q    Type
REMARK                         _______ _______ _______ _____ _____    ______ ____
ROOT
ATOM      1  C   UNL     1       2.255   6.237  19.783  0.00  0.00    +0.000 A 
ATOM      2  C   UNL     1       1.378   5.529  20.644  0.00  0.00    +0.000 A 
ATOM      3  C   UNL     1       1.225   4.161  20.589  0.00  0.00    +0.000 A 
ATOM      4  C   UNL     1       1.918   3.413  19.657  0.00  0.00    +0.000 A 
ATOM      5  C   UNL     1       1.714   1.918  19.638  0.00  0.00    +0.000 C 
ATOM      6  C   UNL     1       2.785   4.065  18.754  0.00  0.00    +0.000 A 
ATOM      7  S   UNL     1       3.604   3.134  17.609  0.00  0.00    +0.000 S 
ATOM      8  C   UNL     1       4.596   4.032  16.614  0.00  0.00    +0.000 A 
ATOM      9  C   UNL     1       5.331   3.401  15.606  0.00  0.00    +0.000 A 
ATOM     10  C   UNL     1       6.161   4.153  14.776  0.00  0.00    +0.000 A 
ATOM     11  C   UNL     1       6.259   5.530  14.955  0.00  0.00    +0.000 A 
ATOM     12  C   UNL     1       5.521   6.160  15.961  0.00  0.00    +0.000 A 
ATOM     13  C   UNL     1       4.663   5.422  16.818  0.00  0.00    +0.000 A 
ATOM     14  C   UNL     1       3.910   6.103  17.830  0.00  0.00    +0.000 A 
ATOM     15  O   UNL     1       4.066   7.304  17.860  0.00  0.00    +0.000 OA
ATOM     16  C   UNL     1       2.994   5.484  18.779  0.00  0.00    +0.000 A 
ENDROOT
BRANCH   1  17
ATOM     17  N   UNL     1       2.393   7.666  19.989  0.00  0.00    +0.000 N 
ATOM     18  H   UNL     1       3.295   8.136  20.033  0.00  0.00    +0.000 HD
BRANCH  17  19
ATOM     19  C   UNL     1       1.277   8.498  20.392  0.00  0.00    +0.000 C 
BRANCH  19  20
ATOM     20  C   UNL     1       0.912   9.539  19.322  0.00  0.00    +0.000 C 
BRANCH  20  21
ATOM     21  N   UNL     1       0.159  10.695  19.881  0.00  0.00    +0.000 NA
BRANCH  21  23
ATOM     22  C   UNL     1       1.879  12.084  18.634  0.00  0.00    +0.000 C 
ATOM     23  C   UNL     1       0.944  11.965  19.834  0.00  0.00    +0.000 C 
ENDBRANCH  21  23
BRANCH  21  24
ATOM     24  C   UNL     1      -1.192  10.793  19.274  0.00  0.00    +0.000 C 
ATOM     25  C   UNL     1      -1.295  10.234  17.845  0.00  0.00    +0.000 C 
ENDBRANCH  21  24
ENDBRANCH  20  21
ENDBRANCH  19  20
ENDBRANCH  17  19
ENDBRANCH   1  17
TORSDOF 6
ENDMDL
MODEL 8
REMARK VINA RESULT:      -6.9      2.844      6.341
REMARK  Name = 
REMARK  9 active torsions:
REMARK  status: ('A' for Active; 'I' for Inactive)
REMARK    1  A    between atoms: C_1  and  C_2
REMARK    2  A    between atoms: C_2  and  N_3
REMARK    3  A    between atoms: N_3  and  C_4
REMARK    4  A    between atoms: N_3  and  C_6
REMARK    5  A    between atoms: C_4  and  C_5
REMARK    6  A    between atoms: C_6  and  C_7
REMARK    7  A    between atoms: C_7  and  N_8
REMARK    8  A    between atoms: N_8  and  C_9
REMARK    9  A    between atoms: C_12  and  C_13
REMARK                            x       y       z     vdW  Elec       q    Type
REMARK                         _______ _______ _______ _____ _____    ______ ____
ROOT
ATOM      1  C   UNL     1       2.268   6.074  19.801  0.00  0.00    +0.000 A 
ATOM      2  C   UNL     1       1.374   5.336  20.619  0.00  0.00    +0.000 A 
ATOM      3  C   UNL     1       1.211   3.973  20.501  0.00  0.00    +0.000 A 
ATOM      4  C   UNL     1       1.909   3.262  19.544  0.00  0.00    +0.000 A 
ATOM      5  C   UNL     1       1.693   1.771  19.455  0.00  0.00    +0.000 C 
ATOM      6  C   UNL     1       2.792   3.946  18.682  0.00  0.00    +0.000 A 
ATOM      7  S   UNL     1       3.618   3.060  17.506  0.00  0.00    +0.000 S 
ATOM      8  C   UNL     1       4.630   3.993  16.565  0.00  0.00    +0.000 A 
ATOM      9  C   UNL     1       5.372   3.402  15.538  0.00  0.00    +0.000 A 
ATOM     10  C   UNL     1       6.219   4.183  14.753  0.00  0.00    +0.000 A 
ATOM     11  C   UNL     1       6.325   5.550  14.995  0.00  0.00    +0.000 A 
ATOM     12  C   UNL     1       5.581   6.141  16.019  0.00  0.00    +0.000 A 
ATOM     13  C   UNL     1       4.705   5.372  16.832  0.00  0.00    +0.000 A 
ATOM     14  C   UNL     1       3.946   6.014  17.865  0.00  0.00    +0.000 A 
ATOM     15  O   UNL     1       4.111   7.211  17.950  0.00  0.00    +0.000 OA
ATOM     16  C   UNL     1       3.013   5.360  18.773  0.00  0.00    +0.000 A 
ENDROOT
BRANCH   1  17
ATOM     17  N   UNL     1       2.414   7.491  20.073  0.00  0.00    +0.000 N 
ATOM     18  H   UNL     1       3.165   7.872  20.646  0.00  0.00    +0.000 HD
BRANCH  17  19
ATOM     19  C   UNL     1       1.373   8.449  19.759  0.00  0.00    +0.000 C 
BRANCH  19  20
ATOM     20  C   UNL     1       0.722   9.034  21.021  0.00  0.00    +0.000 C 
BRANCH  20  21
ATOM     21  N   UNL     1       0.030  10.326  20.762  0.00  0.00    +0.000 NA
BRANCH  21  23
ATOM     22  C   UNL     1      -0.571   9.986  23.205  0.00  0.00    +0.000 C 
ATOM     23  C   UNL     1      -0.545  10.927  22.003  0.00  0.00    +0.000 C 
ENDBRANCH  21  23
BRANCH  21  24
ATOM     24  C   UNL     1       0.898  11.248  19.987  0.00  0.00    +0.000 C 
ATOM     25  C   UNL     1       1.020  12.662  20.577  0.00  0.00    +0.000 C 
ENDBRANCH  21  24
ENDBRANCH  20  21
ENDBRANCH  19  20
ENDBRANCH  17  19
ENDBRANCH   1  17
TORSDOF 6
ENDMDL
MODEL 9
REMARK VINA RESULT:      -6.8      2.841      6.476
REMARK  Name = 
REMARK  9 active torsions:
REMARK  status: ('A' for Active; 'I' for Inactive)
REMARK    1  A    between atoms: C_1  and  C_2
REMARK    2  A    between atoms: C_2  and  N_3
REMARK    3  A    between atoms: N_3  and  C_4
REMARK    4  A    between atoms: N_3  and  C_6
REMARK    5  A    between atoms: C_4  and  C_5
REMARK    6  A    between atoms: C_6  and  C_7
REMARK    7  A    between atoms: C_7  and  N_8
REMARK    8  A    between atoms: N_8  and  C_9
REMARK    9  A    between atoms: C_12  and  C_13
REMARK                            x       y       z     vdW  Elec       q    Type
REMARK                         _______ _______ _______ _____ _____    ______ ____
ROOT
ATOM      1  C   UNL     1       2.341   6.800  19.526  0.00  0.00    +0.000 A 
ATOM      2  C   UNL     1       1.673   6.261  20.656  0.00  0.00    +0.000 A 
ATOM      3  C   UNL     1       1.797   4.942  21.034  0.00  0.00    +0.000 A 
ATOM      4  C   UNL     1       2.575   4.070  20.297  0.00  0.00    +0.000 A 
ATOM      5  C   UNL     1       2.677   2.635  20.754  0.00  0.00    +0.000 C 
ATOM      6  C   UNL     1       3.241   4.541  19.146  0.00  0.00    +0.000 A 
ATOM      7  S   UNL     1       4.167   3.452  18.248  0.00  0.00    +0.000 S 
ATOM      8  C   UNL     1       4.901   4.146  16.921  0.00  0.00    +0.000 A 
ATOM      9  C   UNL     1       5.692   3.365  16.073  0.00  0.00    +0.000 A 
ATOM     10  C   UNL     1       6.306   3.946  14.965  0.00  0.00    +0.000 A 
ATOM     11  C   UNL     1       6.133   5.304  14.707  0.00  0.00    +0.000 A 
ATOM     12  C   UNL     1       5.339   6.082  15.554  0.00  0.00    +0.000 A 
ATOM     13  C   UNL     1       4.696   5.517  16.687  0.00  0.00    +0.000 A 
ATOM     14  C   UNL     1       3.878   6.343  17.527  0.00  0.00    +0.000 A 
ATOM     15  O   UNL     1       3.789   7.499  17.174  0.00  0.00    +0.000 OA
ATOM     16  C   UNL     1       3.160   5.907  18.717  0.00  0.00    +0.000 A 
ENDROOT
BRANCH   1  17
ATOM     17  N   UNL     1       2.197   8.220  19.273  0.00  0.00    +0.000 N 
ATOM     18  H   UNL     1       2.945   8.794  18.887  0.00  0.00    +0.000 HD
BRANCH  17  19
ATOM     19  C   UNL     1       1.072   8.984  19.774  0.00  0.00    +0.000 C 
BRANCH  19  20
ATOM     20  C   UNL     1       0.547   9.993  18.741  0.00  0.00    +0.000 C 
BRANCH  20  21
ATOM     21  N   UNL     1      -0.460  10.927  19.313  0.00  0.00    +0.000 NA
BRANCH  21  23
ATOM     22  C   UNL     1      -1.764  10.039  17.324  0.00  0.00    +0.000 C 
ATOM     23  C   UNL     1      -1.785  10.828  18.631  0.00  0.00    +0.000 C 
ENDBRANCH  21  23
BRANCH  21  24
ATOM     24  C   UNL     1      -0.527  10.796  20.791  0.00  0.00    +0.000 C 
ATOM     25  C   UNL     1      -1.133  12.009  21.515  0.00  0.00    +0.000 C 
ENDBRANCH  21  24
ENDBRANCH  20  21
ENDBRANCH  19  20
ENDBRANCH  17  19
ENDBRANCH   1  17
TORSDOF 6
ENDMDL
