MODEL 1
REMARK VINA RESULT:      -7.9      0.000      0.000
REMARK  Name = 
REMARK  6 active torsions:
REMARK  status: ('A' for Active; 'I' for Inactive)
REMARK    1  A    between atoms: C_1  and  O_2
REMARK    2  A    between atoms: O_2  and  C_3
REMARK    3  A    between atoms: C_7  and  C_8
REMARK    4  A    between atoms: C_8  and  N_9
REMARK    5  A    between atoms: N_15  and  C_16
REMARK    6  A    between atoms: C_16  and  C_17
REMARK                            x       y       z     vdW  Elec       q    Type
REMARK                         _______ _______ _______ _____ _____    ______ ____
ROOT
ATOM      1  N   UNL     1       2.496   6.886  18.706  0.00  0.00    +0.000 N 
ATOM      2  C   UNL     1       2.356   6.223  19.928  0.00  0.00    +0.000 A 
ATOM      3  C   UNL     1       1.770   6.804  20.989  0.00  0.00    +0.000 A 
ATOM      4  C   UNL     1       1.205   8.098  20.852  0.00  0.00    +0.000 A 
ATOM      5  C   UNL     1       0.427   8.873  21.725  0.00  0.00    +0.000 A 
ATOM      6  C   UNL     1       0.071  10.006  21.022  0.00  0.00    +0.000 A 
ATOM      7  N   UNL     1       0.610   9.925  19.751  0.00  0.00    +0.000 N 
ATOM      8  C   UNL     1       1.351   8.768  19.654  0.00  0.00    +0.000 A 
ATOM      9  C   UNL     1       2.093   8.229  18.528  0.00  0.00    +0.000 A 
ATOM     10  O   UNL     1       2.350   8.877  17.516  0.00  0.00    +0.000 OA
ENDROOT
BRANCH   1  11
ATOM     11  C   UNL     1       3.064   6.175  17.566  0.00  0.00    +0.000 C 
BRANCH  11  16
ATOM     12  C   UNL     1       6.832   6.849  17.324  0.00  0.00    +0.000 A 
ATOM     13  C   UNL     1       7.344   5.603  17.691  0.00  0.00    +0.000 A 
ATOM     14  C   UNL     1       6.487   4.566  18.068  0.00  0.00    +0.000 A 
ATOM     15  C   UNL     1       5.109   4.764  18.054  0.00  0.00    +0.000 A 
ATOM     16  C   UNL     1       4.568   5.998  17.663  0.00  0.00    +0.000 A 
ATOM     17  C   UNL     1       5.443   7.049  17.335  0.00  0.00    +0.000 A 
BRANCH  12  19
ATOM     18  C   UNL     1       8.100   8.781  17.896  0.00  0.00    +0.000 C 
ATOM     19  O   UNL     1       7.775   7.764  16.959  0.00  0.00    +0.000 OA
ENDBRANCH  12  19
ENDBRANCH  11  16
ENDBRANCH   1  11
BRANCH   7  20
ATOM     20  C   UNL     1       0.342  10.892  18.691  0.00  0.00    +0.000 C 
BRANCH  20  21
ATOM     21  C   UNL     1      -1.100  10.847  18.262  0.00  0.00    +0.000 A 
ATOM     22  C   UNL     1      -1.573   9.875  17.375  0.00  0.00    +0.000 A 
ATOM     23  C   UNL     1      -2.928   9.815  17.067  0.00  0.00    +0.000 A 
ATOM     24  C   UNL     1      -3.774  10.744  17.647  0.00  0.00    +0.000 A 
ATOM     25  N   UNL     1      -3.355  11.718  18.481  0.00  0.00    +0.000 NA
ATOM     26  C   UNL     1      -2.034  11.744  18.772  0.00  0.00    +0.000 A 
ENDBRANCH  20  21
ENDBRANCH   7  20
TORSDOF 5
ENDMDL
MODEL 2
REMARK VINA RESULT:      -7.8      1.843      7.943
REMARK  Name = 
REMARK  6 active torsions:
REMARK  status: ('A' for Active; 'I' for Inactive)
REMARK    1  A    between atoms: C_1  and  O_2
REMARK    2  A    between atoms: O_2  and  C_3
REMARK    3  A    between atoms: C_7  and  C_8
REMARK    4  A    between atoms: C_8  and  N_9
REMARK    5  A    between atoms: N_15  and  C_16
REMARK    6  A    between atoms: C_16  and  C_17
REMARK                            x       y       z     vdW  Elec       q    Type
REMARK                         _______ _______ _______ _____ _____    ______ ____
ROOT
ATOM      1  N   UNL     1       1.490   8.975  19.303  0.00  0.00    +0.000 N 
ATOM      2  C   UNL     1       0.987   8.667  20.570  0.00  0.00    +0.000 A 
ATOM      3  C   UNL     1       1.149   7.452  21.122  0.00  0.00    +0.000 A 
ATOM      4  C   UNL     1       1.915   6.472  20.441  0.00  0.00    +0.000 A 
ATOM      5  C   UNL     1       2.358   5.198  20.829  0.00  0.00    +0.000 A 
ATOM      6  C   UNL     1       3.155   4.737  19.800  0.00  0.00    +0.000 A 
ATOM      7  N   UNL     1       3.205   5.703  18.813  0.00  0.00    +0.000 N 
ATOM      8  C   UNL     1       2.403   6.761  19.182  0.00  0.00    +0.000 A 
ATOM      9  C   UNL     1       2.138   8.012  18.495  0.00  0.00    +0.000 A 
ATOM     10  O   UNL     1       2.444   8.218  17.323  0.00  0.00    +0.000 OA
ENDROOT
BRANCH   1  11
ATOM     11  C   UNL     1       1.358  10.335  18.791  0.00  0.00    +0.000 C 
BRANCH  11  16
ATOM     12  C   UNL     1      -2.212  10.555  17.409  0.00  0.00    +0.000 A 
ATOM     13  C   UNL     1      -2.697  11.659  18.114  0.00  0.00    +0.000 A 
ATOM     14  C   UNL     1      -1.902  12.297  19.069  0.00  0.00    +0.000 A 
ATOM     15  C   UNL     1      -0.606  11.849  19.304  0.00  0.00    +0.000 A 
ATOM     16  C   UNL     1      -0.085  10.759  18.590  0.00  0.00    +0.000 A 
ATOM     17  C   UNL     1      -0.913  10.094  17.669  0.00  0.00    +0.000 A 
BRANCH  12  19
ATOM     18  C   UNL     1      -2.850  10.342  15.124  0.00  0.00    +0.000 C 
ATOM     19  O   UNL     1      -3.082  10.040  16.493  0.00  0.00    +0.000 OA
ENDBRANCH  12  19
ENDBRANCH  11  16
ENDBRANCH   1  11
BRANCH   7  20
ATOM     20  C   UNL     1       4.049   5.610  17.625  0.00  0.00    +0.000 C 
BRANCH  20  21
ATOM     21  C   UNL     1       5.483   5.935  17.948  0.00  0.00    +0.000 A 
ATOM     22  C   UNL     1       6.193   6.908  17.239  0.00  0.00    +0.000 A 
ATOM     23  C   UNL     1       7.489   7.239  17.619  0.00  0.00    +0.000 A 
ATOM     24  C   UNL     1       8.046   6.573  18.696  0.00  0.00    +0.000 A 
ATOM     25  N   UNL     1       7.409   5.605  19.388  0.00  0.00    +0.000 NA
ATOM     26  C   UNL     1       6.146   5.313  19.002  0.00  0.00    +0.000 A 
ENDBRANCH  20  21
ENDBRANCH   7  20
TORSDOF 5
ENDMDL
MODEL 3
REMARK VINA RESULT:      -7.7      1.890      7.879
REMARK  Name = 
REMARK  6 active torsions:
REMARK  status: ('A' for Active; 'I' for Inactive)
REMARK    1  A    between atoms: C_1  and  O_2
REMARK    2  A    between atoms: O_2  and  C_3
REMARK    3  A    between atoms: C_7  and  C_8
REMARK    4  A    between atoms: C_8  and  N_9
REMARK    5  A    between atoms: N_15  and  C_16
REMARK    6  A    between atoms: C_16  and  C_17
REMARK                            x       y       z     vdW  Elec       q    Type
REMARK                         _______ _______ _______ _____ _____    ______ ____
ROOT
ATOM      1  N   UNL     1       1.591   8.786  19.349  0.00  0.00    +0.000 N 
ATOM      2  C   UNL     1       1.080   8.482  20.615  0.00  0.00    +0.000 A 
ATOM      3  C   UNL     1       1.204   7.257  21.155  0.00  0.00    +0.000 A 
ATOM      4  C   UNL     1       1.937   6.259  20.463  0.00  0.00    +0.000 A 
ATOM      5  C   UNL     1       2.341   4.969  20.838  0.00  0.00    +0.000 A 
ATOM      6  C   UNL     1       3.121   4.493  19.804  0.00  0.00    +0.000 A 
ATOM      7  N   UNL     1       3.200   5.466  18.825  0.00  0.00    +0.000 N 
ATOM      8  C   UNL     1       2.433   6.545  19.206  0.00  0.00    +0.000 A 
ATOM      9  C   UNL     1       2.206   7.811  18.532  0.00  0.00    +0.000 A 
ATOM     10  O   UNL     1       2.517   8.018  17.361  0.00  0.00    +0.000 OA
ENDROOT
BRANCH   1  11
ATOM     11  C   UNL     1       1.502  10.154  18.851  0.00  0.00    +0.000 C 
BRANCH  11  16
ATOM     12  C   UNL     1      -2.044  10.449  17.419  0.00  0.00    +0.000 A 
ATOM     13  C   UNL     1      -2.507  11.577  18.100  0.00  0.00    +0.000 A 
ATOM     14  C   UNL     1      -1.706  12.209  19.054  0.00  0.00    +0.000 A 
ATOM     15  C   UNL     1      -0.426  11.730  19.314  0.00  0.00    +0.000 A 
ATOM     16  C   UNL     1       0.074  10.614  18.625  0.00  0.00    +0.000 A 
ATOM     17  C   UNL     1      -0.761   9.957  17.704  0.00  0.00    +0.000 A 
BRANCH  12  19
ATOM     18  C   UNL     1      -3.836  10.844  15.902  0.00  0.00    +0.000 C 
ATOM     19  O   UNL     1      -2.916   9.943  16.502  0.00  0.00    +0.000 OA
ENDBRANCH  12  19
ENDBRANCH  11  16
ENDBRANCH   1  11
BRANCH   7  20
ATOM     20  C   UNL     1       4.039   5.357  17.635  0.00  0.00    +0.000 C 
BRANCH  20  21
ATOM     21  C   UNL     1       5.401   5.953  17.872  0.00  0.00    +0.000 A 
ATOM     22  C   UNL     1       6.273   5.435  18.833  0.00  0.00    +0.000 A 
ATOM     23  C   UNL     1       7.554   5.959  18.966  0.00  0.00    +0.000 A 
ATOM     24  C   UNL     1       7.924   7.003  18.137  0.00  0.00    +0.000 A 
ATOM     25  N   UNL     1       7.104   7.555  17.218  0.00  0.00    +0.000 NA
ATOM     26  C   UNL     1       5.868   7.017  17.104  0.00  0.00    +0.000 A 
ENDBRANCH  20  21
ENDBRANCH   7  20
TORSDOF 5
ENDMDL
MODEL 4
REMARK VINA RESULT:      -7.7      2.258      2.896
REMARK  Name = 
REMARK  6 active torsions:
REMARK  status: ('A' for Active; 'I' for Inactive)
REMARK    1  A    between atoms: C_1  and  O_2
REMARK    2  A    between atoms: O_2  and  C_3
REMARK    3  A    between atoms: C_7  and  C_8
REMARK    4  A    between atoms: C_8  and  N_9
REMARK    5  A    between atoms: N_15  and  C_16
REMARK    6  A    between atoms: C_16  and  C_17
REMARK                            x       y       z     vdW  Elec       q    Type
REMARK                         _______ _______ _______ _____ _____    ______ ____
ROOT
ATOM      1  N   UNL     1       2.107   7.895  19.026  0.00  0.00    +0.000 N 
ATOM      2  C   UNL     1       2.017   7.333  20.303  0.00  0.00    +0.000 A 
ATOM      3  C   UNL     1       1.382   7.957  21.310  0.00  0.00    +0.000 A 
ATOM      4  C   UNL     1       0.715   9.184  21.062  0.00  0.00    +0.000 A 
ATOM      5  C   UNL     1      -0.127   9.967  21.866  0.00  0.00    +0.000 A 
ATOM      6  C   UNL     1      -0.571  11.001  21.066  0.00  0.00    +0.000 A 
ATOM      7  N   UNL     1      -0.023  10.852  19.806  0.00  0.00    +0.000 N 
ATOM      8  C   UNL     1       0.810   9.755  19.808  0.00  0.00    +0.000 A 
ATOM      9  C   UNL     1       1.597   9.180  18.732  0.00  0.00    +0.000 A 
ATOM     10  O   UNL     1       1.804   9.755  17.665  0.00  0.00    +0.000 OA
ENDROOT
BRANCH   1  11
ATOM     11  C   UNL     1       2.734   7.134  17.951  0.00  0.00    +0.000 C 
BRANCH  11  16
ATOM     12  C   UNL     1       3.972   3.676  19.055  0.00  0.00    +0.000 A 
ATOM     13  C   UNL     1       2.937   2.866  18.584  0.00  0.00    +0.000 A 
ATOM     14  C   UNL     1       1.819   3.430  17.964  0.00  0.00    +0.000 A 
ATOM     15  C   UNL     1       1.745   4.809  17.788  0.00  0.00    +0.000 A 
ATOM     16  C   UNL     1       2.784   5.643  18.227  0.00  0.00    +0.000 A 
ATOM     17  C   UNL     1       3.879   5.067  18.896  0.00  0.00    +0.000 A 
BRANCH  12  19
ATOM     18  C   UNL     1       4.698   1.867  20.423  0.00  0.00    +0.000 C 
ATOM     19  O   UNL     1       5.011   2.997  19.621  0.00  0.00    +0.000 OA
ENDBRANCH  12  19
ENDBRANCH  11  16
ENDBRANCH   1  11
BRANCH   7  20
ATOM     20  C   UNL     1      -0.364  11.697  18.665  0.00  0.00    +0.000 C 
BRANCH  20  21
ATOM     21  C   UNL     1      -1.688  11.300  18.068  0.00  0.00    +0.000 A 
ATOM     22  C   UNL     1      -1.794  10.256  17.144  0.00  0.00    +0.000 A 
ATOM     23  C   UNL     1      -3.044   9.864  16.678  0.00  0.00    +0.000 A 
ATOM     24  C   UNL     1      -4.158  10.541  17.140  0.00  0.00    +0.000 A 
ATOM     25  N   UNL     1      -4.099  11.575  18.006  0.00  0.00    +0.000 NA
ATOM     26  C   UNL     1      -2.871  11.926  18.451  0.00  0.00    +0.000 A 
ENDBRANCH  20  21
ENDBRANCH   7  20
TORSDOF 5
ENDMDL
MODEL 5
REMARK VINA RESULT:      -7.7      1.499      1.947
REMARK  Name = 
REMARK  6 active torsions:
REMARK  status: ('A' for Active; 'I' for Inactive)
REMARK    1  A    between atoms: C_1  and  O_2
REMARK    2  A    between atoms: O_2  and  C_3
REMARK    3  A    between atoms: C_7  and  C_8
REMARK    4  A    between atoms: C_8  and  N_9
REMARK    5  A    between atoms: N_15  and  C_16
REMARK    6  A    between atoms: C_16  and  C_17
REMARK                            x       y       z     vdW  Elec       q    Type
REMARK                         _______ _______ _______ _____ _____    ______ ____
ROOT
ATOM      1  N   UNL     1       2.196   7.981  18.782  0.00  0.00    +0.000 N 
ATOM      2  C   UNL     1       2.160   7.287  19.995  0.00  0.00    +0.000 A 
ATOM      3  C   UNL     1       1.531   7.779  21.077  0.00  0.00    +0.000 A 
ATOM      4  C   UNL     1       0.817   8.999  20.974  0.00  0.00    +0.000 A 
ATOM      5  C   UNL     1      -0.029   9.664  21.875  0.00  0.00    +0.000 A 
ATOM      6  C   UNL     1      -0.530  10.758  21.199  0.00  0.00    +0.000 A 
ATOM      7  N   UNL     1      -0.012  10.761  19.917  0.00  0.00    +0.000 N 
ATOM      8  C   UNL     1       0.858   9.700  19.785  0.00  0.00    +0.000 A 
ATOM      9  C   UNL     1       1.634   9.270  18.636  0.00  0.00    +0.000 A 
ATOM     10  O   UNL     1       1.793   9.960  17.631  0.00  0.00    +0.000 OA
ENDROOT
BRANCH   1  11
ATOM     11  C   UNL     1       2.819   7.359  17.619  0.00  0.00    +0.000 C 
BRANCH  11  16
ATOM     12  C   UNL     1       5.225   4.468  18.367  0.00  0.00    +0.000 A 
ATOM     13  C   UNL     1       4.361   3.376  18.262  0.00  0.00    +0.000 A 
ATOM     14  C   UNL     1       3.001   3.568  18.006  0.00  0.00    +0.000 A 
ATOM     15  C   UNL     1       2.503   4.855  17.828  0.00  0.00    +0.000 A 
ATOM     16  C   UNL     1       3.355   5.968  17.902  0.00  0.00    +0.000 A 
ATOM     17  C   UNL     1       4.712   5.764  18.211  0.00  0.00    +0.000 A 
BRANCH  12  19
ATOM     18  C   UNL     1       7.518   4.788  17.813  0.00  0.00    +0.000 C 
ATOM     19  O   UNL     1       6.528   4.139  18.598  0.00  0.00    +0.000 OA
ENDBRANCH  12  19
ENDBRANCH  11  16
ENDBRANCH   1  11
BRANCH   7  20
ATOM     20  C   UNL     1      -0.412  11.706  18.879  0.00  0.00    +0.000 C 
BRANCH  20  21
ATOM     21  C   UNL     1      -1.727  11.313  18.260  0.00  0.00    +0.000 A 
ATOM     22  C   UNL     1      -1.822  10.260  17.346  0.00  0.00    +0.000 A 
ATOM     23  C   UNL     1      -3.066   9.873  16.858  0.00  0.00    +0.000 A 
ATOM     24  C   UNL     1      -4.184  10.563  17.292  0.00  0.00    +0.000 A 
ATOM     25  N   UNL     1      -4.134  11.606  18.147  0.00  0.00    +0.000 NA
ATOM     26  C   UNL     1      -2.912  11.952  18.613  0.00  0.00    +0.000 A 
ENDBRANCH  20  21
ENDBRANCH   7  20
TORSDOF 5
ENDMDL
MODEL 6
REMARK VINA RESULT:      -7.7      1.017      1.303
REMARK  Name = 
REMARK  6 active torsions:
REMARK  status: ('A' for Active; 'I' for Inactive)
REMARK    1  A    between atoms: C_1  and  O_2
REMARK    2  A    between atoms: O_2  and  C_3
REMARK    3  A    between atoms: C_7  and  C_8
REMARK    4  A    between atoms: C_8  and  N_9
REMARK    5  A    between atoms: N_15  and  C_16
REMARK    6  A    between atoms: C_16  and  C_17
REMARK                            x       y       z     vdW  Elec       q    Type
REMARK                         _______ _______ _______ _____ _____    ______ ____
ROOT
ATOM      1  N   UNL     1       2.455   6.628  18.829  0.00  0.00    +0.000 N 
ATOM      2  C   UNL     1       2.255   5.983  20.053  0.00  0.00    +0.000 A 
ATOM      3  C   UNL     1       1.702   6.611  21.105  0.00  0.00    +0.000 A 
ATOM      4  C   UNL     1       1.235   7.942  20.957  0.00  0.00    +0.000 A 
ATOM      5  C   UNL     1       0.506   8.776  21.819  0.00  0.00    +0.000 A 
ATOM      6  C   UNL     1       0.241   9.929  21.107  0.00  0.00    +0.000 A 
ATOM      7  N   UNL     1       0.785   9.802  19.842  0.00  0.00    +0.000 N 
ATOM      8  C   UNL     1       1.441   8.594  19.757  0.00  0.00    +0.000 A 
ATOM      9  C   UNL     1       2.153   7.996  18.642  0.00  0.00    +0.000 A 
ATOM     10  O   UNL     1       2.466   8.619  17.629  0.00  0.00    +0.000 OA
ENDROOT
BRANCH   1  11
ATOM     11  C   UNL     1       2.980   5.872  17.698  0.00  0.00    +0.000 C 
BRANCH  11  16
ATOM     12  C   UNL     1       6.618   5.694  16.496  0.00  0.00    +0.000 A 
ATOM     13  C   UNL     1       7.276   5.422  17.698  0.00  0.00    +0.000 A 
ATOM     14  C   UNL     1       6.565   5.350  18.898  0.00  0.00    +0.000 A 
ATOM     15  C   UNL     1       5.184   5.524  18.897  0.00  0.00    +0.000 A 
ATOM     16  C   UNL     1       4.494   5.772  17.700  0.00  0.00    +0.000 A 
ATOM     17  C   UNL     1       5.230   5.893  16.507  0.00  0.00    +0.000 A 
BRANCH  12  19
ATOM     18  C   UNL     1       7.100   4.848  14.323  0.00  0.00    +0.000 C 
ATOM     19  O   UNL     1       7.427   5.716  15.399  0.00  0.00    +0.000 OA
ENDBRANCH  12  19
ENDBRANCH  11  16
ENDBRANCH   1  11
BRANCH   7  20
ATOM     20  C   UNL     1       0.600  10.781  18.775  0.00  0.00    +0.000 C 
BRANCH  20  21
ATOM     21  C   UNL     1      -0.832  10.818  18.311  0.00  0.00    +0.000 A 
ATOM     22  C   UNL     1      -1.349   9.853  17.443  0.00  0.00    +0.000 A 
ATOM     23  C   UNL     1      -2.697   9.874  17.103  0.00  0.00    +0.000 A 
ATOM     24  C   UNL     1      -3.491  10.874  17.633  0.00  0.00    +0.000 A 
ATOM     25  N   UNL     1      -3.027  11.845  18.448  0.00  0.00    +0.000 NA
ATOM     26  C   UNL     1      -1.715  11.792  18.771  0.00  0.00    +0.000 A 
ENDBRANCH  20  21
ENDBRANCH   7  20
TORSDOF 5
ENDMDL
MODEL 7
REMARK VINA RESULT:      -7.7      1.942      3.035
REMARK  Name = 
REMARK  6 active torsions:
REMARK  status: ('A' for Active; 'I' for Inactive)
REMARK    1  A    between atoms: C_1  and  O_2
REMARK    2  A    between atoms: O_2  and  C_3
REMARK    3  A    between atoms: C_7  and  C_8
REMARK    4  A    between atoms: C_8  and  N_9
REMARK    5  A    between atoms: N_15  and  C_16
REMARK    6  A    between atoms: C_16  and  C_17
REMARK                            x       y       z     vdW  Elec       q    Type
REMARK                         _______ _______ _______ _____ _____    ______ ____
ROOT
ATOM      1  N   UNL     1       2.281   7.868  18.919  0.00  0.00    +0.000 N 
ATOM      2  C   UNL     1       2.181   7.091  20.076  0.00  0.00    +0.000 A 
ATOM      3  C   UNL     1       1.480   7.500  21.149  0.00  0.00    +0.000 A 
ATOM      4  C   UNL     1       0.756   8.718  21.086  0.00  0.00    +0.000 A 
ATOM      5  C   UNL     1      -0.153   9.310  21.976  0.00  0.00    +0.000 A 
ATOM      6  C   UNL     1      -0.626  10.443  21.347  0.00  0.00    +0.000 A 
ATOM      7  N   UNL     1      -0.030  10.541  20.103  0.00  0.00    +0.000 N 
ATOM      8  C   UNL     1       0.860   9.501  19.953  0.00  0.00    +0.000 A 
ATOM      9  C   UNL     1       1.712   9.159  18.828  0.00  0.00    +0.000 A 
ATOM     10  O   UNL     1       1.922   9.919  17.884  0.00  0.00    +0.000 OA
ENDROOT
BRANCH   1  11
ATOM     11  C   UNL     1       2.984   7.336  17.757  0.00  0.00    +0.000 C 
BRANCH  11  16
ATOM     12  C   UNL     1       2.668   3.517  17.917  0.00  0.00    +0.000 A 
ATOM     13  C   UNL     1       3.960   3.165  18.314  0.00  0.00    +0.000 A 
ATOM     14  C   UNL     1       4.944   4.143  18.478  0.00  0.00    +0.000 A 
ATOM     15  C   UNL     1       4.633   5.483  18.269  0.00  0.00    +0.000 A 
ATOM     16  C   UNL     1       3.335   5.866  17.895  0.00  0.00    +0.000 A 
ATOM     17  C   UNL     1       2.368   4.867  17.685  0.00  0.00    +0.000 A 
BRANCH  12  19
ATOM     18  C   UNL     1       0.824   2.323  18.837  0.00  0.00    +0.000 C 
ATOM     19  O   UNL     1       1.801   2.469  17.815  0.00  0.00    +0.000 OA
ENDBRANCH  12  19
ENDBRANCH  11  16
ENDBRANCH   1  11
BRANCH   7  20
ATOM     20  C   UNL     1      -0.380  11.552  19.110  0.00  0.00    +0.000 C 
BRANCH  20  21
ATOM     21  C   UNL     1      -1.696  11.238  18.450  0.00  0.00    +0.000 A 
ATOM     22  C   UNL     1      -1.821  10.207  17.515  0.00  0.00    +0.000 A 
ATOM     23  C   UNL     1      -3.069   9.893  16.988  0.00  0.00    +0.000 A 
ATOM     24  C   UNL     1      -4.161  10.633  17.405  0.00  0.00    +0.000 A 
ATOM     25  N   UNL     1      -4.081  11.657  18.280  0.00  0.00    +0.000 NA
ATOM     26  C   UNL     1      -2.856  11.932  18.784  0.00  0.00    +0.000 A 
ENDBRANCH  20  21
ENDBRANCH   7  20
TORSDOF 5
ENDMDL
MODEL 8
REMARK VINA RESULT:      -7.6      1.870      8.158
REMARK  Name = 
REMARK  6 active torsions:
REMARK  status: ('A' for Active; 'I' for Inactive)
REMARK    1  A    between atoms: C_1  and  O_2
REMARK    2  A    between atoms: O_2  and  C_3
REMARK    3  A    between atoms: C_7  and  C_8
REMARK    4  A    between atoms: C_8  and  N_9
REMARK    5  A    between atoms: N_15  and  C_16
REMARK    6  A    between atoms: C_16  and  C_17
REMARK                            x       y       z     vdW  Elec       q    Type
REMARK                         _______ _______ _______ _____ _____    ______ ____
ROOT
ATOM      1  N   UNL     1       1.122   9.424  19.515  0.00  0.00    +0.000 N 
ATOM      2  C   UNL     1       0.768   8.813  20.721  0.00  0.00    +0.000 A 
ATOM      3  C   UNL     1       1.165   7.566  21.029  0.00  0.00    +0.000 A 
ATOM      4  C   UNL     1       2.031   6.871  20.146  0.00  0.00    +0.000 A 
ATOM      5  C   UNL     1       2.703   5.645  20.272  0.00  0.00    +0.000 A 
ATOM      6  C   UNL     1       3.489   5.520  19.144  0.00  0.00    +0.000 A 
ATOM      7  N   UNL     1       3.310   6.639  18.354  0.00  0.00    +0.000 N 
ATOM      8  C   UNL     1       2.375   7.459  18.945  0.00  0.00    +0.000 A 
ATOM      9  C   UNL     1       1.860   8.747  18.516  0.00  0.00    +0.000 A 
ATOM     10  O   UNL     1       2.044   9.208  17.392  0.00  0.00    +0.000 OA
ENDROOT
BRANCH   1  11
ATOM     11  C   UNL     1       0.734  10.809  19.272  0.00  0.00    +0.000 C 
BRANCH  11  16
ATOM     12  C   UNL     1      -2.569  10.430  17.360  0.00  0.00    +0.000 A 
ATOM     13  C   UNL     1      -3.364  11.364  18.026  0.00  0.00    +0.000 A 
ATOM     14  C   UNL     1      -2.862  12.074  19.120  0.00  0.00    +0.000 A 
ATOM     15  C   UNL     1      -1.550  11.870  19.536  0.00  0.00    +0.000 A 
ATOM     16  C   UNL     1      -0.720  10.958  18.867  0.00  0.00    +0.000 A 
ATOM     17  C   UNL     1      -1.255  10.213  17.799  0.00  0.00    +0.000 A 
BRANCH  12  19
ATOM     18  C   UNL     1      -3.149  10.504  15.051  0.00  0.00    +0.000 C 
ATOM     19  O   UNL     1      -3.174   9.824  16.299  0.00  0.00    +0.000 OA
ENDBRANCH  12  19
ENDBRANCH  11  16
ENDBRANCH   1  11
BRANCH   7  20
ATOM     20  C   UNL     1       4.072   6.907  17.137  0.00  0.00    +0.000 C 
BRANCH  20  21
ATOM     21  C   UNL     1       5.349   6.111  17.107  0.00  0.00    +0.000 A 
ATOM     22  C   UNL     1       6.431   6.426  17.934  0.00  0.00    +0.000 A 
ATOM     23  C   UNL     1       7.563   5.618  17.937  0.00  0.00    +0.000 A 
ATOM     24  C   UNL     1       7.586   4.519  17.097  0.00  0.00    +0.000 A 
ATOM     25  N   UNL     1       6.579   4.197  16.258  0.00  0.00    +0.000 NA
ATOM     26  C   UNL     1       5.486   4.995  16.286  0.00  0.00    +0.000 A 
ENDBRANCH  20  21
ENDBRANCH   7  20
TORSDOF 5
ENDMDL
MODEL 9
REMARK VINA RESULT:      -7.6      2.005      7.933
REMARK  Name = 
REMARK  6 active torsions:
REMARK  status: ('A' for Active; 'I' for Inactive)
REMARK    1  A    between atoms: C_1  and  O_2
REMARK    2  A    between atoms: O_2  and  C_3
REMARK    3  A    between atoms: C_7  and  C_8
REMARK    4  A    between atoms: C_8  and  N_9
REMARK    5  A    between atoms: N_15  and  C_16
REMARK    6  A    between atoms: C_16  and  C_17
REMARK                            x       y       z     vdW  Elec       q    Type
REMARK                         _______ _______ _______ _____ _____    ______ ____
ROOT
ATOM      1  N   UNL     1       1.585   8.842  19.347  0.00  0.00    +0.000 N 
ATOM      2  C   UNL     1       1.075   8.536  20.612  0.00  0.00    +0.000 A 
ATOM      3  C   UNL     1       1.192   7.308  21.147  0.00  0.00    +0.000 A 
ATOM      4  C   UNL     1       1.918   6.309  20.449  0.00  0.00    +0.000 A 
ATOM      5  C   UNL     1       2.314   5.015  20.819  0.00  0.00    +0.000 A 
ATOM      6  C   UNL     1       3.090   4.538  19.781  0.00  0.00    +0.000 A 
ATOM      7  N   UNL     1       3.173   5.515  18.807  0.00  0.00    +0.000 N 
ATOM      8  C   UNL     1       2.414   6.597  19.193  0.00  0.00    +0.000 A 
ATOM      9  C   UNL     1       2.193   7.867  18.525  0.00  0.00    +0.000 A 
ATOM     10  O   UNL     1       2.504   8.077  17.354  0.00  0.00    +0.000 OA
ENDROOT
BRANCH   1  11
ATOM     11  C   UNL     1       1.504  10.213  18.855  0.00  0.00    +0.000 C 
BRANCH  11  16
ATOM     12  C   UNL     1      -1.762  12.170  19.319  0.00  0.00    +0.000 A 
ATOM     13  C   UNL     1      -2.606  11.477  18.448  0.00  0.00    +0.000 A 
ATOM     14  C   UNL     1      -2.118  10.421  17.675  0.00  0.00    +0.000 A 
ATOM     15  C   UNL     1      -0.786  10.036  17.788  0.00  0.00    +0.000 A 
ATOM     16  C   UNL     1       0.078  10.698  18.674  0.00  0.00    +0.000 A 
ATOM     17  C   UNL     1      -0.414  11.792  19.409  0.00  0.00    +0.000 A 
BRANCH  12  19
ATOM     18  C   UNL     1      -3.529  12.822  20.775  0.00  0.00    +0.000 C 
ATOM     19  O   UNL     1      -2.369  13.163  20.028  0.00  0.00    +0.000 OA
ENDBRANCH  12  19
ENDBRANCH  11  16
ENDBRANCH   1  11
BRANCH   7  20
ATOM     20  C   UNL     1       4.010   5.406  17.615  0.00  0.00    +0.000 C 
BRANCH  20  21
ATOM     21  C   UNL     1       5.380   5.980  17.856  0.00  0.00    +0.000 A 
ATOM     22  C   UNL     1       6.241   5.447  18.820  0.00  0.00    +0.000 A 
ATOM     23  C   UNL     1       7.530   5.951  18.957  0.00  0.00    +0.000 A 
ATOM     24  C   UNL     1       7.918   6.990  18.129  0.00  0.00    +0.000 A 
ATOM     25  N   UNL     1       7.110   7.555  17.209  0.00  0.00    +0.000 NA
ATOM     26  C   UNL     1       5.866   7.036  17.091  0.00  0.00    +0.000 A 
ENDBRANCH  20  21
ENDBRANCH   7  20
TORSDOF 5
ENDMDL
