MODEL 1
REMARK VINA RESULT:      -7.4      0.000      0.000
REMARK  Name = 
REMARK  7 active torsions:
REMARK  status: ('A' for Active; 'I' for Inactive)
REMARK    1  A    between atoms: C_1  and  C_2
REMARK    2  A    between atoms: C_2  and  C_3
REMARK    3  A    between atoms: C_3  and  C_4
REMARK    4  A    between atoms: C_4  and  C_5
REMARK    5  A    between atoms: C_12  and  C_13
REMARK    6  A    between atoms: C_17  and  O_18
REMARK    7  A    between atoms: O_18  and  C_19
REMARK                            x       y       z     vdW  Elec       q    Type
REMARK                         _______ _______ _______ _____ _____    ______ ____
ROOT
ATOM      1  C   UNL     1       3.004   6.303  19.180  0.00  0.00    +0.000 A 
ATOM      2  N   UNL     1       2.131   6.711  20.161  0.00  0.00    +0.000 N 
ATOM      3  N   UNL     1       1.784   5.764  21.039  0.00  0.00    +0.000 NA
ATOM      4  C   UNL     1       2.477   4.680  20.663  0.00  0.00    +0.000 A 
ATOM      5  C   UNL     1       2.432   3.397  21.213  0.00  0.00    +0.000 A 
ATOM      6  C   UNL     1       3.273   2.515  20.538  0.00  0.00    +0.000 A 
ATOM      7  N   UNL     1       4.112   2.791  19.478  0.00  0.00    +0.000 NA
ATOM      8  C   UNL     1       4.202   4.060  18.936  0.00  0.00    +0.000 A 
ATOM      9  C   UNL     1       3.332   5.005  19.532  0.00  0.00    +0.000 A 
ATOM     10  H   UNL     1       1.697   7.623  20.256  0.00  0.00    +0.000 HD
ENDROOT
BRANCH   8  11
ATOM     11  C   UNL     1       5.138   4.251  17.836  0.00  0.00    +0.000 A 
ATOM     12  C   UNL     1       6.466   4.617  18.036  0.00  0.00    +0.000 A 
ATOM     13  N   UNL     1       7.339   4.948  17.056  0.00  0.00    +0.000 NA
ATOM     14  C   UNL     1       6.881   4.832  15.788  0.00  0.00    +0.000 A 
ATOM     15  C   UNL     1       5.618   4.363  15.452  0.00  0.00    +0.000 A 
ATOM     16  C   UNL     1       4.742   4.070  16.497  0.00  0.00    +0.000 A 
BRANCH  15  17
ATOM     17  O   UNL     1       5.358   4.261  14.115  0.00  0.00    +0.000 OA
ATOM     18  C   UNL     1       6.455   3.932  13.272  0.00  0.00    +0.000 C 
ENDBRANCH  15  17
ENDBRANCH   8  11
BRANCH   1  19
ATOM     19  C   UNL     1       3.307   7.245  18.059  0.00  0.00    +0.000 C 
BRANCH  19  20
ATOM     20  C   UNL     1       2.085   8.007  17.542  0.00  0.00    +0.000 C 
BRANCH  20  22
ATOM     21  C   UNL     1       0.688   9.941  18.332  0.00  0.00    +0.000 C 
ATOM     22  C   UNL     1       2.083   9.484  17.935  0.00  0.00    +0.000 C 
ENDBRANCH  20  22
ENDBRANCH  19  20
ENDBRANCH   1  19
TORSDOF 5
ENDMDL
MODEL 2
REMARK VINA RESULT:      -7.2      1.448      1.686
REMARK  Name = 
REMARK  7 active torsions:
REMARK  status: ('A' for Active; 'I' for Inactive)
REMARK    1  A    between atoms: C_1  and  C_2
REMARK    2  A    between atoms: C_2  and  C_3
REMARK    3  A    between atoms: C_3  and  C_4
REMARK    4  A    between atoms: C_4  and  C_5
REMARK    5  A    between atoms: C_12  and  C_13
REMARK    6  A    between atoms: C_17  and  O_18
REMARK    7  A    between atoms: O_18  and  C_19
REMARK                            x       y       z     vdW  Elec       q    Type
REMARK                         _______ _______ _______ _____ _____    ______ ____
ROOT
ATOM      1  C   UNL     1       2.494   5.486  19.658  0.00  0.00    +0.000 A 
ATOM      2  N   UNL     1       1.287   5.294  20.288  0.00  0.00    +0.000 N 
ATOM      3  N   UNL     1       0.815   4.044  20.238  0.00  0.00    +0.000 NA
ATOM      4  C   UNL     1       1.755   3.350  19.581  0.00  0.00    +0.000 A 
ATOM      5  C   UNL     1       1.727   2.005  19.206  0.00  0.00    +0.000 A 
ATOM      6  C   UNL     1       2.874   1.639  18.505  0.00  0.00    +0.000 A 
ATOM      7  N   UNL     1       3.969   2.425  18.208  0.00  0.00    +0.000 NA
ATOM      8  C   UNL     1       4.038   3.750  18.597  0.00  0.00    +0.000 A 
ATOM      9  C   UNL     1       2.881   4.216  19.267  0.00  0.00    +0.000 A 
ATOM     10  H   UNL     1       0.709   5.997  20.736  0.00  0.00    +0.000 HD
ENDROOT
BRANCH   8  11
ATOM     11  C   UNL     1       5.250   4.484  18.255  0.00  0.00    +0.000 A 
ATOM     12  C   UNL     1       6.044   5.107  19.214  0.00  0.00    +0.000 A 
ATOM     13  N   UNL     1       7.093   5.920  18.947  0.00  0.00    +0.000 NA
ATOM     14  C   UNL     1       7.422   6.057  17.642  0.00  0.00    +0.000 A 
ATOM     15  C   UNL     1       6.786   5.394  16.600  0.00  0.00    +0.000 A 
ATOM     16  C   UNL     1       5.688   4.597  16.922  0.00  0.00    +0.000 A 
BRANCH  15  17
ATOM     17  O   UNL     1       7.299   5.615  15.354  0.00  0.00    +0.000 OA
ATOM     18  C   UNL     1       6.798   4.799  14.302  0.00  0.00    +0.000 C 
ENDBRANCH  15  17
ENDBRANCH   8  11
BRANCH   1  19
ATOM     19  C   UNL     1       3.008   6.883  19.513  0.00  0.00    +0.000 C 
BRANCH  19  20
ATOM     20  C   UNL     1       2.967   7.413  18.078  0.00  0.00    +0.000 C 
BRANCH  20  22
ATOM     21  C   UNL     1       2.011   9.733  17.939  0.00  0.00    +0.000 C 
ATOM     22  C   UNL     1       1.722   8.248  17.777  0.00  0.00    +0.000 C 
ENDBRANCH  20  22
ENDBRANCH  19  20
ENDBRANCH   1  19
TORSDOF 5
ENDMDL
MODEL 3
REMARK VINA RESULT:      -7.2      1.410      1.917
REMARK  Name = 
REMARK  7 active torsions:
REMARK  status: ('A' for Active; 'I' for Inactive)
REMARK    1  A    between atoms: C_1  and  C_2
REMARK    2  A    between atoms: C_2  and  C_3
REMARK    3  A    between atoms: C_3  and  C_4
REMARK    4  A    between atoms: C_4  and  C_5
REMARK    5  A    between atoms: C_12  and  C_13
REMARK    6  A    between atoms: C_17  and  O_18
REMARK    7  A    between atoms: O_18  and  C_19
REMARK                            x       y       z     vdW  Elec       q    Type
REMARK                         _______ _______ _______ _____ _____    ______ ____
ROOT
ATOM      1  C   UNL     1       2.848   6.478  19.157  0.00  0.00    +0.000 A 
ATOM      2  N   UNL     1       1.985   6.798  20.178  0.00  0.00    +0.000 N 
ATOM      3  N   UNL     1       1.710   5.797  21.021  0.00  0.00    +0.000 NA
ATOM      4  C   UNL     1       2.444   4.767  20.578  0.00  0.00    +0.000 A 
ATOM      5  C   UNL     1       2.478   3.460  21.069  0.00  0.00    +0.000 A 
ATOM      6  C   UNL     1       3.341   2.652  20.333  0.00  0.00    +0.000 A 
ATOM      7  N   UNL     1       4.135   3.017  19.265  0.00  0.00    +0.000 NA
ATOM      8  C   UNL     1       4.148   4.312  18.780  0.00  0.00    +0.000 A 
ATOM      9  C   UNL     1       3.250   5.184  19.441  0.00  0.00    +0.000 A 
ATOM     10  H   UNL     1       1.509   7.682  20.326  0.00  0.00    +0.000 HD
ENDROOT
BRANCH   8  11
ATOM     11  C   UNL     1       5.041   4.599  17.665  0.00  0.00    +0.000 A 
ATOM     12  C   UNL     1       5.047   3.844  16.496  0.00  0.00    +0.000 A 
ATOM     13  N   UNL     1       5.946   3.971  15.491  0.00  0.00    +0.000 NA
ATOM     14  C   UNL     1       6.851   4.968  15.626  0.00  0.00    +0.000 A 
ATOM     15  C   UNL     1       6.875   5.865  16.685  0.00  0.00    +0.000 A 
ATOM     16  C   UNL     1       5.953   5.671  17.713  0.00  0.00    +0.000 A 
BRANCH  15  17
ATOM     17  O   UNL     1       7.828   6.841  16.616  0.00  0.00    +0.000 OA
ATOM     18  C   UNL     1       7.720   7.909  17.549  0.00  0.00    +0.000 C 
ENDBRANCH  15  17
ENDBRANCH   8  11
BRANCH   1  19
ATOM     19  C   UNL     1       3.073   7.484  18.072  0.00  0.00    +0.000 C 
BRANCH  19  20
ATOM     20  C   UNL     1       1.821   8.280  17.698  0.00  0.00    +0.000 C 
BRANCH  20  22
ATOM     21  C   UNL     1       0.617  10.297  18.592  0.00  0.00    +0.000 C 
ATOM     22  C   UNL     1       1.929   9.768  18.033  0.00  0.00    +0.000 C 
ENDBRANCH  20  22
ENDBRANCH  19  20
ENDBRANCH   1  19
TORSDOF 5
ENDMDL
MODEL 4
REMARK VINA RESULT:      -7.1      2.038      2.607
REMARK  Name = 
REMARK  7 active torsions:
REMARK  status: ('A' for Active; 'I' for Inactive)
REMARK    1  A    between atoms: C_1  and  C_2
REMARK    2  A    between atoms: C_2  and  C_3
REMARK    3  A    between atoms: C_3  and  C_4
REMARK    4  A    between atoms: C_4  and  C_5
REMARK    5  A    between atoms: C_12  and  C_13
REMARK    6  A    between atoms: C_17  and  O_18
REMARK    7  A    between atoms: O_18  and  C_19
REMARK                            x       y       z     vdW  Elec       q    Type
REMARK                         _______ _______ _______ _____ _____    ______ ____
ROOT
ATOM      1  C   UNL     1       2.343   5.575  19.634  0.00  0.00    +0.000 A 
ATOM      2  N   UNL     1       1.313   5.243  20.482  0.00  0.00    +0.000 N 
ATOM      3  N   UNL     1       1.001   3.943  20.511  0.00  0.00    +0.000 NA
ATOM      4  C   UNL     1       1.878   3.363  19.679  0.00  0.00    +0.000 A 
ATOM      5  C   UNL     1       1.948   2.020  19.303  0.00  0.00    +0.000 A 
ATOM      6  C   UNL     1       2.977   1.791  18.392  0.00  0.00    +0.000 A 
ATOM      7  N   UNL     1       3.887   2.703  17.898  0.00  0.00    +0.000 NA
ATOM      8  C   UNL     1       3.862   4.032  18.280  0.00  0.00    +0.000 A 
ATOM      9  C   UNL     1       2.805   4.358  19.163  0.00  0.00    +0.000 A 
ATOM     10  H   UNL     1       0.747   5.875  21.039  0.00  0.00    +0.000 HD
ENDROOT
BRANCH   8  11
ATOM     11  C   UNL     1       4.884   4.907  17.720  0.00  0.00    +0.000 A 
ATOM     12  C   UNL     1       4.934   5.232  16.367  0.00  0.00    +0.000 A 
ATOM     13  N   UNL     1       5.935   5.918  15.768  0.00  0.00    +0.000 NA
ATOM     14  C   UNL     1       6.912   6.377  16.583  0.00  0.00    +0.000 A 
ATOM     15  C   UNL     1       6.916   6.225  17.963  0.00  0.00    +0.000 A 
ATOM     16  C   UNL     1       5.883   5.480  18.530  0.00  0.00    +0.000 A 
BRANCH  15  17
ATOM     17  O   UNL     1       7.959   6.811  18.623  0.00  0.00    +0.000 OA
ATOM     18  C   UNL     1       8.276   8.149  18.260  0.00  0.00    +0.000 C 
ENDBRANCH  15  17
ENDBRANCH   8  11
BRANCH   1  19
ATOM     19  C   UNL     1       2.640   7.024  19.407  0.00  0.00    +0.000 C 
BRANCH  19  20
ATOM     20  C   UNL     1       2.400   7.488  17.969  0.00  0.00    +0.000 C 
BRANCH  20  22
ATOM     21  C   UNL     1       1.212   9.390  19.103  0.00  0.00    +0.000 C 
ATOM     22  C   UNL     1       1.986   8.956  17.868  0.00  0.00    +0.000 C 
ENDBRANCH  20  22
ENDBRANCH  19  20
ENDBRANCH   1  19
TORSDOF 5
ENDMDL
MODEL 5
REMARK VINA RESULT:      -7.1      2.869      6.208
REMARK  Name = 
REMARK  7 active torsions:
REMARK  status: ('A' for Active; 'I' for Inactive)
REMARK    1  A    between atoms: C_1  and  C_2
REMARK    2  A    between atoms: C_2  and  C_3
REMARK    3  A    between atoms: C_3  and  C_4
REMARK    4  A    between atoms: C_4  and  C_5
REMARK    5  A    between atoms: C_12  and  C_13
REMARK    6  A    between atoms: C_17  and  O_18
REMARK    7  A    between atoms: O_18  and  C_19
REMARK                            x       y       z     vdW  Elec       q    Type
REMARK                         _______ _______ _______ _____ _____    ______ ____
ROOT
ATOM      1  C   UNL     1       2.754   4.203  17.823  0.00  0.00    +0.000 A 
ATOM      2  N   UNL     1       3.319   2.985  17.531  0.00  0.00    +0.000 N 
ATOM      3  N   UNL     1       4.561   3.042  17.037  0.00  0.00    +0.000 NA
ATOM      4  C   UNL     1       4.865   4.347  17.028  0.00  0.00    +0.000 A 
ATOM      5  C   UNL     1       6.027   4.957  16.549  0.00  0.00    +0.000 A 
ATOM      6  C   UNL     1       5.975   6.343  16.679  0.00  0.00    +0.000 A 
ATOM      7  N   UNL     1       4.966   7.102  17.234  0.00  0.00    +0.000 NA
ATOM      8  C   UNL     1       3.820   6.523  17.748  0.00  0.00    +0.000 A 
ATOM      9  C   UNL     1       3.771   5.115  17.601  0.00  0.00    +0.000 A 
ATOM     10  H   UNL     1       2.885   2.071  17.605  0.00  0.00    +0.000 HD
ENDROOT
BRANCH   8  11
ATOM     11  C   UNL     1       2.827   7.412  18.336  0.00  0.00    +0.000 A 
ATOM     12  C   UNL     1       2.254   8.467  17.631  0.00  0.00    +0.000 A 
ATOM     13  N   UNL     1       1.440   9.408  18.163  0.00  0.00    +0.000 NA
ATOM     14  C   UNL     1       1.113   9.243  19.466  0.00  0.00    +0.000 A 
ATOM     15  C   UNL     1       1.520   8.169  20.245  0.00  0.00    +0.000 A 
ATOM     16  C   UNL     1       2.388   7.245  19.663  0.00  0.00    +0.000 A 
BRANCH  15  17
ATOM     17  O   UNL     1       1.039   8.145  21.523  0.00  0.00    +0.000 OA
ATOM     18  C   UNL     1      -0.173   8.849  21.764  0.00  0.00    +0.000 C 
ENDBRANCH  15  17
ENDBRANCH   8  11
BRANCH   1  19
ATOM     19  C   UNL     1       1.310   4.243  18.212  0.00  0.00    +0.000 C 
BRANCH  19  20
ATOM     20  C   UNL     1       0.939   3.252  19.318  0.00  0.00    +0.000 C 
BRANCH  20  22
ATOM     21  C   UNL     1       2.268   2.991  21.435  0.00  0.00    +0.000 C 
ATOM     22  C   UNL     1       1.190   3.795  20.725  0.00  0.00    +0.000 C 
ENDBRANCH  20  22
ENDBRANCH  19  20
ENDBRANCH   1  19
TORSDOF 5
ENDMDL
MODEL 6
REMARK VINA RESULT:      -7.1      1.498      3.814
REMARK  Name = 
REMARK  7 active torsions:
REMARK  status: ('A' for Active; 'I' for Inactive)
REMARK    1  A    between atoms: C_1  and  C_2
REMARK    2  A    between atoms: C_2  and  C_3
REMARK    3  A    between atoms: C_3  and  C_4
REMARK    4  A    between atoms: C_4  and  C_5
REMARK    5  A    between atoms: C_12  and  C_13
REMARK    6  A    between atoms: C_17  and  O_18
REMARK    7  A    between atoms: O_18  and  C_19
REMARK                            x       y       z     vdW  Elec       q    Type
REMARK                         _______ _______ _______ _____ _____    ______ ____
ROOT
ATOM      1  C   UNL     1       3.734   4.921  19.532  0.00  0.00    +0.000 A 
ATOM      2  N   UNL     1       2.763   4.943  20.506  0.00  0.00    +0.000 N 
ATOM      3  N   UNL     1       1.981   6.028  20.500  0.00  0.00    +0.000 NA
ATOM      4  C   UNL     1       2.413   6.754  19.459  0.00  0.00    +0.000 A 
ATOM      5  C   UNL     1       1.971   8.014  19.047  0.00  0.00    +0.000 A 
ATOM      6  C   UNL     1       2.678   8.472  17.937  0.00  0.00    +0.000 A 
ATOM      7  N   UNL     1       3.674   7.818  17.241  0.00  0.00    +0.000 NA
ATOM      8  C   UNL     1       4.106   6.556  17.606  0.00  0.00    +0.000 A 
ATOM      9  C   UNL     1       3.475   6.043  18.764  0.00  0.00    +0.000 A 
ATOM     10  H   UNL     1       2.613   4.259  21.240  0.00  0.00    +0.000 HD
ENDROOT
BRANCH   8  11
ATOM     11  C   UNL     1       5.145   5.943  16.788  0.00  0.00    +0.000 A 
ATOM     12  C   UNL     1       6.491   6.277  16.911  0.00  0.00    +0.000 A 
ATOM     13  N   UNL     1       7.477   5.852  16.088  0.00  0.00    +0.000 NA
ATOM     14  C   UNL     1       7.111   4.974  15.126  0.00  0.00    +0.000 A 
ATOM     15  C   UNL     1       5.826   4.469  14.974  0.00  0.00    +0.000 A 
ATOM     16  C   UNL     1       4.837   4.966  15.822  0.00  0.00    +0.000 A 
BRANCH  15  17
ATOM     17  O   UNL     1       5.663   3.546  13.981  0.00  0.00    +0.000 OA
ATOM     18  C   UNL     1       6.426   3.738  12.796  0.00  0.00    +0.000 C 
ENDBRANCH  15  17
ENDBRANCH   8  11
BRANCH   1  19
ATOM     19  C   UNL     1       4.761   3.834  19.575  0.00  0.00    +0.000 C 
BRANCH  19  20
ATOM     20  C   UNL     1       4.186   2.431  19.371  0.00  0.00    +0.000 C 
BRANCH  20  22
ATOM     21  C   UNL     1       2.038   2.211  18.084  0.00  0.00    +0.000 C 
ATOM     22  C   UNL     1       3.556   2.229  17.993  0.00  0.00    +0.000 C 
ENDBRANCH  20  22
ENDBRANCH  19  20
ENDBRANCH   1  19
TORSDOF 5
ENDMDL
MODEL 7
REMARK VINA RESULT:      -6.9      0.987      1.051
REMARK  Name = 
REMARK  7 active torsions:
REMARK  status: ('A' for Active; 'I' for Inactive)
REMARK    1  A    between atoms: C_1  and  C_2
REMARK    2  A    between atoms: C_2  and  C_3
REMARK    3  A    between atoms: C_3  and  C_4
REMARK    4  A    between atoms: C_4  and  C_5
REMARK    5  A    between atoms: C_12  and  C_13
REMARK    6  A    between atoms: C_17  and  O_18
REMARK    7  A    between atoms: O_18  and  C_19
REMARK                            x       y       z     vdW  Elec       q    Type
REMARK                         _______ _______ _______ _____ _____    ______ ____
ROOT
ATOM      1  C   UNL     1       2.829   6.175  19.417  0.00  0.00    +0.000 A 
ATOM      2  N   UNL     1       1.700   6.194  20.201  0.00  0.00    +0.000 N 
ATOM      3  N   UNL     1       1.458   5.062  20.872  0.00  0.00    +0.000 NA
ATOM      4  C   UNL     1       2.482   4.256  20.561  0.00  0.00    +0.000 A 
ATOM      5  C   UNL     1       2.682   2.930  20.951  0.00  0.00    +0.000 A 
ATOM      6  C   UNL     1       3.850   2.401  20.407  0.00  0.00    +0.000 A 
ATOM      7  N   UNL     1       4.775   3.041  19.608  0.00  0.00    +0.000 NA
ATOM      8  C   UNL     1       4.620   4.363  19.234  0.00  0.00    +0.000 A 
ATOM      9  C   UNL     1       3.423   4.958  19.702  0.00  0.00    +0.000 A 
ATOM     10  H   UNL     1       1.021   6.944  20.284  0.00  0.00    +0.000 HD
ENDROOT
BRANCH   8  11
ATOM     11  C   UNL     1       5.668   4.952  18.410  0.00  0.00    +0.000 A 
ATOM     12  C   UNL     1       6.735   5.665  18.950  0.00  0.00    +0.000 A 
ATOM     13  N   UNL     1       7.654   6.353  18.232  0.00  0.00    +0.000 NA
ATOM     14  C   UNL     1       7.548   6.261  16.887  0.00  0.00    +0.000 A 
ATOM     15  C   UNL     1       6.604   5.486  16.227  0.00  0.00    +0.000 A 
ATOM     16  C   UNL     1       5.656   4.825  17.008  0.00  0.00    +0.000 A 
BRANCH  15  17
ATOM     17  O   UNL     1       6.692   5.473  14.864  0.00  0.00    +0.000 OA
ATOM     18  C   UNL     1       6.384   4.247  14.214  0.00  0.00    +0.000 C 
ENDBRANCH  15  17
ENDBRANCH   8  11
BRANCH   1  19
ATOM     19  C   UNL     1       3.079   7.330  18.500  0.00  0.00    +0.000 C 
BRANCH  19  20
ATOM     20  C   UNL     1       1.806   7.934  17.902  0.00  0.00    +0.000 C 
BRANCH  20  22
ATOM     21  C   UNL     1       0.395   9.969  18.329  0.00  0.00    +0.000 C 
ATOM     22  C   UNL     1       1.779   9.461  17.954  0.00  0.00    +0.000 C 
ENDBRANCH  20  22
ENDBRANCH  19  20
ENDBRANCH   1  19
TORSDOF 5
ENDMDL
MODEL 8
REMARK VINA RESULT:      -6.9      1.871      2.440
REMARK  Name = 
REMARK  7 active torsions:
REMARK  status: ('A' for Active; 'I' for Inactive)
REMARK    1  A    between atoms: C_1  and  C_2
REMARK    2  A    between atoms: C_2  and  C_3
REMARK    3  A    between atoms: C_3  and  C_4
REMARK    4  A    between atoms: C_4  and  C_5
REMARK    5  A    between atoms: C_12  and  C_13
REMARK    6  A    between atoms: C_17  and  O_18
REMARK    7  A    between atoms: O_18  and  C_19
REMARK                            x       y       z     vdW  Elec       q    Type
REMARK                         _______ _______ _______ _____ _____    ______ ____
ROOT
ATOM      1  C   UNL     1       2.298   5.118  19.240  0.00  0.00    +0.000 A 
ATOM      2  N   UNL     1       1.182   4.957  20.026  0.00  0.00    +0.000 N 
ATOM      3  N   UNL     1       1.234   3.927  20.878  0.00  0.00    +0.000 NA
ATOM      4  C   UNL     1       2.448   3.390  20.690  0.00  0.00    +0.000 A 
ATOM      5  C   UNL     1       2.987   2.250  21.291  0.00  0.00    +0.000 A 
ATOM      6  C   UNL     1       4.270   1.978  20.825  0.00  0.00    +0.000 A 
ATOM      7  N   UNL     1       5.012   2.706  19.918  0.00  0.00    +0.000 NA
ATOM      8  C   UNL     1       4.518   3.857  19.334  0.00  0.00    +0.000 A 
ATOM      9  C   UNL     1       3.191   4.172  19.714  0.00  0.00    +0.000 A 
ATOM     10  H   UNL     1       0.324   5.497  19.993  0.00  0.00    +0.000 HD
ENDROOT
BRANCH   8  11
ATOM     11  C   UNL     1       5.392   4.567  18.409  0.00  0.00    +0.000 A 
ATOM     12  C   UNL     1       5.424   4.289  17.046  0.00  0.00    +0.000 A 
ATOM     13  N   UNL     1       6.312   4.809  16.166  0.00  0.00    +0.000 NA
ATOM     14  C   UNL     1       7.174   5.726  16.663  0.00  0.00    +0.000 A 
ATOM     15  C   UNL     1       7.165   6.178  17.976  0.00  0.00    +0.000 A 
ATOM     16  C   UNL     1       6.258   5.585  18.853  0.00  0.00    +0.000 A 
BRANCH  15  17
ATOM     17  O   UNL     1       8.075   7.150  18.276  0.00  0.00    +0.000 OA
ATOM     18  C   UNL     1       7.850   8.435  17.709  0.00  0.00    +0.000 C 
ENDBRANCH  15  17
ENDBRANCH   8  11
BRANCH   1  19
ATOM     19  C   UNL     1       2.256   6.133  18.141  0.00  0.00    +0.000 C 
BRANCH  19  20
ATOM     20  C   UNL     1       2.788   7.508  18.547  0.00  0.00    +0.000 C 
BRANCH  20  22
ATOM     21  C   UNL     1       1.209   9.461  18.453  0.00  0.00    +0.000 C 
ATOM     22  C   UNL     1       2.240   8.647  17.687  0.00  0.00    +0.000 C 
ENDBRANCH  20  22
ENDBRANCH  19  20
ENDBRANCH   1  19
TORSDOF 5
ENDMDL
MODEL 9
REMARK VINA RESULT:      -6.8      1.850      2.523
REMARK  Name = 
REMARK  7 active torsions:
REMARK  status: ('A' for Active; 'I' for Inactive)
REMARK    1  A    between atoms: C_1  and  C_2
REMARK    2  A    between atoms: C_2  and  C_3
REMARK    3  A    between atoms: C_3  and  C_4
REMARK    4  A    between atoms: C_4  and  C_5
REMARK    5  A    between atoms: C_12  and  C_13
REMARK    6  A    between atoms: C_17  and  O_18
REMARK    7  A    between atoms: O_18  and  C_19
REMARK                            x       y       z     vdW  Elec       q    Type
REMARK                         _______ _______ _______ _____ _____    ______ ____
ROOT
ATOM      1  C   UNL     1       2.483   5.521  19.543  0.00  0.00    +0.000 A 
ATOM      2  N   UNL     1       1.432   5.579  20.427  0.00  0.00    +0.000 N 
ATOM      3  N   UNL     1       0.688   4.469  20.494  0.00  0.00    +0.000 NA
ATOM      4  C   UNL     1       1.279   3.611  19.651  0.00  0.00    +0.000 A 
ATOM      5  C   UNL     1       0.864   2.323  19.303  0.00  0.00    +0.000 A 
ATOM      6  C   UNL     1       1.717   1.740  18.369  0.00  0.00    +0.000 A 
ATOM      7  N   UNL     1       2.870   2.272  17.830  0.00  0.00    +0.000 NA
ATOM      8  C   UNL     1       3.323   3.529  18.182  0.00  0.00    +0.000 A 
ATOM      9  C   UNL     1       2.476   4.214  19.087  0.00  0.00    +0.000 A 
ATOM     10  H   UNL     1       1.140   6.374  20.986  0.00  0.00    +0.000 HD
ENDROOT
BRANCH   8  11
ATOM     11  C   UNL     1       4.566   3.987  17.574  0.00  0.00    +0.000 A 
ATOM     12  C   UNL     1       4.707   4.168  16.201  0.00  0.00    +0.000 A 
ATOM     13  N   UNL     1       5.870   4.450  15.569  0.00  0.00    +0.000 NA
ATOM     14  C   UNL     1       6.948   4.641  16.364  0.00  0.00    +0.000 A 
ATOM     15  C   UNL     1       6.913   4.608  17.751  0.00  0.00    +0.000 A 
ATOM     16  C   UNL     1       5.701   4.277  18.356  0.00  0.00    +0.000 A 
BRANCH  15  17
ATOM     17  O   UNL     1       8.092   4.884  18.382  0.00  0.00    +0.000 OA
ATOM     18  C   UNL     1       8.026   5.737  19.519  0.00  0.00    +0.000 C 
ENDBRANCH  15  17
ENDBRANCH   8  11
BRANCH   1  19
ATOM     19  C   UNL     1       3.258   6.772  19.276  0.00  0.00    +0.000 C 
BRANCH  19  20
ATOM     20  C   UNL     1       3.127   7.288  17.842  0.00  0.00    +0.000 C 
BRANCH  20  22
ATOM     21  C   UNL     1       1.640   8.898  19.072  0.00  0.00    +0.000 C 
ATOM     22  C   UNL     1       2.231   8.522  17.722  0.00  0.00    +0.000 C 
ENDBRANCH  20  22
ENDBRANCH  19  20
ENDBRANCH   1  19
TORSDOF 5
ENDMDL
