MODEL 1
REMARK VINA RESULT:      -9.5      0.000      0.000
REMARK  Name = 
REMARK  5 active torsions:
REMARK  status: ('A' for Active; 'I' for Inactive)
REMARK    1  A    between atoms: C_5  and  C_6
REMARK    2  A    between atoms: C_9  and  C_10
REMARK    3  A    between atoms: C_15  and  O_16
REMARK    4  A    between atoms: O_16  and  C_17
REMARK    5  A    between atoms: C_19  and  C_20
REMARK                            x       y       z     vdW  Elec       q    Type
REMARK                         _______ _______ _______ _____ _____    ______ ____
ROOT
ATOM      1  C   UNL     1       1.057   9.407  19.786  0.00  0.00    +0.000 A 
ATOM      2  C   UNL     1       1.751   8.887  18.674  0.00  0.00    +0.000 A 
ATOM      3  C   UNL     1       2.247   7.565  18.639  0.00  0.00    +0.000 A 
ATOM      4  C   UNL     1       2.079   6.689  19.717  0.00  0.00    +0.000 A 
ATOM      5  C   UNL     1       1.448   7.240  20.854  0.00  0.00    +0.000 A 
ATOM      6  C   UNL     1       0.939   8.548  20.877  0.00  0.00    +0.000 A 
ATOM      7  F   UNL     1       0.281   8.935  21.983  0.00  0.00    +0.000 F 
ENDROOT
BRANCH   1  12
ATOM      8  N   UNL     1      -1.211  14.523  19.490  0.00  0.00    +0.000 N 
ATOM      9  C   UNL     1      -0.657  13.251  19.618  0.00  0.00    +0.000 A 
ATOM     10  C   UNL     1      -1.322  12.105  19.194  0.00  0.00    +0.000 A 
ATOM     11  N   UNL     1      -0.783  10.858  19.250  0.00  0.00    +0.000 NA
ATOM     12  C   UNL     1       0.474  10.763  19.755  0.00  0.00    +0.000 A 
ATOM     13  C   UNL     1       1.124  11.920  20.192  0.00  0.00    +0.000 A 
ATOM     14  N   UNL     1       0.581  13.168  20.125  0.00  0.00    +0.000 NA
ATOM     15  H   UNL     1      -2.128  14.590  19.914  0.00  0.00    +0.000 HD
ATOM     16  H   UNL     1      -0.553  15.183  19.896  0.00  0.00    +0.000 HD
ENDBRANCH   1  12
BRANCH   4  17
ATOM     17  C   UNL     1       2.427   5.232  19.673  0.00  0.00    +0.000 A 
ATOM     18  C   UNL     1       1.344   4.310  19.615  0.00  0.00    +0.000 A 
ATOM     19  C   UNL     1       1.513   2.922  19.610  0.00  0.00    +0.000 A 
ATOM     20  C   UNL     1       2.786   2.393  19.685  0.00  0.00    +0.000 A 
ATOM     21  C   UNL     1       3.877   3.253  19.733  0.00  0.00    +0.000 A 
ATOM     22  C   UNL     1       3.725   4.659  19.658  0.00  0.00    +0.000 A 
BRANCH  22  23
ATOM     23  O   UNL     1       4.872   5.448  19.619  0.00  0.00    +0.000 OA
BRANCH  23  24
ATOM     24  C   UNL     1       5.788   5.181  18.588  0.00  0.00    +0.000 A 
ATOM     25  C   UNL     1       5.389   5.416  17.287  0.00  0.00    +0.000 A 
ATOM     26  C   UNL     1       6.311   5.140  16.283  0.00  0.00    +0.000 A 
ATOM     27  N   UNL     1       7.560   4.720  16.588  0.00  0.00    +0.000 NA
ATOM     28  C   UNL     1       7.842   4.515  17.881  0.00  0.00    +0.000 A 
ATOM     29  N   UNL     1       7.002   4.689  18.904  0.00  0.00    +0.000 NA
BRANCH  26  30
ATOM     30  C   UNL     1       5.928   5.156  14.818  0.00  0.00    +0.000 C 
ATOM     31  C   UNL     1       6.917   4.910  13.708  0.00  0.00    +0.000 C 
ATOM     32  C   UNL     1       5.884   3.870  14.018  0.00  0.00    +0.000 C 
ENDBRANCH  26  30
ENDBRANCH  23  24
ENDBRANCH  22  23
ENDBRANCH   4  17
TORSDOF 5
ENDMDL
MODEL 2
REMARK VINA RESULT:      -9.3      1.018      1.182
REMARK  Name = 
REMARK  5 active torsions:
REMARK  status: ('A' for Active; 'I' for Inactive)
REMARK    1  A    between atoms: C_5  and  C_6
REMARK    2  A    between atoms: C_9  and  C_10
REMARK    3  A    between atoms: C_15  and  O_16
REMARK    4  A    between atoms: O_16  and  C_17
REMARK    5  A    between atoms: C_19  and  C_20
REMARK                            x       y       z     vdW  Elec       q    Type
REMARK                         _______ _______ _______ _____ _____    ______ ____
ROOT
ATOM      1  C   UNL     1       1.337   9.034  19.192  0.00  0.00    +0.000 A 
ATOM      2  C   UNL     1       1.916   8.479  18.034  0.00  0.00    +0.000 A 
ATOM      3  C   UNL     1       2.435   7.165  17.999  0.00  0.00    +0.000 A 
ATOM      4  C   UNL     1       2.405   6.334  19.124  0.00  0.00    +0.000 A 
ATOM      5  C   UNL     1       1.890   6.923  20.300  0.00  0.00    +0.000 A 
ATOM      6  C   UNL     1       1.358   8.222  20.325  0.00  0.00    +0.000 A 
ATOM      7  F   UNL     1       0.816   8.644  21.480  0.00  0.00    +0.000 F 
ENDROOT
BRANCH   1  12
ATOM      8  N   UNL     1      -0.834  14.200  19.199  0.00  0.00    +0.000 N 
ATOM      9  C   UNL     1      -0.323  12.905  19.151  0.00  0.00    +0.000 A 
ATOM     10  C   UNL     1       0.986  12.637  18.764  0.00  0.00    +0.000 A 
ATOM     11  N   UNL     1       1.531  11.392  18.765  0.00  0.00    +0.000 NA
ATOM     12  C   UNL     1       0.724  10.377  19.171  0.00  0.00    +0.000 A 
ATOM     13  C   UNL     1      -0.593  10.659  19.542  0.00  0.00    +0.000 A 
ATOM     14  N   UNL     1      -1.130  11.911  19.546  0.00  0.00    +0.000 NA
ATOM     15  H   UNL     1      -0.723  14.693  18.321  0.00  0.00    +0.000 HD
ATOM     16  H   UNL     1      -1.810  14.132  19.478  0.00  0.00    +0.000 HD
ENDBRANCH   1  12
BRANCH   4  17
ATOM     17  C   UNL     1       2.779   4.883  19.102  0.00  0.00    +0.000 A 
ATOM     18  C   UNL     1       1.762   3.959  18.731  0.00  0.00    +0.000 A 
ATOM     19  C   UNL     1       1.951   2.574  18.706  0.00  0.00    +0.000 A 
ATOM     20  C   UNL     1       3.173   2.049  19.073  0.00  0.00    +0.000 A 
ATOM     21  C   UNL     1       4.202   2.912  19.433  0.00  0.00    +0.000 A 
ATOM     22  C   UNL     1       4.049   4.319  19.387  0.00  0.00    +0.000 A 
BRANCH  22  23
ATOM     23  O   UNL     1       5.155   5.115  19.673  0.00  0.00    +0.000 OA
BRANCH  23  24
ATOM     24  C   UNL     1       5.923   5.547  18.579  0.00  0.00    +0.000 A 
ATOM     25  C   UNL     1       5.475   5.240  17.309  0.00  0.00    +0.000 A 
ATOM     26  C   UNL     1       6.254   5.674  16.241  0.00  0.00    +0.000 A 
ATOM     27  N   UNL     1       7.365   6.416  16.453  0.00  0.00    +0.000 NA
ATOM     28  C   UNL     1       7.715   6.650  17.724  0.00  0.00    +0.000 A 
ATOM     29  N   UNL     1       7.068   6.218  18.808  0.00  0.00    +0.000 NA
BRANCH  26  30
ATOM     30  C   UNL     1       5.986   5.225  14.820  0.00  0.00    +0.000 C 
ATOM     31  C   UNL     1       7.082   4.830  13.863  0.00  0.00    +0.000 C 
ATOM     32  C   UNL     1       6.173   3.776  14.421  0.00  0.00    +0.000 C 
ENDBRANCH  26  30
ENDBRANCH  23  24
ENDBRANCH  22  23
ENDBRANCH   4  17
TORSDOF 5
ENDMDL
MODEL 3
REMARK VINA RESULT:      -9.2      3.125      9.654
REMARK  Name = 
REMARK  5 active torsions:
REMARK  status: ('A' for Active; 'I' for Inactive)
REMARK    1  A    between atoms: C_5  and  C_6
REMARK    2  A    between atoms: C_9  and  C_10
REMARK    3  A    between atoms: C_15  and  O_16
REMARK    4  A    between atoms: O_16  and  C_17
REMARK    5  A    between atoms: C_19  and  C_20
REMARK                            x       y       z     vdW  Elec       q    Type
REMARK                         _______ _______ _______ _____ _____    ______ ____
ROOT
ATOM      1  C   UNL     1       2.610   6.915  19.039  0.00  0.00    +0.000 A 
ATOM      2  C   UNL     1       2.736   7.649  17.843  0.00  0.00    +0.000 A 
ATOM      3  C   UNL     1       2.205   8.950  17.690  0.00  0.00    +0.000 A 
ATOM      4  C   UNL     1       1.514   9.587  18.726  0.00  0.00    +0.000 A 
ATOM      5  C   UNL     1       1.329   8.816  19.896  0.00  0.00    +0.000 A 
ATOM      6  C   UNL     1       1.875   7.532  20.050  0.00  0.00    +0.000 A 
ATOM      7  F   UNL     1       1.708   6.930  21.239  0.00  0.00    +0.000 F 
ENDROOT
BRANCH   1  12
ATOM      8  N   UNL     1       4.933   1.869  19.778  0.00  0.00    +0.000 N 
ATOM      9  C   UNL     1       4.369   3.121  19.541  0.00  0.00    +0.000 A 
ATOM     10  C   UNL     1       2.993   3.318  19.489  0.00  0.00    +0.000 A 
ATOM     11  N   UNL     1       2.414   4.535  19.319  0.00  0.00    +0.000 NA
ATOM     12  C   UNL     1       3.253   5.596  19.196  0.00  0.00    +0.000 A 
ATOM     13  C   UNL     1       4.634   5.381  19.234  0.00  0.00    +0.000 A 
ATOM     14  N   UNL     1       5.208   4.159  19.412  0.00  0.00    +0.000 NA
ATOM     15  H   UNL     1       4.601   1.166  19.131  0.00  0.00    +0.000 HD
ATOM     16  H   UNL     1       5.944   1.979  19.738  0.00  0.00    +0.000 HD
ENDBRANCH   1  12
BRANCH   4  17
ATOM     17  C   UNL     1       1.081  11.021  18.685  0.00  0.00    +0.000 A 
ATOM     18  C   UNL     1       2.094  11.996  18.464  0.00  0.00    +0.000 A 
ATOM     19  C   UNL     1       1.848  13.372  18.441  0.00  0.00    +0.000 A 
ATOM     20  C   UNL     1       0.566  13.836  18.661  0.00  0.00    +0.000 A 
ATOM     21  C   UNL     1      -0.459  12.921  18.871  0.00  0.00    +0.000 A 
ATOM     22  C   UNL     1      -0.238  11.524  18.818  0.00  0.00    +0.000 A 
BRANCH  22  23
ATOM     23  O   UNL     1      -1.335  10.675  18.948  0.00  0.00    +0.000 OA
BRANCH  23  24
ATOM     24  C   UNL     1      -2.295  10.722  17.923  0.00  0.00    +0.000 A 
ATOM     25  C   UNL     1      -3.519  11.295  18.206  0.00  0.00    +0.000 A 
ATOM     26  C   UNL     1      -4.456  11.326  17.178  0.00  0.00    +0.000 A 
ATOM     27  N   UNL     1      -4.143  10.869  15.944  0.00  0.00    +0.000 NA
ATOM     28  C   UNL     1      -2.931  10.326  15.779  0.00  0.00    +0.000 A 
ATOM     29  N   UNL     1      -1.995  10.192  16.722  0.00  0.00    +0.000 NA
BRANCH  26  30
ATOM     30  C   UNL     1      -5.895  11.733  17.418  0.00  0.00    +0.000 C 
ATOM     31  C   UNL     1      -6.317  12.625  18.558  0.00  0.00    +0.000 C 
ATOM     32  C   UNL     1      -6.349  13.153  17.156  0.00  0.00    +0.000 C 
ENDBRANCH  26  30
ENDBRANCH  23  24
ENDBRANCH  22  23
ENDBRANCH   4  17
TORSDOF 5
ENDMDL
MODEL 4
REMARK VINA RESULT:      -9.0      1.481      2.211
REMARK  Name = 
REMARK  5 active torsions:
REMARK  status: ('A' for Active; 'I' for Inactive)
REMARK    1  A    between atoms: C_5  and  C_6
REMARK    2  A    between atoms: C_9  and  C_10
REMARK    3  A    between atoms: C_15  and  O_16
REMARK    4  A    between atoms: O_16  and  C_17
REMARK    5  A    between atoms: C_19  and  C_20
REMARK                            x       y       z     vdW  Elec       q    Type
REMARK                         _______ _______ _______ _____ _____    ______ ____
ROOT
ATOM      1  C   UNL     1       1.166   9.585  19.523  0.00  0.00    +0.000 A 
ATOM      2  C   UNL     1       1.849   8.959  18.461  0.00  0.00    +0.000 A 
ATOM      3  C   UNL     1       2.333   7.634  18.545  0.00  0.00    +0.000 A 
ATOM      4  C   UNL     1       2.163   6.862  19.699  0.00  0.00    +0.000 A 
ATOM      5  C   UNL     1       1.542   7.521  20.784  0.00  0.00    +0.000 A 
ATOM      6  C   UNL     1       1.046   8.831  20.689  0.00  0.00    +0.000 A 
ATOM      7  F   UNL     1       0.396   9.323  21.757  0.00  0.00    +0.000 F 
ENDROOT
BRANCH   1  12
ATOM      8  N   UNL     1      -0.956  14.756  19.128  0.00  0.00    +0.000 N 
ATOM      9  C   UNL     1      -0.417  13.472  19.172  0.00  0.00    +0.000 A 
ATOM     10  C   UNL     1       0.827  13.208  19.737  0.00  0.00    +0.000 A 
ATOM     11  N   UNL     1       1.352  11.959  19.848  0.00  0.00    +0.000 NA
ATOM     12  C   UNL     1       0.595  10.937  19.371  0.00  0.00    +0.000 A 
ATOM     13  C   UNL     1      -0.645  11.219  18.792  0.00  0.00    +0.000 A 
ATOM     14  N   UNL     1      -1.169  12.473  18.691  0.00  0.00    +0.000 NA
ATOM     15  H   UNL     1      -0.332  15.424  18.692  0.00  0.00    +0.000 HD
ATOM     16  H   UNL     1      -1.848  14.695  18.644  0.00  0.00    +0.000 HD
ENDBRANCH   1  12
BRANCH   4  17
ATOM     17  C   UNL     1       2.498   5.404  19.787  0.00  0.00    +0.000 A 
ATOM     18  C   UNL     1       2.247   4.758  21.030  0.00  0.00    +0.000 A 
ATOM     19  C   UNL     1       2.546   3.414  21.274  0.00  0.00    +0.000 A 
ATOM     20  C   UNL     1       3.135   2.658  20.280  0.00  0.00    +0.000 A 
ATOM     21  C   UNL     1       3.390   3.242  19.045  0.00  0.00    +0.000 A 
ATOM     22  C   UNL     1       3.019   4.579  18.758  0.00  0.00    +0.000 A 
BRANCH  22  23
ATOM     23  O   UNL     1       3.225   5.061  17.468  0.00  0.00    +0.000 OA
BRANCH  23  24
ATOM     24  C   UNL     1       4.540   5.005  16.975  0.00  0.00    +0.000 A 
ATOM     25  C   UNL     1       5.434   5.968  17.400  0.00  0.00    +0.000 A 
ATOM     26  C   UNL     1       6.729   5.896  16.895  0.00  0.00    +0.000 A 
ATOM     27  N   UNL     1       7.095   4.885  16.075  0.00  0.00    +0.000 NA
ATOM     28  C   UNL     1       6.148   4.008  15.718  0.00  0.00    +0.000 A 
ATOM     29  N   UNL     1       4.869   4.037  16.098  0.00  0.00    +0.000 NA
BRANCH  26  30
ATOM     30  C   UNL     1       7.737   7.004  17.117  0.00  0.00    +0.000 C 
ATOM     31  C   UNL     1       7.373   8.336  17.720  0.00  0.00    +0.000 C 
ATOM     32  C   UNL     1       8.192   7.365  18.515  0.00  0.00    +0.000 C 
ENDBRANCH  26  30
ENDBRANCH  23  24
ENDBRANCH  22  23
ENDBRANCH   4  17
TORSDOF 5
ENDMDL
MODEL 5
REMARK VINA RESULT:      -8.9      1.164      1.572
REMARK  Name = 
REMARK  5 active torsions:
REMARK  status: ('A' for Active; 'I' for Inactive)
REMARK    1  A    between atoms: C_5  and  C_6
REMARK    2  A    between atoms: C_9  and  C_10
REMARK    3  A    between atoms: C_15  and  O_16
REMARK    4  A    between atoms: O_16  and  C_17
REMARK    5  A    between atoms: C_19  and  C_20
REMARK                            x       y       z     vdW  Elec       q    Type
REMARK                         _______ _______ _______ _____ _____    ______ ____
ROOT
ATOM      1  C   UNL     1       1.214   9.440  19.738  0.00  0.00    +0.000 A 
ATOM      2  C   UNL     1       0.951   8.624  20.856  0.00  0.00    +0.000 A 
ATOM      3  C   UNL     1       1.246   7.242  20.875  0.00  0.00    +0.000 A 
ATOM      4  C   UNL     1       1.818   6.599  19.772  0.00  0.00    +0.000 A 
ATOM      5  C   UNL     1       2.011   7.408  18.630  0.00  0.00    +0.000 A 
ATOM      6  C   UNL     1       1.734   8.785  18.623  0.00  0.00    +0.000 A 
ATOM      7  F   UNL     1       2.040   9.469  17.508  0.00  0.00    +0.000 F 
ENDROOT
BRANCH   1  12
ATOM      8  N   UNL     1       0.248  14.948  20.090  0.00  0.00    +0.000 N 
ATOM      9  C   UNL     1       0.529  13.589  19.966  0.00  0.00    +0.000 A 
ATOM     10  C   UNL     1       1.184  12.873  20.963  0.00  0.00    +0.000 A 
ATOM     11  N   UNL     1       1.419  11.536  20.897  0.00  0.00    +0.000 NA
ATOM     12  C   UNL     1       0.977  10.896  19.784  0.00  0.00    +0.000 A 
ATOM     13  C   UNL     1       0.334  11.631  18.784  0.00  0.00    +0.000 A 
ATOM     14  N   UNL     1       0.095  12.970  18.859  0.00  0.00    +0.000 NA
ATOM     15  H   UNL     1       1.073  15.498  20.295  0.00  0.00    +0.000 HD
ATOM     16  H   UNL     1      -0.203  15.245  19.227  0.00  0.00    +0.000 HD
ENDBRANCH   1  12
BRANCH   4  17
ATOM     17  C   UNL     1       2.310   5.183  19.792  0.00  0.00    +0.000 A 
ATOM     18  C   UNL     1       1.324   4.158  19.834  0.00  0.00    +0.000 A 
ATOM     19  C   UNL     1       1.632   2.796  19.897  0.00  0.00    +0.000 A 
ATOM     20  C   UNL     1       2.953   2.399  19.942  0.00  0.00    +0.000 A 
ATOM     21  C   UNL     1       3.953   3.364  19.892  0.00  0.00    +0.000 A 
ATOM     22  C   UNL     1       3.657   4.741  19.748  0.00  0.00    +0.000 A 
BRANCH  22  23
ATOM     23  O   UNL     1       4.716   5.635  19.613  0.00  0.00    +0.000 OA
BRANCH  23  24
ATOM     24  C   UNL     1       5.662   5.349  18.614  0.00  0.00    +0.000 A 
ATOM     25  C   UNL     1       5.299   5.554  17.297  0.00  0.00    +0.000 A 
ATOM     26  C   UNL     1       6.250   5.259  16.325  0.00  0.00    +0.000 A 
ATOM     27  N   UNL     1       7.490   4.850  16.675  0.00  0.00    +0.000 NA
ATOM     28  C   UNL     1       7.736   4.675  17.979  0.00  0.00    +0.000 A 
ATOM     29  N   UNL     1       6.868   4.868  18.974  0.00  0.00    +0.000 NA
BRANCH  26  30
ATOM     30  C   UNL     1       5.908   5.241  14.850  0.00  0.00    +0.000 C 
ATOM     31  C   UNL     1       6.848   4.715  13.796  0.00  0.00    +0.000 C 
ATOM     32  C   UNL     1       5.617   3.934  14.142  0.00  0.00    +0.000 C 
ENDBRANCH  26  30
ENDBRANCH  23  24
ENDBRANCH  22  23
ENDBRANCH   4  17
TORSDOF 5
ENDMDL
MODEL 6
REMARK VINA RESULT:      -8.8      1.110      1.226
REMARK  Name = 
REMARK  5 active torsions:
REMARK  status: ('A' for Active; 'I' for Inactive)
REMARK    1  A    between atoms: C_5  and  C_6
REMARK    2  A    between atoms: C_9  and  C_10
REMARK    3  A    between atoms: C_15  and  O_16
REMARK    4  A    between atoms: O_16  and  C_17
REMARK    5  A    between atoms: C_19  and  C_20
REMARK                            x       y       z     vdW  Elec       q    Type
REMARK                         _______ _______ _______ _____ _____    ______ ____
ROOT
ATOM      1  C   UNL     1       0.999   9.615  19.822  0.00  0.00    +0.000 A 
ATOM      2  C   UNL     1       1.663   9.101  18.690  0.00  0.00    +0.000 A 
ATOM      3  C   UNL     1       2.207   7.798  18.654  0.00  0.00    +0.000 A 
ATOM      4  C   UNL     1       2.121   6.936  19.753  0.00  0.00    +0.000 A 
ATOM      5  C   UNL     1       1.520   7.484  20.908  0.00  0.00    +0.000 A 
ATOM      6  C   UNL     1       0.963   8.772  20.932  0.00  0.00    +0.000 A 
ATOM      7  F   UNL     1       0.340   9.154  22.060  0.00  0.00    +0.000 F 
ENDROOT
BRANCH   1  12
ATOM      8  N   UNL     1      -1.507  14.620  19.562  0.00  0.00    +0.000 N 
ATOM      9  C   UNL     1      -0.880  13.381  19.682  0.00  0.00    +0.000 A 
ATOM     10  C   UNL     1      -1.572  12.182  19.541  0.00  0.00    +0.000 A 
ATOM     11  N   UNL     1      -0.979  10.961  19.592  0.00  0.00    +0.000 NA
ATOM     12  C   UNL     1       0.364  10.947  19.795  0.00  0.00    +0.000 A 
ATOM     13  C   UNL     1       1.044  12.157  19.951  0.00  0.00    +0.000 A 
ATOM     14  N   UNL     1       0.444  13.379  19.890  0.00  0.00    +0.000 NA
ATOM     15  H   UNL     1      -2.303  14.713  20.180  0.00  0.00    +0.000 HD
ATOM     16  H   UNL     1      -0.803  15.334  19.735  0.00  0.00    +0.000 HD
ENDBRANCH   1  12
BRANCH   4  17
ATOM     17  C   UNL     1       2.523   5.493  19.718  0.00  0.00    +0.000 A 
ATOM     18  C   UNL     1       2.259   4.720  20.884  0.00  0.00    +0.000 A 
ATOM     19  C   UNL     1       2.614   3.374  21.013  0.00  0.00    +0.000 A 
ATOM     20  C   UNL     1       3.274   2.744  19.977  0.00  0.00    +0.000 A 
ATOM     21  C   UNL     1       3.545   3.454  18.813  0.00  0.00    +0.000 A 
ATOM     22  C   UNL     1       3.120   4.794  18.638  0.00  0.00    +0.000 A 
BRANCH  22  23
ATOM     23  O   UNL     1       3.349   5.405  17.408  0.00  0.00    +0.000 OA
BRANCH  23  24
ATOM     24  C   UNL     1       4.690   5.561  17.020  0.00  0.00    +0.000 A 
ATOM     25  C   UNL     1       5.107   4.942  15.858  0.00  0.00    +0.000 A 
ATOM     26  C   UNL     1       6.440   5.106  15.495  0.00  0.00    +0.000 A 
ATOM     27  N   UNL     1       7.262   5.893  16.226  0.00  0.00    +0.000 NA
ATOM     28  C   UNL     1       6.760   6.441  17.339  0.00  0.00    +0.000 A 
ATOM     29  N   UNL     1       5.517   6.285  17.799  0.00  0.00    +0.000 NA
BRANCH  26  30
ATOM     30  C   UNL     1       7.066   4.313  14.368  0.00  0.00    +0.000 C 
ATOM     31  C   UNL     1       6.287   3.835  13.169  0.00  0.00    +0.000 C 
ATOM     32  C   UNL     1       7.282   4.944  13.008  0.00  0.00    +0.000 C 
ENDBRANCH  26  30
ENDBRANCH  23  24
ENDBRANCH  22  23
ENDBRANCH   4  17
TORSDOF 5
ENDMDL
MODEL 7
REMARK VINA RESULT:      -8.8      3.201      9.190
REMARK  Name = 
REMARK  5 active torsions:
REMARK  status: ('A' for Active; 'I' for Inactive)
REMARK    1  A    between atoms: C_5  and  C_6
REMARK    2  A    between atoms: C_9  and  C_10
REMARK    3  A    between atoms: C_15  and  O_16
REMARK    4  A    between atoms: O_16  and  C_17
REMARK    5  A    between atoms: C_19  and  C_20
REMARK                            x       y       z     vdW  Elec       q    Type
REMARK                         _______ _______ _______ _____ _____    ______ ____
ROOT
ATOM      1  C   UNL     1       2.575   6.986  19.060  0.00  0.00    +0.000 A 
ATOM      2  C   UNL     1       2.708   7.724  17.867  0.00  0.00    +0.000 A 
ATOM      3  C   UNL     1       2.191   9.031  17.720  0.00  0.00    +0.000 A 
ATOM      4  C   UNL     1       1.508   9.671  18.760  0.00  0.00    +0.000 A 
ATOM      5  C   UNL     1       1.315   8.897  19.926  0.00  0.00    +0.000 A 
ATOM      6  C   UNL     1       1.847   7.607  20.074  0.00  0.00    +0.000 A 
ATOM      7  F   UNL     1       1.674   7.001  21.261  0.00  0.00    +0.000 F 
ENDROOT
BRANCH   1  12
ATOM      8  N   UNL     1       4.845   1.913  19.779  0.00  0.00    +0.000 N 
ATOM      9  C   UNL     1       4.293   3.171  19.546  0.00  0.00    +0.000 A 
ATOM     10  C   UNL     1       2.919   3.387  19.522  0.00  0.00    +0.000 A 
ATOM     11  N   UNL     1       2.352   4.611  19.358  0.00  0.00    +0.000 NA
ATOM     12  C   UNL     1       3.203   5.659  19.211  0.00  0.00    +0.000 A 
ATOM     13  C   UNL     1       4.581   5.426  19.221  0.00  0.00    +0.000 A 
ATOM     14  N   UNL     1       5.143   4.197  19.394  0.00  0.00    +0.000 NA
ATOM     15  H   UNL     1       4.489   1.210  19.142  0.00  0.00    +0.000 HD
ATOM     16  H   UNL     1       5.856   2.008  19.716  0.00  0.00    +0.000 HD
ENDBRANCH   1  12
BRANCH   4  17
ATOM     17  C   UNL     1       1.091  11.110  18.725  0.00  0.00    +0.000 A 
ATOM     18  C   UNL     1       2.101  12.068  18.431  0.00  0.00    +0.000 A 
ATOM     19  C   UNL     1       1.870  13.447  18.404  0.00  0.00    +0.000 A 
ATOM     20  C   UNL     1       0.610  13.931  18.694  0.00  0.00    +0.000 A 
ATOM     21  C   UNL     1      -0.412  13.033  18.977  0.00  0.00    +0.000 A 
ATOM     22  C   UNL     1      -0.212  11.632  18.930  0.00  0.00    +0.000 A 
BRANCH  22  23
ATOM     23  O   UNL     1      -1.309  10.799  19.135  0.00  0.00    +0.000 OA
BRANCH  23  24
ATOM     24  C   UNL     1      -2.431  11.018  18.319  0.00  0.00    +0.000 A 
ATOM     25  C   UNL     1      -2.335  10.690  16.981  0.00  0.00    +0.000 A 
ATOM     26  C   UNL     1      -3.457  10.920  16.191  0.00  0.00    +0.000 A 
ATOM     27  N   UNL     1      -4.603  11.387  16.738  0.00  0.00    +0.000 NA
ATOM     28  C   UNL     1      -4.587  11.681  18.044  0.00  0.00    +0.000 A 
ATOM     29  N   UNL     1      -3.540  11.556  18.863  0.00  0.00    +0.000 NA
BRANCH  26  30
ATOM     30  C   UNL     1      -3.412  10.801  14.682  0.00  0.00    +0.000 C 
ATOM     31  C   UNL     1      -2.689   9.688  13.968  0.00  0.00    +0.000 C 
ATOM     32  C   UNL     1      -4.187   9.712  13.970  0.00  0.00    +0.000 C 
ENDBRANCH  26  30
ENDBRANCH  23  24
ENDBRANCH  22  23
ENDBRANCH   4  17
TORSDOF 5
ENDMDL
MODEL 8
REMARK VINA RESULT:      -8.8      1.682      2.228
REMARK  Name = 
REMARK  5 active torsions:
REMARK  status: ('A' for Active; 'I' for Inactive)
REMARK    1  A    between atoms: C_5  and  C_6
REMARK    2  A    between atoms: C_9  and  C_10
REMARK    3  A    between atoms: C_15  and  O_16
REMARK    4  A    between atoms: O_16  and  C_17
REMARK    5  A    between atoms: C_19  and  C_20
REMARK                            x       y       z     vdW  Elec       q    Type
REMARK                         _______ _______ _______ _____ _____    ______ ____
ROOT
ATOM      1  C   UNL     1       1.550   9.041  18.904  0.00  0.00    +0.000 A 
ATOM      2  C   UNL     1       2.093   8.412  17.765  0.00  0.00    +0.000 A 
ATOM      3  C   UNL     1       2.501   7.060  17.767  0.00  0.00    +0.000 A 
ATOM      4  C   UNL     1       2.393   6.261  18.910  0.00  0.00    +0.000 A 
ATOM      5  C   UNL     1       1.917   6.919  20.066  0.00  0.00    +0.000 A 
ATOM      6  C   UNL     1       1.493   8.257  20.055  0.00  0.00    +0.000 A 
ATOM      7  F   UNL     1       0.977   8.750  21.193  0.00  0.00    +0.000 F 
ENDROOT
BRANCH   1  12
ATOM      8  N   UNL     1      -0.481  14.252  18.551  0.00  0.00    +0.000 N 
ATOM      9  C   UNL     1       0.041  12.968  18.690  0.00  0.00    +0.000 A 
ATOM     10  C   UNL     1      -0.771  11.852  18.871  0.00  0.00    +0.000 A 
ATOM     11  N   UNL     1      -0.296  10.581  18.949  0.00  0.00    +0.000 NA
ATOM     12  C   UNL     1       1.050  10.429  18.844  0.00  0.00    +0.000 A 
ATOM     13  C   UNL     1       1.854  11.559  18.678  0.00  0.00    +0.000 A 
ATOM     14  N   UNL     1       1.370  12.830  18.592  0.00  0.00    +0.000 NA
ATOM     15  H   UNL     1      -1.095  14.506  19.315  0.00  0.00    +0.000 HD
ATOM     16  H   UNL     1       0.305  14.892  18.464  0.00  0.00    +0.000 HD
ENDBRANCH   1  12
BRANCH   4  17
ATOM     17  C   UNL     1       2.646   4.784  18.926  0.00  0.00    +0.000 A 
ATOM     18  C   UNL     1       1.554   3.938  18.584  0.00  0.00    +0.000 A 
ATOM     19  C   UNL     1       1.629   2.542  18.595  0.00  0.00    +0.000 A 
ATOM     20  C   UNL     1       2.806   1.928  18.973  0.00  0.00    +0.000 A 
ATOM     21  C   UNL     1       3.904   2.713  19.305  0.00  0.00    +0.000 A 
ATOM     22  C   UNL     1       3.867   4.126  19.222  0.00  0.00    +0.000 A 
BRANCH  22  23
ATOM     23  O   UNL     1       5.036   4.836  19.483  0.00  0.00    +0.000 OA
BRANCH  23  24
ATOM     24  C   UNL     1       5.812   5.207  18.372  0.00  0.00    +0.000 A 
ATOM     25  C   UNL     1       6.605   6.332  18.480  0.00  0.00    +0.000 A 
ATOM     26  C   UNL     1       7.361   6.682  17.366  0.00  0.00    +0.000 A 
ATOM     27  N   UNL     1       7.355   5.909  16.257  0.00  0.00    +0.000 NA
ATOM     28  C   UNL     1       6.544   4.844  16.253  0.00  0.00    +0.000 A 
ATOM     29  N   UNL     1       5.736   4.470  17.247  0.00  0.00    +0.000 NA
BRANCH  26  30
ATOM     30  C   UNL     1       8.103   8.000  17.285  0.00  0.00    +0.000 C 
ATOM     31  C   UNL     1       7.526   9.299  17.785  0.00  0.00    +0.000 C 
ATOM     32  C   UNL     1       8.652   8.655  18.535  0.00  0.00    +0.000 C 
ENDBRANCH  26  30
ENDBRANCH  23  24
ENDBRANCH  22  23
ENDBRANCH   4  17
TORSDOF 5
ENDMDL
MODEL 9
REMARK VINA RESULT:      -8.8      1.140      1.464
REMARK  Name = 
REMARK  5 active torsions:
REMARK  status: ('A' for Active; 'I' for Inactive)
REMARK    1  A    between atoms: C_5  and  C_6
REMARK    2  A    between atoms: C_9  and  C_10
REMARK    3  A    between atoms: C_15  and  O_16
REMARK    4  A    between atoms: O_16  and  C_17
REMARK    5  A    between atoms: C_19  and  C_20
REMARK                            x       y       z     vdW  Elec       q    Type
REMARK                         _______ _______ _______ _____ _____    ______ ____
ROOT
ATOM      1  C   UNL     1       1.132   9.538  19.536  0.00  0.00    +0.000 A 
ATOM      2  C   UNL     1       1.794   8.962  18.433  0.00  0.00    +0.000 A 
ATOM      3  C   UNL     1       2.322   7.652  18.463  0.00  0.00    +0.000 A 
ATOM      4  C   UNL     1       2.219   6.846  19.602  0.00  0.00    +0.000 A 
ATOM      5  C   UNL     1       1.620   7.456  20.726  0.00  0.00    +0.000 A 
ATOM      6  C   UNL     1       1.080   8.751  20.685  0.00  0.00    +0.000 A 
ATOM      7  F   UNL     1       0.456   9.195  21.790  0.00  0.00    +0.000 F 
ENDROOT
BRANCH   1  12
ATOM      8  N   UNL     1      -1.092  14.677  19.311  0.00  0.00    +0.000 N 
ATOM      9  C   UNL     1      -0.553  13.392  19.314  0.00  0.00    +0.000 A 
ATOM     10  C   UNL     1       0.819  13.162  19.295  0.00  0.00    +0.000 A 
ATOM     11  N   UNL     1       1.375  11.924  19.358  0.00  0.00    +0.000 NA
ATOM     12  C   UNL     1       0.515  10.875  19.441  0.00  0.00    +0.000 A 
ATOM     13  C   UNL     1      -0.861  11.120  19.443  0.00  0.00    +0.000 A 
ATOM     14  N   UNL     1      -1.412  12.365  19.388  0.00  0.00    +0.000 NA
ATOM     15  H   UNL     1      -0.752  15.238  18.541  0.00  0.00    +0.000 HD
ATOM     16  H   UNL     1      -2.105  14.581  19.296  0.00  0.00    +0.000 HD
ENDBRANCH   1  12
BRANCH   4  17
ATOM     17  C   UNL     1       2.603   5.397  19.639  0.00  0.00    +0.000 A 
ATOM     18  C   UNL     1       2.283   4.674  20.822  0.00  0.00    +0.000 A 
ATOM     19  C   UNL     1       2.614   3.330  21.017  0.00  0.00    +0.000 A 
ATOM     20  C   UNL     1       3.306   2.652  20.034  0.00  0.00    +0.000 A 
ATOM     21  C   UNL     1       3.632   3.312  18.855  0.00  0.00    +0.000 A 
ATOM     22  C   UNL     1       3.233   4.649  18.612  0.00  0.00    +0.000 A 
BRANCH  22  23
ATOM     23  O   UNL     1       3.518   5.210  17.369  0.00  0.00    +0.000 OA
BRANCH  23  24
ATOM     24  C   UNL     1       4.828   5.045  16.887  0.00  0.00    +0.000 A 
ATOM     25  C   UNL     1       4.993   4.542  15.612  0.00  0.00    +0.000 A 
ATOM     26  C   UNL     1       6.299   4.384  15.158  0.00  0.00    +0.000 A 
ATOM     27  N   UNL     1       7.347   4.769  15.922  0.00  0.00    +0.000 NA
ATOM     28  C   UNL     1       7.077   5.238  17.146  0.00  0.00    +0.000 A 
ATOM     29  N   UNL     1       5.864   5.361  17.689  0.00  0.00    +0.000 NA
BRANCH  26  30
ATOM     30  C   UNL     1       6.616   3.651  13.871  0.00  0.00    +0.000 C 
ATOM     31  C   UNL     1       5.656   3.578  12.711  0.00  0.00    +0.000 C 
ATOM     32  C   UNL     1       6.891   4.419  12.595  0.00  0.00    +0.000 C 
ENDBRANCH  26  30
ENDBRANCH  23  24
ENDBRANCH  22  23
ENDBRANCH   4  17
TORSDOF 5
ENDMDL
