MODEL 1
REMARK VINA RESULT:      -8.3      0.000      0.000
REMARK  Name = 
REMARK  3 active torsions:
REMARK  status: ('A' for Active; 'I' for Inactive)
REMARK    1  A    between atoms: N_5  and  C_6
REMARK    2  A    between atoms: C_14  and  C_15
REMARK    3  A    between atoms: C_18  and  C_19
REMARK                            x       y       z     vdW  Elec       q    Type
REMARK                         _______ _______ _______ _____ _____    ______ ____
ROOT
ATOM      1  N   UNL     1      -0.597   9.266  23.300  0.00  0.00    +0.000 N 
ATOM      2  C   UNL     1       0.018   9.248  22.064  0.00  0.00    +0.000 A 
ATOM      3  N   UNL     1      -0.151  10.326  21.287  0.00  0.00    +0.000 NA
ATOM      4  C   UNL     1       0.433  10.381  20.066  0.00  0.00    +0.000 A 
ATOM      5  N   UNL     1       0.262  11.484  19.224  0.00  0.00    +0.000 N 
ATOM      6  C   UNL     1       1.196   9.274  19.682  0.00  0.00    +0.000 A 
ATOM      7  S   UNL     1       2.096   9.018  18.247  0.00  0.00    +0.000 S 
ATOM      8  C   UNL     1       2.583   7.440  18.719  0.00  0.00    +0.000 A 
ATOM      9  C   UNL     1       2.087   7.138  19.975  0.00  0.00    +0.000 A 
ATOM     10  C   UNL     1       1.296   8.187  20.534  0.00  0.00    +0.000 A 
ATOM     11  N   UNL     1       0.698   8.151  21.746  0.00  0.00    +0.000 NA
ATOM     12  H   UNL     1      -1.387   9.894  23.282  0.00  0.00    +0.000 HD
ATOM     13  H   UNL     1      -0.761   8.319  23.618  0.00  0.00    +0.000 HD
ATOM     14  H   UNL     1       0.930  11.506  18.460  0.00  0.00    +0.000 HD
ENDROOT
BRANCH   5  15
ATOM     15  C   UNL     1      -0.052  12.771  19.845  0.00  0.00    +0.000 C 
ATOM     16  C   UNL     1      -0.097  13.876  18.778  0.00  0.00    +0.000 C 
ATOM     17  C   UNL     1       1.247  14.539  18.494  0.00  0.00    +0.000 C 
ATOM     18  N   UNL     1       1.913  14.960  19.723  0.00  0.00    +0.000 NA
ATOM     19  C   UNL     1       2.196  13.795  20.556  0.00  0.00    +0.000 C 
ATOM     20  C   UNL     1       0.920  13.083  20.993  0.00  0.00    +0.000 C 
ATOM     21  H   UNL     1       1.313  15.609  20.233  0.00  0.00    +0.000 HD
ENDBRANCH   5  15
BRANCH   8  22
ATOM     22  C   UNL     1       3.427   6.622  17.831  0.00  0.00    +0.000 A 
ATOM     23  C   UNL     1       4.344   7.229  16.961  0.00  0.00    +0.000 A 
ATOM     24  C   UNL     1       5.165   6.462  16.126  0.00  0.00    +0.000 A 
ATOM     25  C   UNL     1       5.091   5.063  16.141  0.00  0.00    +0.000 A 
ATOM     26  C   UNL     1       4.174   4.451  17.003  0.00  0.00    +0.000 A 
ATOM     27  C   UNL     1       3.359   5.219  17.839  0.00  0.00    +0.000 A 
BRANCH  25  28
ATOM     28  C   UNL     1       5.980   4.215  15.266  0.00  0.00    +0.000 C 
ATOM     29  F   UNL     1       7.298   4.546  15.342  0.00  0.00    +0.000 F 
ATOM     30  F   UNL     1       5.908   2.893  15.586  0.00  0.00    +0.000 F 
ATOM     31  F   UNL     1       5.647   4.299  13.948  0.00  0.00    +0.000 F 
ENDBRANCH  25  28
ENDBRANCH   8  22
TORSDOF 3
ENDMDL
MODEL 2
REMARK VINA RESULT:      -8.3      0.082      1.169
REMARK  Name = 
REMARK  3 active torsions:
REMARK  status: ('A' for Active; 'I' for Inactive)
REMARK    1  A    between atoms: N_5  and  C_6
REMARK    2  A    between atoms: C_14  and  C_15
REMARK    3  A    between atoms: C_18  and  C_19
REMARK                            x       y       z     vdW  Elec       q    Type
REMARK                         _______ _______ _______ _____ _____    ______ ____
ROOT
ATOM      1  N   UNL     1      -0.668   9.311  23.266  0.00  0.00    +0.000 N 
ATOM      2  C   UNL     1      -0.035   9.282  22.039  0.00  0.00    +0.000 A 
ATOM      3  N   UNL     1      -0.188  10.356  21.253  0.00  0.00    +0.000 NA
ATOM      4  C   UNL     1       0.415  10.400  20.041  0.00  0.00    +0.000 A 
ATOM      5  N   UNL     1       0.262  11.498  19.189  0.00  0.00    +0.000 N 
ATOM      6  C   UNL     1       1.180   9.288  19.676  0.00  0.00    +0.000 A 
ATOM      7  S   UNL     1       2.102   9.018  18.257  0.00  0.00    +0.000 S 
ATOM      8  C   UNL     1       2.575   7.442  18.747  0.00  0.00    +0.000 A 
ATOM      9  C   UNL     1       2.058   7.150  19.997  0.00  0.00    +0.000 A 
ATOM     10  C   UNL     1       1.263   8.206  20.537  0.00  0.00    +0.000 A 
ATOM     11  N   UNL     1       0.645   8.181  21.739  0.00  0.00    +0.000 NA
ATOM     12  H   UNL     1      -1.456   9.941  23.231  0.00  0.00    +0.000 HD
ATOM     13  H   UNL     1      -0.842   8.367  23.587  0.00  0.00    +0.000 HD
ATOM     14  H   UNL     1       0.942  11.512  18.435  0.00  0.00    +0.000 HD
ENDROOT
BRANCH   5  15
ATOM     15  C   UNL     1      -0.057  12.790  19.796  0.00  0.00    +0.000 C 
ATOM     16  C   UNL     1      -0.013  13.900  18.733  0.00  0.00    +0.000 C 
ATOM     17  C   UNL     1       1.361  14.530  18.530  0.00  0.00    +0.000 C 
ATOM     18  N   UNL     1       1.964  14.932  19.798  0.00  0.00    +0.000 NA
ATOM     19  C   UNL     1       2.170  13.757  20.641  0.00  0.00    +0.000 C 
ATOM     20  C   UNL     1       0.854  13.075  21.000  0.00  0.00    +0.000 C 
ATOM     21  H   UNL     1       1.352  15.593  20.276  0.00  0.00    +0.000 HD
ENDBRANCH   5  15
BRANCH   8  22
ATOM     22  C   UNL     1       3.430   6.615  17.878  0.00  0.00    +0.000 A 
ATOM     23  C   UNL     1       3.305   5.219  17.874  0.00  0.00    +0.000 A 
ATOM     24  C   UNL     1       4.098   4.425  17.038  0.00  0.00    +0.000 A 
ATOM     25  C   UNL     1       5.040   5.008  16.181  0.00  0.00    +0.000 A 
ATOM     26  C   UNL     1       5.175   6.402  16.184  0.00  0.00    +0.000 A 
ATOM     27  C   UNL     1       4.378   7.193  17.016  0.00  0.00    +0.000 A 
BRANCH  25  28
ATOM     28  C   UNL     1       5.892   4.175  15.257  0.00  0.00    +0.000 C 
ATOM     29  F   UNL     1       5.912   2.852  15.576  0.00  0.00    +0.000 F 
ATOM     30  F   UNL     1       5.467   4.240  13.964  0.00  0.00    +0.000 F 
ATOM     31  F   UNL     1       7.193   4.576  15.242  0.00  0.00    +0.000 F 
ENDBRANCH  25  28
ENDBRANCH   8  22
TORSDOF 3
ENDMDL
MODEL 3
REMARK VINA RESULT:      -7.6      3.206      5.023
REMARK  Name = 
REMARK  3 active torsions:
REMARK  status: ('A' for Active; 'I' for Inactive)
REMARK    1  A    between atoms: N_5  and  C_6
REMARK    2  A    between atoms: C_14  and  C_15
REMARK    3  A    between atoms: C_18  and  C_19
REMARK                            x       y       z     vdW  Elec       q    Type
REMARK                         _______ _______ _______ _____ _____    ______ ____
ROOT
ATOM      1  N   UNL     1      -0.454  15.595  18.542  0.00  0.00    +0.000 N 
ATOM      2  C   UNL     1      -0.389  14.345  19.125  0.00  0.00    +0.000 A 
ATOM      3  N   UNL     1      -1.100  14.160  20.244  0.00  0.00    +0.000 NA
ATOM      4  C   UNL     1      -1.092  12.955  20.862  0.00  0.00    +0.000 A 
ATOM      5  N   UNL     1      -1.810  12.734  22.041  0.00  0.00    +0.000 N 
ATOM      6  C   UNL     1      -0.316  11.950  20.276  0.00  0.00    +0.000 A 
ATOM      7  S   UNL     1      -0.104  10.319  20.754  0.00  0.00    +0.000 S 
ATOM      8  C   UNL     1       0.999   9.988  19.481  0.00  0.00    +0.000 A 
ATOM      9  C   UNL     1       1.169  11.108  18.685  0.00  0.00    +0.000 A 
ATOM     10  C   UNL     1       0.414  12.233  19.132  0.00  0.00    +0.000 A 
ATOM     11  N   UNL     1       0.396  13.447  18.537  0.00  0.00    +0.000 NA
ATOM     12  H   UNL     1      -0.699  16.285  19.236  0.00  0.00    +0.000 HD
ATOM     13  H   UNL     1       0.379  15.763  17.992  0.00  0.00    +0.000 HD
ATOM     14  H   UNL     1      -1.912  11.749  22.264  0.00  0.00    +0.000 HD
ENDROOT
BRANCH   5  15
ATOM     15  C   UNL     1      -2.978  13.579  22.294  0.00  0.00    +0.000 C 
ATOM     16  C   UNL     1      -2.580  14.784  23.161  0.00  0.00    +0.000 C 
ATOM     17  C   UNL     1      -2.651  14.536  24.664  0.00  0.00    +0.000 C 
ATOM     18  N   UNL     1      -3.930  13.949  25.056  0.00  0.00    +0.000 NA
ATOM     19  C   UNL     1      -4.092  12.647  24.415  0.00  0.00    +0.000 C 
ATOM     20  C   UNL     1      -4.131  12.761  22.895  0.00  0.00    +0.000 C 
ATOM     21  H   UNL     1      -4.692  14.567  24.776  0.00  0.00    +0.000 HD
ENDBRANCH   5  15
BRANCH   8  22
ATOM     22  C   UNL     1       1.604   8.651  19.346  0.00  0.00    +0.000 A 
ATOM     23  C   UNL     1       1.588   7.750  20.419  0.00  0.00    +0.000 A 
ATOM     24  C   UNL     1       2.142   6.470  20.297  0.00  0.00    +0.000 A 
ATOM     25  C   UNL     1       2.729   6.058  19.094  0.00  0.00    +0.000 A 
ATOM     26  C   UNL     1       2.755   6.955  18.020  0.00  0.00    +0.000 A 
ATOM     27  C   UNL     1       2.196   8.230  18.143  0.00  0.00    +0.000 A 
BRANCH  25  28
ATOM     28  C   UNL     1       3.315   4.677  18.932  0.00  0.00    +0.000 C 
ATOM     29  F   UNL     1       3.555   4.333  17.637  0.00  0.00    +0.000 F 
ATOM     30  F   UNL     1       4.505   4.543  19.581  0.00  0.00    +0.000 F 
ATOM     31  F   UNL     1       2.504   3.705  19.434  0.00  0.00    +0.000 F 
ENDBRANCH  25  28
ENDBRANCH   8  22
TORSDOF 3
ENDMDL
MODEL 4
REMARK VINA RESULT:      -7.6      0.783      1.061
REMARK  Name = 
REMARK  3 active torsions:
REMARK  status: ('A' for Active; 'I' for Inactive)
REMARK    1  A    between atoms: N_5  and  C_6
REMARK    2  A    between atoms: C_14  and  C_15
REMARK    3  A    between atoms: C_18  and  C_19
REMARK                            x       y       z     vdW  Elec       q    Type
REMARK                         _______ _______ _______ _____ _____    ______ ____
ROOT
ATOM      1  N   UNL     1      -1.126  10.155  23.422  0.00  0.00    +0.000 N 
ATOM      2  C   UNL     1      -0.431  10.052  22.233  0.00  0.00    +0.000 A 
ATOM      3  N   UNL     1      -0.437  11.124  21.431  0.00  0.00    +0.000 NA
ATOM      4  C   UNL     1       0.234  11.096  20.255  0.00  0.00    +0.000 A 
ATOM      5  N   UNL     1       0.234  12.192  19.388  0.00  0.00    +0.000 N 
ATOM      6  C   UNL     1       0.909   9.912  19.942  0.00  0.00    +0.000 A 
ATOM      7  S   UNL     1       1.878   9.538  18.580  0.00  0.00    +0.000 S 
ATOM      8  C   UNL     1       2.171   7.931  19.108  0.00  0.00    +0.000 A 
ATOM      9  C   UNL     1       1.560   7.705  20.329  0.00  0.00    +0.000 A 
ATOM     10  C   UNL     1       0.840   8.838  20.815  0.00  0.00    +0.000 A 
ATOM     11  N   UNL     1       0.157   8.887  21.980  0.00  0.00    +0.000 NA
ATOM     12  H   UNL     1      -1.847  10.857  23.337  0.00  0.00    +0.000 HD
ATOM     13  H   UNL     1      -1.406   9.236  23.739  0.00  0.00    +0.000 HD
ATOM     14  H   UNL     1       0.953  12.133  18.674  0.00  0.00    +0.000 HD
ENDROOT
BRANCH   5  15
ATOM     15  C   UNL     1       0.006  13.517  19.967  0.00  0.00    +0.000 C 
ATOM     16  C   UNL     1      -0.039  14.579  18.856  0.00  0.00    +0.000 C 
ATOM     17  C   UNL     1       1.319  15.166  18.485  0.00  0.00    +0.000 C 
ATOM     18  N   UNL     1       2.059  15.606  19.664  0.00  0.00    +0.000 NA
ATOM     19  C   UNL     1       2.328  14.463  20.533  0.00  0.00    +0.000 C 
ATOM     20  C   UNL     1       1.043  13.830  21.056  0.00  0.00    +0.000 C 
ATOM     21  H   UNL     1       1.513  16.302  20.173  0.00  0.00    +0.000 HD
ENDBRANCH   5  15
BRANCH   8  22
ATOM     22  C   UNL     1       2.991   7.016  18.294  0.00  0.00    +0.000 A 
ATOM     23  C   UNL     1       3.936   7.519  17.390  0.00  0.00    +0.000 A 
ATOM     24  C   UNL     1       4.734   6.660  16.625  0.00  0.00    +0.000 A 
ATOM     25  C   UNL     1       4.607   5.270  16.748  0.00  0.00    +0.000 A 
ATOM     26  C   UNL     1       3.661   4.760  17.645  0.00  0.00    +0.000 A 
ATOM     27  C   UNL     1       2.870   5.621  18.410  0.00  0.00    +0.000 A 
BRANCH  25  28
ATOM     28  C   UNL     1       5.470   4.324  15.951  0.00  0.00    +0.000 C 
ATOM     29  F   UNL     1       5.309   4.440  14.604  0.00  0.00    +0.000 F 
ATOM     30  F   UNL     1       6.798   4.514  16.186  0.00  0.00    +0.000 F 
ATOM     31  F   UNL     1       5.223   3.018  16.246  0.00  0.00    +0.000 F 
ENDBRANCH  25  28
ENDBRANCH   8  22
TORSDOF 3
ENDMDL
MODEL 5
REMARK VINA RESULT:      -7.6      0.896      1.772
REMARK  Name = 
REMARK  3 active torsions:
REMARK  status: ('A' for Active; 'I' for Inactive)
REMARK    1  A    between atoms: N_5  and  C_6
REMARK    2  A    between atoms: C_14  and  C_15
REMARK    3  A    between atoms: C_18  and  C_19
REMARK                            x       y       z     vdW  Elec       q    Type
REMARK                         _______ _______ _______ _____ _____    ______ ____
ROOT
ATOM      1  N   UNL     1      -0.588   8.950  23.338  0.00  0.00    +0.000 N 
ATOM      2  C   UNL     1       0.103   9.013  22.144  0.00  0.00    +0.000 A 
ATOM      3  N   UNL     1       0.100  10.188  21.502  0.00  0.00    +0.000 NA
ATOM      4  C   UNL     1       0.768  10.324  20.332  0.00  0.00    +0.000 A 
ATOM      5  N   UNL     1       0.770  11.532  19.628  0.00  0.00    +0.000 N 
ATOM      6  C   UNL     1       1.436   9.194  19.852  0.00  0.00    +0.000 A 
ATOM      7  S   UNL     1       2.400   9.012  18.448  0.00  0.00    +0.000 S 
ATOM      8  C   UNL     1       2.687   7.345  18.741  0.00  0.00    +0.000 A 
ATOM      9  C   UNL     1       2.078   6.951  19.920  0.00  0.00    +0.000 A 
ATOM     10  C   UNL     1       1.365   8.007  20.564  0.00  0.00    +0.000 A 
ATOM     11  N   UNL     1       0.685   7.893  21.727  0.00  0.00    +0.000 NA
ATOM     12  H   UNL     1      -1.306   9.660  23.356  0.00  0.00    +0.000 HD
ATOM     13  H   UNL     1      -0.872   7.997  23.523  0.00  0.00    +0.000 HD
ATOM     14  H   UNL     1       1.487  11.571  18.911  0.00  0.00    +0.000 HD
ENDROOT
BRANCH   5  15
ATOM     15  C   UNL     1       0.550  12.762  20.390  0.00  0.00    +0.000 C 
ATOM     16  C   UNL     1      -0.903  12.823  20.888  0.00  0.00    +0.000 C 
ATOM     17  C   UNL     1      -1.884  13.459  19.908  0.00  0.00    +0.000 C 
ATOM     18  N   UNL     1      -1.397  14.744  19.414  0.00  0.00    +0.000 NA
ATOM     19  C   UNL     1      -0.150  14.550  18.680  0.00  0.00    +0.000 C 
ATOM     20  C   UNL     1       0.958  13.998  19.573  0.00  0.00    +0.000 C 
ATOM     21  H   UNL     1      -1.239  15.377  20.198  0.00  0.00    +0.000 HD
ENDBRANCH   5  15
BRANCH   8  22
ATOM     22  C   UNL     1       3.500   6.551  17.804  0.00  0.00    +0.000 A 
ATOM     23  C   UNL     1       3.399   5.153  17.780  0.00  0.00    +0.000 A 
ATOM     24  C   UNL     1       4.153   4.389  16.881  0.00  0.00    +0.000 A 
ATOM     25  C   UNL     1       5.028   5.007  15.978  0.00  0.00    +0.000 A 
ATOM     26  C   UNL     1       5.138   6.402  16.000  0.00  0.00    +0.000 A 
ATOM     27  C   UNL     1       4.381   7.162  16.896  0.00  0.00    +0.000 A 
BRANCH  25  28
ATOM     28  C   UNL     1       5.834   4.207  14.986  0.00  0.00    +0.000 C 
ATOM     29  F   UNL     1       5.226   4.060  13.777  0.00  0.00    +0.000 F 
ATOM     30  F   UNL     1       7.045   4.775  14.728  0.00  0.00    +0.000 F 
ATOM     31  F   UNL     1       6.101   2.946  15.426  0.00  0.00    +0.000 F 
ENDBRANCH  25  28
ENDBRANCH   8  22
TORSDOF 3
ENDMDL
MODEL 6
REMARK VINA RESULT:      -7.6      3.202      4.935
REMARK  Name = 
REMARK  3 active torsions:
REMARK  status: ('A' for Active; 'I' for Inactive)
REMARK    1  A    between atoms: N_5  and  C_6
REMARK    2  A    between atoms: C_14  and  C_15
REMARK    3  A    between atoms: C_18  and  C_19
REMARK                            x       y       z     vdW  Elec       q    Type
REMARK                         _______ _______ _______ _____ _____    ______ ____
ROOT
ATOM      1  N   UNL     1      -0.411  15.435  18.503  0.00  0.00    +0.000 N 
ATOM      2  C   UNL     1      -0.355  14.195  19.109  0.00  0.00    +0.000 A 
ATOM      3  N   UNL     1      -1.079  14.032  20.223  0.00  0.00    +0.000 NA
ATOM      4  C   UNL     1      -1.080  12.838  20.863  0.00  0.00    +0.000 A 
ATOM      5  N   UNL     1      -1.812  12.639  22.038  0.00  0.00    +0.000 N 
ATOM      6  C   UNL     1      -0.298  11.822  20.305  0.00  0.00    +0.000 A 
ATOM      7  S   UNL     1      -0.094  10.200  20.814  0.00  0.00    +0.000 S 
ATOM      8  C   UNL     1       1.023   9.844  19.560  0.00  0.00    +0.000 A 
ATOM      9  C   UNL     1       1.204  10.949  18.747  0.00  0.00    +0.000 A 
ATOM     10  C   UNL     1       0.445  12.083  19.165  0.00  0.00    +0.000 A 
ATOM     11  N   UNL     1       0.436  13.286  18.547  0.00  0.00    +0.000 NA
ATOM     12  H   UNL     1      -0.663  16.138  19.182  0.00  0.00    +0.000 HD
ATOM     13  H   UNL     1       0.428  15.592  17.960  0.00  0.00    +0.000 HD
ATOM     14  H   UNL     1      -1.918  11.659  22.277  0.00  0.00    +0.000 HD
ENDROOT
BRANCH   5  15
ATOM     15  C   UNL     1      -2.981  13.490  22.262  0.00  0.00    +0.000 C 
ATOM     16  C   UNL     1      -2.583  14.733  23.074  0.00  0.00    +0.000 C 
ATOM     17  C   UNL     1      -2.645  14.548  24.587  0.00  0.00    +0.000 C 
ATOM     18  N   UNL     1      -3.919  13.974  25.011  0.00  0.00    +0.000 NA
ATOM     19  C   UNL     1      -4.080  12.646  24.427  0.00  0.00    +0.000 C 
ATOM     20  C   UNL     1      -4.128  12.694  22.903  0.00  0.00    +0.000 C 
ATOM     21  H   UNL     1      -4.685  14.577  24.709  0.00  0.00    +0.000 HD
ENDBRANCH   5  15
BRANCH   8  22
ATOM     22  C   UNL     1       1.628   8.505  19.457  0.00  0.00    +0.000 A 
ATOM     23  C   UNL     1       2.297   8.112  18.290  0.00  0.00    +0.000 A 
ATOM     24  C   UNL     1       2.892   6.849  18.187  0.00  0.00    +0.000 A 
ATOM     25  C   UNL     1       2.834   5.944  19.255  0.00  0.00    +0.000 A 
ATOM     26  C   UNL     1       2.162   6.327  20.421  0.00  0.00    +0.000 A 
ATOM     27  C   UNL     1       1.574   7.590  20.522  0.00  0.00    +0.000 A 
BRANCH  25  28
ATOM     28  C   UNL     1       3.485   4.585  19.175  0.00  0.00    +0.000 C 
ATOM     29  F   UNL     1       3.155   3.760  20.206  0.00  0.00    +0.000 F 
ATOM     30  F   UNL     1       3.147   3.917  18.038  0.00  0.00    +0.000 F 
ATOM     31  F   UNL     1       4.845   4.658  19.174  0.00  0.00    +0.000 F 
ENDBRANCH  25  28
ENDBRANCH   8  22
TORSDOF 3
ENDMDL
MODEL 7
REMARK VINA RESULT:      -7.6      5.551      8.933
REMARK  Name = 
REMARK  3 active torsions:
REMARK  status: ('A' for Active; 'I' for Inactive)
REMARK    1  A    between atoms: N_5  and  C_6
REMARK    2  A    between atoms: C_14  and  C_15
REMARK    3  A    between atoms: C_18  and  C_19
REMARK                            x       y       z     vdW  Elec       q    Type
REMARK                         _______ _______ _______ _____ _____    ______ ____
ROOT
ATOM      1  N   UNL     1       4.817   2.069  20.129  0.00  0.00    +0.000 N 
ATOM      2  C   UNL     1       4.580   3.308  19.566  0.00  0.00    +0.000 A 
ATOM      3  N   UNL     1       5.386   3.682  18.564  0.00  0.00    +0.000 NA
ATOM      4  C   UNL     1       5.203   4.879  17.957  0.00  0.00    +0.000 A 
ATOM      5  N   UNL     1       6.037   5.307  16.920  0.00  0.00    +0.000 N 
ATOM      6  C   UNL     1       4.154   5.673  18.432  0.00  0.00    +0.000 A 
ATOM      7  S   UNL     1       3.614   7.204  17.886  0.00  0.00    +0.000 S 
ATOM      8  C   UNL     1       2.390   7.309  19.085  0.00  0.00    +0.000 A 
ATOM      9  C   UNL     1       2.381   6.166  19.866  0.00  0.00    +0.000 A 
ATOM     10  C   UNL     1       3.385   5.223  19.493  0.00  0.00    +0.000 A 
ATOM     11  N   UNL     1       3.591   4.027  20.088  0.00  0.00    +0.000 NA
ATOM     12  H   UNL     1       5.779   1.803  19.981  0.00  0.00    +0.000 HD
ATOM     13  H   UNL     1       4.470   2.050  21.080  0.00  0.00    +0.000 HD
ATOM     14  H   UNL     1       5.655   6.093  16.404  0.00  0.00    +0.000 HD
ENDROOT
BRANCH   5  15
ATOM     15  C   UNL     1       6.717   4.282  16.128  0.00  0.00    +0.000 C 
ATOM     16  C   UNL     1       7.808   4.925  15.256  0.00  0.00    +0.000 C 
ATOM     17  C   UNL     1       7.326   5.411  13.893  0.00  0.00    +0.000 C 
ATOM     18  N   UNL     1       6.566   4.381  13.189  0.00  0.00    +0.000 NA
ATOM     19  C   UNL     1       5.369   4.042  13.953  0.00  0.00    +0.000 C 
ATOM     20  C   UNL     1       5.711   3.452  15.317  0.00  0.00    +0.000 C 
ATOM     21  H   UNL     1       7.145   3.549  13.070  0.00  0.00    +0.000 HD
ENDBRANCH   5  15
BRANCH   8  22
ATOM     22  C   UNL     1       1.520   8.495  19.163  0.00  0.00    +0.000 A 
ATOM     23  C   UNL     1       1.187   9.212  18.005  0.00  0.00    +0.000 A 
ATOM     24  C   UNL     1       0.346  10.330  18.064  0.00  0.00    +0.000 A 
ATOM     25  C   UNL     1      -0.186  10.759  19.286  0.00  0.00    +0.000 A 
ATOM     26  C   UNL     1       0.147  10.052  20.447  0.00  0.00    +0.000 A 
ATOM     27  C   UNL     1       0.983   8.934  20.385  0.00  0.00    +0.000 A 
BRANCH  25  28
ATOM     28  C   UNL     1      -1.111  11.948  19.372  0.00  0.00    +0.000 C 
ATOM     29  F   UNL     1      -2.427  11.612  19.454  0.00  0.00    +0.000 F 
ATOM     30  F   UNL     1      -0.854  12.724  20.461  0.00  0.00    +0.000 F 
ATOM     31  F   UNL     1      -1.001  12.772  18.293  0.00  0.00    +0.000 F 
ENDBRANCH  25  28
ENDBRANCH   8  22
TORSDOF 3
ENDMDL
MODEL 8
REMARK VINA RESULT:      -7.6      5.418      8.826
REMARK  Name = 
REMARK  3 active torsions:
REMARK  status: ('A' for Active; 'I' for Inactive)
REMARK    1  A    between atoms: N_5  and  C_6
REMARK    2  A    between atoms: C_14  and  C_15
REMARK    3  A    between atoms: C_18  and  C_19
REMARK                            x       y       z     vdW  Elec       q    Type
REMARK                         _______ _______ _______ _____ _____    ______ ____
ROOT
ATOM      1  N   UNL     1       2.927   2.550  21.147  0.00  0.00    +0.000 N 
ATOM      2  C   UNL     1       2.967   3.791  20.542  0.00  0.00    +0.000 A 
ATOM      3  N   UNL     1       3.917   3.986  19.619  0.00  0.00    +0.000 NA
ATOM      4  C   UNL     1       4.006   5.175  18.977  0.00  0.00    +0.000 A 
ATOM      5  N   UNL     1       4.997   5.416  18.021  0.00  0.00    +0.000 N 
ATOM      6  C   UNL     1       3.073   6.154  19.331  0.00  0.00    +0.000 A 
ATOM      7  S   UNL     1       2.866   7.736  18.708  0.00  0.00    +0.000 S 
ATOM      8  C   UNL     1       1.571   8.093  19.778  0.00  0.00    +0.000 A 
ATOM      9  C   UNL     1       1.286   6.996  20.573  0.00  0.00    +0.000 A 
ATOM     10  C   UNL     1       2.140   5.881  20.318  0.00  0.00    +0.000 A 
ATOM     11  N   UNL     1       2.075   4.688  20.951  0.00  0.00    +0.000 NA
ATOM     12  H   UNL     1       3.837   2.117  21.100  0.00  0.00    +0.000 HD
ATOM     13  H   UNL     1       2.493   2.625  22.058  0.00  0.00    +0.000 HD
ATOM     14  H   UNL     1       4.810   6.238  17.456  0.00  0.00    +0.000 HD
ENDROOT
BRANCH   5  15
ATOM     15  C   UNL     1       5.559   4.262  17.318  0.00  0.00    +0.000 C 
ATOM     16  C   UNL     1       7.072   4.450  17.118  0.00  0.00    +0.000 C 
ATOM     17  C   UNL     1       7.456   5.194  15.843  0.00  0.00    +0.000 C 
ATOM     18  N   UNL     1       6.790   4.634  14.669  0.00  0.00    +0.000 NA
ATOM     19  C   UNL     1       5.344   4.775  14.808  0.00  0.00    +0.000 C 
ATOM     20  C   UNL     1       4.807   3.996  16.005  0.00  0.00    +0.000 C 
ATOM     21  H   UNL     1       7.032   3.648  14.575  0.00  0.00    +0.000 HD
ENDBRANCH   5  15
BRANCH   8  22
ATOM     22  C   UNL     1       0.920   9.414  19.748  0.00  0.00    +0.000 A 
ATOM     23  C   UNL     1      -0.076   9.739  20.680  0.00  0.00    +0.000 A 
ATOM     24  C   UNL     1      -0.688  10.998  20.673  0.00  0.00    +0.000 A 
ATOM     25  C   UNL     1      -0.317  11.968  19.733  0.00  0.00    +0.000 A 
ATOM     26  C   UNL     1       0.673  11.648  18.796  0.00  0.00    +0.000 A 
ATOM     27  C   UNL     1       1.285  10.392  18.808  0.00  0.00    +0.000 A 
BRANCH  25  28
ATOM     28  C   UNL     1      -0.947  13.338  19.719  0.00  0.00    +0.000 C 
ATOM     29  F   UNL     1      -0.463  14.173  20.679  0.00  0.00    +0.000 F 
ATOM     30  F   UNL     1      -0.757  13.982  18.534  0.00  0.00    +0.000 F 
ATOM     31  F   UNL     1      -2.296  13.294  19.907  0.00  0.00    +0.000 F 
ENDBRANCH  25  28
ENDBRANCH   8  22
TORSDOF 3
ENDMDL
MODEL 9
REMARK VINA RESULT:      -7.5      5.886      8.988
REMARK  Name = 
REMARK  3 active torsions:
REMARK  status: ('A' for Active; 'I' for Inactive)
REMARK    1  A    between atoms: N_5  and  C_6
REMARK    2  A    between atoms: C_14  and  C_15
REMARK    3  A    between atoms: C_18  and  C_19
REMARK                            x       y       z     vdW  Elec       q    Type
REMARK                         _______ _______ _______ _____ _____    ______ ____
ROOT
ATOM      1  N   UNL     1       1.937   1.403  19.182  0.00  0.00    +0.000 N 
ATOM      2  C   UNL     1       2.213   2.751  19.298  0.00  0.00    +0.000 A 
ATOM      3  N   UNL     1       3.398   3.170  18.836  0.00  0.00    +0.000 NA
ATOM      4  C   UNL     1       3.730   4.481  18.907  0.00  0.00    +0.000 A 
ATOM      5  N   UNL     1       4.965   4.948  18.449  0.00  0.00    +0.000 N 
ATOM      6  C   UNL     1       2.785   5.340  19.477  0.00  0.00    +0.000 A 
ATOM      7  S   UNL     1       2.847   7.039  19.690  0.00  0.00    +0.000 S 
ATOM      8  C   UNL     1       1.319   7.094  20.470  0.00  0.00    +0.000 A 
ATOM      9  C   UNL     1       0.761   5.829  20.529  0.00  0.00    +0.000 A 
ATOM     10  C   UNL     1       1.594   4.821  19.957  0.00  0.00    +0.000 A 
ATOM     11  N   UNL     1       1.288   3.506  19.882  0.00  0.00    +0.000 NA
ATOM     12  H   UNL     1       2.799   0.879  19.135  0.00  0.00    +0.000 HD
ATOM     13  H   UNL     1       1.263   1.127  19.885  0.00  0.00    +0.000 HD
ATOM     14  H   UNL     1       4.992   5.956  18.340  0.00  0.00    +0.000 HD
ENDROOT
BRANCH   5  15
ATOM     15  C   UNL     1       5.647   4.167  17.416  0.00  0.00    +0.000 C 
ATOM     16  C   UNL     1       7.127   4.574  17.336  0.00  0.00    +0.000 C 
ATOM     17  C   UNL     1       7.414   5.742  16.397  0.00  0.00    +0.000 C 
ATOM     18  N   UNL     1       6.805   5.543  15.085  0.00  0.00    +0.000 NA
ATOM     19  C   UNL     1       5.353   5.470  15.220  0.00  0.00    +0.000 C 
ATOM     20  C   UNL     1       4.918   4.279  16.068  0.00  0.00    +0.000 C 
ATOM     21  H   UNL     1       7.155   4.678  14.671  0.00  0.00    +0.000 HD
ENDBRANCH   5  15
BRANCH   8  22
ATOM     22  C   UNL     1       0.772   8.375  20.951  0.00  0.00    +0.000 A 
ATOM     23  C   UNL     1       0.837   9.524  20.150  0.00  0.00    +0.000 A 
ATOM     24  C   UNL     1       0.304  10.742  20.589  0.00  0.00    +0.000 A 
ATOM     25  C   UNL     1      -0.310  10.842  21.844  0.00  0.00    +0.000 A 
ATOM     26  C   UNL     1      -0.373   9.700  22.652  0.00  0.00    +0.000 A 
ATOM     27  C   UNL     1       0.156   8.485  22.209  0.00  0.00    +0.000 A 
BRANCH  25  28
ATOM     28  C   UNL     1      -0.910  12.138  22.330  0.00  0.00    +0.000 C 
ATOM     29  F   UNL     1      -1.916  12.604  21.542  0.00  0.00    +0.000 F 
ATOM     30  F   UNL     1      -1.437  12.025  23.581  0.00  0.00    +0.000 F 
ATOM     31  F   UNL     1       0.007  13.142  22.401  0.00  0.00    +0.000 F 
ENDBRANCH  25  28
ENDBRANCH   8  22
TORSDOF 3
ENDMDL
