MODEL 1
REMARK VINA RESULT:      -8.3      0.000      0.000
REMARK  Name = 
REMARK  6 active torsions:
REMARK  status: ('A' for Active; 'I' for Inactive)
REMARK    1  A    between atoms: C_1  and  C_2
REMARK    2  A    between atoms: N_4  and  C_5
REMARK    3  A    between atoms: C_5  and  C_6
REMARK    4  A    between atoms: C_8  and  N_9
REMARK    5  A    between atoms: C_20  and  O_21
REMARK    6  A    between atoms: C_22  and  O_23
REMARK                            x       y       z     vdW  Elec       q    Type
REMARK                         _______ _______ _______ _____ _____    ______ ____
ROOT
ATOM      1  C   UNL     1       6.258   5.236  15.282  0.00  0.00    +0.000 C 
ATOM      2  O   UNL     1       4.959   5.323  15.929  0.00  0.00    +0.000 OA
ATOM      3  C   UNL     1       5.145   5.191  17.355  0.00  0.00    +0.000 C 
ATOM      4  C   UNL     1       6.575   4.708  17.598  0.00  0.00    +0.000 C 
ATOM      5  C   UNL     1       7.301   5.299  16.401  0.00  0.00    +0.000 C 
ENDROOT
BRANCH   3   6
ATOM      6  N   UNL     1       4.117   4.327  17.901  0.00  0.00    +0.000 N 
ATOM      7  C   UNL     1       3.866   3.042  17.491  0.00  0.00    +0.000 A 
ATOM      8  N   UNL     1       2.813   2.527  18.093  0.00  0.00    +0.000 NA
ATOM      9  C   UNL     1       2.357   3.531  18.922  0.00  0.00    +0.000 A 
ATOM     10  C   UNL     1       1.258   3.618  19.793  0.00  0.00    +0.000 A 
ATOM     11  N   UNL     1       0.331   2.601  19.947  0.00  0.00    +0.000 N 
ATOM     12  N   UNL     1       1.090   4.749  20.512  0.00  0.00    +0.000 NA
ATOM     13  C   UNL     1       1.966   5.758  20.338  0.00  0.00    +0.000 A 
ATOM     14  F   UNL     1       1.756   6.862  21.073  0.00  0.00    +0.000 F 
ATOM     15  N   UNL     1       3.036   5.795  19.517  0.00  0.00    +0.000 NA
ATOM     16  C   UNL     1       3.175   4.646  18.841  0.00  0.00    +0.000 A 
ATOM     17  H   UNL     1       0.653   1.691  19.640  0.00  0.00    +0.000 HD
ATOM     18  H   UNL     1      -0.196   2.664  20.806  0.00  0.00    +0.000 HD
ENDBRANCH   3   6
BRANCH   4  19
ATOM     19  O   UNL     1       7.107   5.194  18.831  0.00  0.00    +0.000 OA
ATOM     20  H   UNL     1       6.377   5.689  19.264  0.00  0.00    +0.000 HD
ENDBRANCH   4  19
BRANCH   5  21
ATOM     21  O   UNL     1       7.650   6.655  16.747  0.00  0.00    +0.000 OA
ATOM     22  H   UNL     1       7.262   6.875  17.615  0.00  0.00    +0.000 HD
ENDBRANCH   5  21
BRANCH   1  23
ATOM     23  C   UNL     1       6.345   3.937  14.463  0.00  0.00    +0.000 C 
BRANCH  23  27
ATOM     24  C   UNL     1       4.285   3.298  11.344  0.00  0.00    +0.000 C 
ATOM     25  C   UNL     1       5.498   3.286  12.235  0.00  0.00    +0.000 C 
ATOM     26  O   UNL     1       6.581   2.836  11.878  0.00  0.00    +0.000 OA
ATOM     27  N   UNL     1       5.281   3.834  13.478  0.00  0.00    +0.000 N 
ATOM     28  H   UNL     1       4.418   4.337  13.655  0.00  0.00    +0.000 HD
ENDBRANCH  23  27
ENDBRANCH   1  23
TORSDOF 5
ENDMDL
MODEL 2
REMARK VINA RESULT:      -8.2      0.984      1.087
REMARK  Name = 
REMARK  6 active torsions:
REMARK  status: ('A' for Active; 'I' for Inactive)
REMARK    1  A    between atoms: C_1  and  C_2
REMARK    2  A    between atoms: N_4  and  C_5
REMARK    3  A    between atoms: C_5  and  C_6
REMARK    4  A    between atoms: C_8  and  N_9
REMARK    5  A    between atoms: C_20  and  O_21
REMARK    6  A    between atoms: C_22  and  O_23
REMARK                            x       y       z     vdW  Elec       q    Type
REMARK                         _______ _______ _______ _____ _____    ______ ____
ROOT
ATOM      1  C   UNL     1       5.679   5.302  15.330  0.00  0.00    +0.000 C 
ATOM      2  O   UNL     1       4.751   5.506  16.430  0.00  0.00    +0.000 OA
ATOM      3  C   UNL     1       5.417   5.160  17.665  0.00  0.00    +0.000 C 
ATOM      4  C   UNL     1       6.713   4.430  17.309  0.00  0.00    +0.000 C 
ATOM      5  C   UNL     1       7.050   5.052  15.964  0.00  0.00    +0.000 C 
ENDROOT
BRANCH   3   6
ATOM      6  N   UNL     1       4.512   4.404  18.509  0.00  0.00    +0.000 N 
ATOM      7  C   UNL     1       4.486   3.036  18.611  0.00  0.00    +0.000 A 
ATOM      8  N   UNL     1       3.500   2.616  19.378  0.00  0.00    +0.000 NA
ATOM      9  C   UNL     1       2.853   3.767  19.778  0.00  0.00    +0.000 A 
ATOM     10  C   UNL     1       1.713   3.989  20.569  0.00  0.00    +0.000 A 
ATOM     11  N   UNL     1       0.951   2.965  21.105  0.00  0.00    +0.000 N 
ATOM     12  N   UNL     1       1.335   5.262  20.816  0.00  0.00    +0.000 NA
ATOM     13  C   UNL     1       2.049   6.264  20.266  0.00  0.00    +0.000 A 
ATOM     14  F   UNL     1       1.634   7.512  20.538  0.00  0.00    +0.000 F 
ATOM     15  N   UNL     1       3.138   6.168  19.475  0.00  0.00    +0.000 NA
ATOM     16  C   UNL     1       3.488   4.890  19.275  0.00  0.00    +0.000 A 
ATOM     17  H   UNL     1       1.426   2.072  21.156  0.00  0.00    +0.000 HD
ATOM     18  H   UNL     1       0.380   3.255  21.886  0.00  0.00    +0.000 HD
ENDBRANCH   3   6
BRANCH   4  19
ATOM     19  O   UNL     1       7.743   4.659  18.271  0.00  0.00    +0.000 OA
ATOM     20  H   UNL     1       7.572   4.030  19.005  0.00  0.00    +0.000 HD
ENDBRANCH   4  19
BRANCH   5  21
ATOM     21  O   UNL     1       7.760   6.278  16.234  0.00  0.00    +0.000 OA
ATOM     22  H   UNL     1       7.214   7.034  15.949  0.00  0.00    +0.000 HD
ENDBRANCH   5  21
BRANCH   1  23
ATOM     23  C   UNL     1       5.204   4.125  14.462  0.00  0.00    +0.000 C 
BRANCH  23  27
ATOM     24  C   UNL     1       7.159   2.762  11.512  0.00  0.00    +0.000 C 
ATOM     25  C   UNL     1       5.960   3.257  12.275  0.00  0.00    +0.000 C 
ATOM     26  O   UNL     1       4.834   3.297  11.791  0.00  0.00    +0.000 OA
ATOM     27  N   UNL     1       6.243   3.648  13.563  0.00  0.00    +0.000 N 
ATOM     28  H   UNL     1       7.153   3.437  13.958  0.00  0.00    +0.000 HD
ENDBRANCH  23  27
ENDBRANCH   1  23
TORSDOF 5
ENDMDL
MODEL 3
REMARK VINA RESULT:      -8.2      1.848      2.458
REMARK  Name = 
REMARK  6 active torsions:
REMARK  status: ('A' for Active; 'I' for Inactive)
REMARK    1  A    between atoms: C_1  and  C_2
REMARK    2  A    between atoms: N_4  and  C_5
REMARK    3  A    between atoms: C_5  and  C_6
REMARK    4  A    between atoms: C_8  and  N_9
REMARK    5  A    between atoms: C_20  and  O_21
REMARK    6  A    between atoms: C_22  and  O_23
REMARK                            x       y       z     vdW  Elec       q    Type
REMARK                         _______ _______ _______ _____ _____    ______ ____
ROOT
ATOM      1  C   UNL     1       5.874   5.445  15.629  0.00  0.00    +0.000 C 
ATOM      2  O   UNL     1       4.696   5.958  16.308  0.00  0.00    +0.000 OA
ATOM      3  C   UNL     1       4.985   6.057  17.720  0.00  0.00    +0.000 C 
ATOM      4  C   UNL     1       6.288   5.302  17.986  0.00  0.00    +0.000 C 
ATOM      5  C   UNL     1       7.008   5.467  16.658  0.00  0.00    +0.000 C 
ENDROOT
BRANCH   3   6
ATOM      6  N   UNL     1       3.847   5.581  18.482  0.00  0.00    +0.000 N 
ATOM      7  C   UNL     1       3.017   6.370  19.237  0.00  0.00    +0.000 A 
ATOM      8  N   UNL     1       2.125   5.659  19.899  0.00  0.00    +0.000 NA
ATOM      9  C   UNL     1       2.402   4.350  19.563  0.00  0.00    +0.000 A 
ATOM     10  C   UNL     1       1.835   3.128  19.962  0.00  0.00    +0.000 A 
ATOM     11  N   UNL     1       0.814   3.033  20.891  0.00  0.00    +0.000 N 
ATOM     12  N   UNL     1       2.312   1.986  19.420  0.00  0.00    +0.000 NA
ATOM     13  C   UNL     1       3.334   2.067  18.544  0.00  0.00    +0.000 A 
ATOM     14  F   UNL     1       3.774   0.906  18.034  0.00  0.00    +0.000 F 
ATOM     15  N   UNL     1       3.967   3.176  18.110  0.00  0.00    +0.000 NA
ATOM     16  C   UNL     1       3.447   4.284  18.657  0.00  0.00    +0.000 A 
ATOM     17  H   UNL     1       0.295   3.892  21.032  0.00  0.00    +0.000 HD
ATOM     18  H   UNL     1       0.304   2.163  20.841  0.00  0.00    +0.000 HD
ENDBRANCH   3   6
BRANCH   4  19
ATOM     19  O   UNL     1       7.031   5.870  19.064  0.00  0.00    +0.000 OA
ATOM     20  H   UNL     1       6.377   6.059  19.772  0.00  0.00    +0.000 HD
ENDBRANCH   4  19
BRANCH   5  21
ATOM     21  O   UNL     1       7.683   6.740  16.700  0.00  0.00    +0.000 OA
ATOM     22  H   UNL     1       7.925   7.006  15.794  0.00  0.00    +0.000 HD
ENDBRANCH   5  21
BRANCH   1  23
ATOM     23  C   UNL     1       5.589   4.032  15.091  0.00  0.00    +0.000 C 
BRANCH  23  27
ATOM     24  C   UNL     1       6.973   3.109  11.684  0.00  0.00    +0.000 C 
ATOM     25  C   UNL     1       5.937   3.495  12.704  0.00  0.00    +0.000 C 
ATOM     26  O   UNL     1       4.748   3.618  12.432  0.00  0.00    +0.000 OA
ATOM     27  N   UNL     1       6.446   3.686  13.968  0.00  0.00    +0.000 N 
ATOM     28  H   UNL     1       7.401   3.409  14.166  0.00  0.00    +0.000 HD
ENDBRANCH  23  27
ENDBRANCH   1  23
TORSDOF 5
ENDMDL
MODEL 4
REMARK VINA RESULT:      -8.1      3.370      6.020
REMARK  Name = 
REMARK  6 active torsions:
REMARK  status: ('A' for Active; 'I' for Inactive)
REMARK    1  A    between atoms: C_1  and  C_2
REMARK    2  A    between atoms: N_4  and  C_5
REMARK    3  A    between atoms: C_5  and  C_6
REMARK    4  A    between atoms: C_8  and  N_9
REMARK    5  A    between atoms: C_20  and  O_21
REMARK    6  A    between atoms: C_22  and  O_23
REMARK                            x       y       z     vdW  Elec       q    Type
REMARK                         _______ _______ _______ _____ _____    ______ ____
ROOT
ATOM      1  C   UNL     1       2.240   2.803  17.742  0.00  0.00    +0.000 C 
ATOM      2  O   UNL     1       3.212   3.419  16.853  0.00  0.00    +0.000 OA
ATOM      3  C   UNL     1       4.491   3.455  17.524  0.00  0.00    +0.000 C 
ATOM      4  C   UNL     1       4.257   3.122  18.998  0.00  0.00    +0.000 C 
ATOM      5  C   UNL     1       3.036   2.221  18.913  0.00  0.00    +0.000 C 
ENDROOT
BRANCH   3   6
ATOM      6  N   UNL     1       5.125   4.737  17.290  0.00  0.00    +0.000 N 
ATOM      7  C   UNL     1       4.844   5.578  16.243  0.00  0.00    +0.000 A 
ATOM      8  N   UNL     1       5.639   6.629  16.225  0.00  0.00    +0.000 NA
ATOM      9  C   UNL     1       6.479   6.452  17.305  0.00  0.00    +0.000 A 
ATOM     10  C   UNL     1       7.558   7.202  17.800  0.00  0.00    +0.000 A 
ATOM     11  N   UNL     1       8.026   8.353  17.190  0.00  0.00    +0.000 N 
ATOM     12  N   UNL     1       8.179   6.778  18.923  0.00  0.00    +0.000 NA
ATOM     13  C   UNL     1       7.755   5.637  19.502  0.00  0.00    +0.000 A 
ATOM     14  F   UNL     1       8.403   5.257  20.614  0.00  0.00    +0.000 F 
ATOM     15  N   UNL     1       6.751   4.829  19.102  0.00  0.00    +0.000 NA
ATOM     16  C   UNL     1       6.153   5.299  17.998  0.00  0.00    +0.000 A 
ATOM     17  H   UNL     1       7.366   8.789  16.557  0.00  0.00    +0.000 HD
ATOM     18  H   UNL     1       8.569   8.942  17.804  0.00  0.00    +0.000 HD
ENDBRANCH   3   6
BRANCH   4  19
ATOM     19  O   UNL     1       5.371   2.449  19.583  0.00  0.00    +0.000 OA
ATOM     20  H   UNL     1       5.869   3.133  20.082  0.00  0.00    +0.000 HD
ENDBRANCH   4  19
BRANCH   5  21
ATOM     21  O   UNL     1       3.515   0.889  18.641  0.00  0.00    +0.000 OA
ATOM     22  H   UNL     1       2.785   0.354  18.276  0.00  0.00    +0.000 HD
ENDBRANCH   5  21
BRANCH   1  23
ATOM     23  C   UNL     1       1.209   3.853  18.190  0.00  0.00    +0.000 C 
BRANCH  23  27
ATOM     24  C   UNL     1       2.463   7.429  18.303  0.00  0.00    +0.000 C 
ATOM     25  C   UNL     1       2.121   6.060  18.824  0.00  0.00    +0.000 C 
ATOM     26  O   UNL     1       2.265   5.740  19.999  0.00  0.00    +0.000 OA
ATOM     27  N   UNL     1       1.624   5.208  17.866  0.00  0.00    +0.000 N 
ATOM     28  H   UNL     1       1.372   5.577  16.955  0.00  0.00    +0.000 HD
ENDBRANCH  23  27
ENDBRANCH   1  23
TORSDOF 5
ENDMDL
MODEL 5
REMARK VINA RESULT:      -7.8      3.364      7.224
REMARK  Name = 
REMARK  6 active torsions:
REMARK  status: ('A' for Active; 'I' for Inactive)
REMARK    1  A    between atoms: C_1  and  C_2
REMARK    2  A    between atoms: N_4  and  C_5
REMARK    3  A    between atoms: C_5  and  C_6
REMARK    4  A    between atoms: C_8  and  N_9
REMARK    5  A    between atoms: C_20  and  O_21
REMARK    6  A    between atoms: C_22  and  O_23
REMARK                            x       y       z     vdW  Elec       q    Type
REMARK                         _______ _______ _______ _____ _____    ______ ____
ROOT
ATOM      1  C   UNL     1       2.759   5.270  18.351  0.00  0.00    +0.000 C 
ATOM      2  O   UNL     1       3.454   4.979  17.109  0.00  0.00    +0.000 OA
ATOM      3  C   UNL     1       4.615   4.172  17.407  0.00  0.00    +0.000 C 
ATOM      4  C   UNL     1       4.827   4.200  18.921  0.00  0.00    +0.000 C 
ATOM      5  C   UNL     1       3.405   4.386  19.422  0.00  0.00    +0.000 C 
ENDROOT
BRANCH   3   6
ATOM      6  N   UNL     1       5.746   4.642  16.632  0.00  0.00    +0.000 N 
ATOM      7  C   UNL     1       6.714   5.500  17.088  0.00  0.00    +0.000 A 
ATOM      8  N   UNL     1       7.567   5.832  16.140  0.00  0.00    +0.000 NA
ATOM      9  C   UNL     1       7.121   5.167  15.017  0.00  0.00    +0.000 A 
ATOM     10  C   UNL     1       7.575   5.137  13.688  0.00  0.00    +0.000 A 
ATOM     11  N   UNL     1       8.647   5.888  13.236  0.00  0.00    +0.000 N 
ATOM     12  N   UNL     1       6.932   4.344  12.803  0.00  0.00    +0.000 NA
ATOM     13  C   UNL     1       5.864   3.640  13.226  0.00  0.00    +0.000 A 
ATOM     14  F   UNL     1       5.258   2.868  12.310  0.00  0.00    +0.000 F 
ATOM     15  N   UNL     1       5.328   3.611  14.463  0.00  0.00    +0.000 NA
ATOM     16  C   UNL     1       6.009   4.395  15.311  0.00  0.00    +0.000 A 
ATOM     17  H   UNL     1       9.268   6.213  13.967  0.00  0.00    +0.000 HD
ATOM     18  H   UNL     1       9.049   5.538  12.379  0.00  0.00    +0.000 HD
ENDBRANCH   3   6
BRANCH   4  19
ATOM     19  O   UNL     1       5.405   2.989  19.408  0.00  0.00    +0.000 OA
ATOM     20  H   UNL     1       6.370   3.158  19.476  0.00  0.00    +0.000 HD
ENDBRANCH   4  19
BRANCH   5  21
ATOM     21  O   UNL     1       2.806   3.076  19.484  0.00  0.00    +0.000 OA
ATOM     22  H   UNL     1       3.393   2.433  19.044  0.00  0.00    +0.000 HD
ENDBRANCH   5  21
BRANCH   1  23
ATOM     23  C   UNL     1       2.875   6.770  18.672  0.00  0.00    +0.000 C 
BRANCH  23  27
ATOM     24  C   UNL     1       1.157   8.441  21.611  0.00  0.00    +0.000 C 
ATOM     25  C   UNL     1       1.619   8.261  20.190  0.00  0.00    +0.000 C 
ATOM     26  O   UNL     1       1.393   9.083  19.309  0.00  0.00    +0.000 OA
ATOM     27  N   UNL     1       2.322   7.099  19.976  0.00  0.00    +0.000 N 
ATOM     28  H   UNL     1       2.619   6.544  20.772  0.00  0.00    +0.000 HD
ENDBRANCH  23  27
ENDBRANCH   1  23
TORSDOF 5
ENDMDL
MODEL 6
REMARK VINA RESULT:      -7.8      1.624      1.727
REMARK  Name = 
REMARK  6 active torsions:
REMARK  status: ('A' for Active; 'I' for Inactive)
REMARK    1  A    between atoms: C_1  and  C_2
REMARK    2  A    between atoms: N_4  and  C_5
REMARK    3  A    between atoms: C_5  and  C_6
REMARK    4  A    between atoms: C_8  and  N_9
REMARK    5  A    between atoms: C_20  and  O_21
REMARK    6  A    between atoms: C_22  and  O_23
REMARK                            x       y       z     vdW  Elec       q    Type
REMARK                         _______ _______ _______ _____ _____    ______ ____
ROOT
ATOM      1  C   UNL     1       6.844   5.983  16.826  0.00  0.00    +0.000 C 
ATOM      2  O   UNL     1       5.527   5.966  17.439  0.00  0.00    +0.000 OA
ATOM      3  C   UNL     1       5.678   5.696  18.850  0.00  0.00    +0.000 C 
ATOM      4  C   UNL     1       7.115   5.232  19.087  0.00  0.00    +0.000 C 
ATOM      5  C   UNL     1       7.854   5.961  17.977  0.00  0.00    +0.000 C 
ENDROOT
BRANCH   3   6
ATOM      6  N   UNL     1       4.663   4.753  19.276  0.00  0.00    +0.000 N 
ATOM      7  C   UNL     1       4.751   3.390  19.151  0.00  0.00    +0.000 A 
ATOM      8  N   UNL     1       3.643   2.785  19.533  0.00  0.00    +0.000 NA
ATOM      9  C   UNL     1       2.798   3.808  19.910  0.00  0.00    +0.000 A 
ATOM     10  C   UNL     1       1.472   3.821  20.373  0.00  0.00    +0.000 A 
ATOM     11  N   UNL     1       0.703   2.678  20.504  0.00  0.00    +0.000 N 
ATOM     12  N   UNL     1       0.913   5.007  20.699  0.00  0.00    +0.000 NA
ATOM     13  C   UNL     1       1.641   6.129  20.537  0.00  0.00    +0.000 A 
ATOM     14  F   UNL     1       1.042   7.283  20.874  0.00  0.00    +0.000 F 
ATOM     15  N   UNL     1       2.906   6.237  20.080  0.00  0.00    +0.000 NA
ATOM     16  C   UNL     1       3.426   5.036  19.789  0.00  0.00    +0.000 A 
ATOM     17  H   UNL     1       1.236   1.817  20.546  0.00  0.00    +0.000 HD
ATOM     18  H   UNL     1      -0.083   2.791  21.128  0.00  0.00    +0.000 HD
ENDBRANCH   3   6
BRANCH   4  19
ATOM     19  O   UNL     1       7.598   5.605  20.377  0.00  0.00    +0.000 OA
ATOM     20  H   UNL     1       8.420   5.087  20.519  0.00  0.00    +0.000 HD
ENDBRANCH   4  19
BRANCH   5  21
ATOM     21  O   UNL     1       8.152   7.284  18.468  0.00  0.00    +0.000 OA
ATOM     22  H   UNL     1       7.420   7.885  18.235  0.00  0.00    +0.000 HD
ENDBRANCH   5  21
BRANCH   1  23
ATOM     23  C   UNL     1       6.994   4.776  15.884  0.00  0.00    +0.000 C 
BRANCH  23  27
ATOM     24  C   UNL     1       7.515   5.070  12.140  0.00  0.00    +0.000 C 
ATOM     25  C   UNL     1       6.926   4.552  13.425  0.00  0.00    +0.000 C 
ATOM     26  O   UNL     1       6.089   3.657  13.459  0.00  0.00    +0.000 OA
ATOM     27  N   UNL     1       7.422   5.167  14.551  0.00  0.00    +0.000 N 
ATOM     28  H   UNL     1       8.227   5.777  14.470  0.00  0.00    +0.000 HD
ENDBRANCH  23  27
ENDBRANCH   1  23
TORSDOF 5
ENDMDL
MODEL 7
REMARK VINA RESULT:      -7.7      1.929      2.242
REMARK  Name = 
REMARK  6 active torsions:
REMARK  status: ('A' for Active; 'I' for Inactive)
REMARK    1  A    between atoms: C_1  and  C_2
REMARK    2  A    between atoms: N_4  and  C_5
REMARK    3  A    between atoms: C_5  and  C_6
REMARK    4  A    between atoms: C_8  and  N_9
REMARK    5  A    between atoms: C_20  and  O_21
REMARK    6  A    between atoms: C_22  and  O_23
REMARK                            x       y       z     vdW  Elec       q    Type
REMARK                         _______ _______ _______ _____ _____    ______ ____
ROOT
ATOM      1  C   UNL     1       5.785   5.313  15.271  0.00  0.00    +0.000 C 
ATOM      2  O   UNL     1       4.753   5.777  16.183  0.00  0.00    +0.000 OA
ATOM      3  C   UNL     1       5.077   5.325  17.516  0.00  0.00    +0.000 C 
ATOM      4  C   UNL     1       6.195   4.288  17.400  0.00  0.00    +0.000 C 
ATOM      5  C   UNL     1       6.913   4.758  16.146  0.00  0.00    +0.000 C 
ENDROOT
BRANCH   3   6
ATOM      6  N   UNL     1       3.876   4.844  18.171  0.00  0.00    +0.000 N 
ATOM      7  C   UNL     1       2.615   5.347  17.976  0.00  0.00    +0.000 A 
ATOM      8  N   UNL     1       1.729   4.785  18.773  0.00  0.00    +0.000 NA
ATOM      9  C   UNL     1       2.456   3.885  19.526  0.00  0.00    +0.000 A 
ATOM     10  C   UNL     1       2.099   3.012  20.566  0.00  0.00    +0.000 A 
ATOM     11  N   UNL     1       0.817   2.933  21.084  0.00  0.00    +0.000 N 
ATOM     12  N   UNL     1       3.051   2.213  21.095  0.00  0.00    +0.000 NA
ATOM     13  C   UNL     1       4.310   2.311  20.624  0.00  0.00    +0.000 A 
ATOM     14  F   UNL     1       5.221   1.498  21.181  0.00  0.00    +0.000 F 
ATOM     15  N   UNL     1       4.768   3.126  19.651  0.00  0.00    +0.000 NA
ATOM     16  C   UNL     1       3.787   3.884  19.143  0.00  0.00    +0.000 A 
ATOM     17  H   UNL     1       0.097   3.305  20.477  0.00  0.00    +0.000 HD
ATOM     18  H   UNL     1       0.636   2.072  21.580  0.00  0.00    +0.000 HD
ENDBRANCH   3   6
BRANCH   4  19
ATOM     19  O   UNL     1       7.058   4.294  18.537  0.00  0.00    +0.000 OA
ATOM     20  H   UNL     1       7.098   5.227  18.840  0.00  0.00    +0.000 HD
ENDBRANCH   4  19
BRANCH   5  21
ATOM     21  O   UNL     1       7.843   5.783  16.553  0.00  0.00    +0.000 OA
ATOM     22  H   UNL     1       7.368   6.463  17.066  0.00  0.00    +0.000 HD
ENDBRANCH   5  21
BRANCH   1  23
ATOM     23  C   UNL     1       5.200   4.256  14.320  0.00  0.00    +0.000 C 
BRANCH  23  27
ATOM     24  C   UNL     1       7.090   2.589  11.486  0.00  0.00    +0.000 C 
ATOM     25  C   UNL     1       5.917   3.202  12.203  0.00  0.00    +0.000 C 
ATOM     26  O   UNL     1       4.798   3.276  11.706  0.00  0.00    +0.000 OA
ATOM     27  N   UNL     1       6.214   3.661  13.465  0.00  0.00    +0.000 N 
ATOM     28  H   UNL     1       7.107   3.423  13.882  0.00  0.00    +0.000 HD
ENDBRANCH  23  27
ENDBRANCH   1  23
TORSDOF 5
ENDMDL
MODEL 8
REMARK VINA RESULT:      -7.7      3.438      5.205
REMARK  Name = 
REMARK  6 active torsions:
REMARK  status: ('A' for Active; 'I' for Inactive)
REMARK    1  A    between atoms: C_1  and  C_2
REMARK    2  A    between atoms: N_4  and  C_5
REMARK    3  A    between atoms: C_5  and  C_6
REMARK    4  A    between atoms: C_8  and  N_9
REMARK    5  A    between atoms: C_20  and  O_21
REMARK    6  A    between atoms: C_22  and  O_23
REMARK                            x       y       z     vdW  Elec       q    Type
REMARK                         _______ _______ _______ _____ _____    ______ ____
ROOT
ATOM      1  C   UNL     1       5.059   4.405  19.193  0.00  0.00    +0.000 C 
ATOM      2  O   UNL     1       4.399   5.603  19.685  0.00  0.00    +0.000 OA
ATOM      3  C   UNL     1       3.003   5.544  19.319  0.00  0.00    +0.000 C 
ATOM      4  C   UNL     1       2.832   4.412  18.305  0.00  0.00    +0.000 C 
ATOM      5  C   UNL     1       3.946   3.465  18.718  0.00  0.00    +0.000 C 
ENDROOT
BRANCH   3   6
ATOM      6  N   UNL     1       2.568   6.844  18.849  0.00  0.00    +0.000 N 
ATOM      7  C   UNL     1       2.865   7.379  17.622  0.00  0.00    +0.000 A 
ATOM      8  N   UNL     1       2.421   8.615  17.500  0.00  0.00    +0.000 NA
ATOM      9  C   UNL     1       1.821   8.892  18.710  0.00  0.00    +0.000 A 
ATOM     10  C   UNL     1       1.196  10.044  19.218  0.00  0.00    +0.000 A 
ATOM     11  N   UNL     1       1.106  11.231  18.512  0.00  0.00    +0.000 N 
ATOM     12  N   UNL     1       0.662   9.997  20.458  0.00  0.00    +0.000 NA
ATOM     13  C   UNL     1       0.780   8.856  21.167  0.00  0.00    +0.000 A 
ATOM     14  F   UNL     1       0.235   8.858  22.394  0.00  0.00    +0.000 F 
ATOM     15  N   UNL     1       1.377   7.706  20.792  0.00  0.00    +0.000 NA
ATOM     16  C   UNL     1       1.873   7.792  19.550  0.00  0.00    +0.000 A 
ATOM     17  H   UNL     1       1.234  11.134  17.512  0.00  0.00    +0.000 HD
ATOM     18  H   UNL     1       0.379  11.845  18.849  0.00  0.00    +0.000 HD
ENDBRANCH   3   6
BRANCH   4  19
ATOM     19  O   UNL     1       1.549   3.792  18.398  0.00  0.00    +0.000 OA
ATOM     20  H   UNL     1       0.905   4.451  18.059  0.00  0.00    +0.000 HD
ENDBRANCH   4  19
BRANCH   5  21
ATOM     21  O   UNL     1       3.428   2.648  19.787  0.00  0.00    +0.000 OA
ATOM     22  H   UNL     1       3.132   3.223  20.518  0.00  0.00    +0.000 HD
ENDBRANCH   5  21
BRANCH   1  23
ATOM     23  C   UNL     1       6.039   4.777  18.068  0.00  0.00    +0.000 C 
BRANCH  23  27
ATOM     24  C   UNL     1       7.852   8.079  17.633  0.00  0.00    +0.000 C 
ATOM     25  C   UNL     1       7.316   6.727  17.247  0.00  0.00    +0.000 C 
ATOM     26  O   UNL     1       7.503   6.227  16.143  0.00  0.00    +0.000 OA
ATOM     27  N   UNL     1       6.607   6.103  18.247  0.00  0.00    +0.000 N 
ATOM     28  H   UNL     1       6.627   6.489  19.185  0.00  0.00    +0.000 HD
ENDBRANCH  23  27
ENDBRANCH   1  23
TORSDOF 5
ENDMDL
MODEL 9
REMARK VINA RESULT:      -7.6      1.280      1.313
REMARK  Name = 
REMARK  6 active torsions:
REMARK  status: ('A' for Active; 'I' for Inactive)
REMARK    1  A    between atoms: C_1  and  C_2
REMARK    2  A    between atoms: N_4  and  C_5
REMARK    3  A    between atoms: C_5  and  C_6
REMARK    4  A    between atoms: C_8  and  N_9
REMARK    5  A    between atoms: C_20  and  O_21
REMARK    6  A    between atoms: C_22  and  O_23
REMARK                            x       y       z     vdW  Elec       q    Type
REMARK                         _______ _______ _______ _____ _____    ______ ____
ROOT
ATOM      1  C   UNL     1       6.719   5.776  16.084  0.00  0.00    +0.000 C 
ATOM      2  O   UNL     1       5.284   5.690  16.297  0.00  0.00    +0.000 OA
ATOM      3  C   UNL     1       5.043   5.318  17.672  0.00  0.00    +0.000 C 
ATOM      4  C   UNL     1       6.373   4.863  18.273  0.00  0.00    +0.000 C 
ATOM      5  C   UNL     1       7.366   5.686  17.469  0.00  0.00    +0.000 C 
ENDROOT
BRANCH   3   6
ATOM      6  N   UNL     1       3.986   4.328  17.729  0.00  0.00    +0.000 N 
ATOM      7  C   UNL     1       3.509   3.620  16.656  0.00  0.00    +0.000 A 
ATOM      8  N   UNL     1       2.483   2.859  16.981  0.00  0.00    +0.000 NA
ATOM      9  C   UNL     1       2.283   3.097  18.325  0.00  0.00    +0.000 A 
ATOM     10  C   UNL     1       1.330   2.622  19.241  0.00  0.00    +0.000 A 
ATOM     11  N   UNL     1       0.299   1.767  18.889  0.00  0.00    +0.000 N 
ATOM     12  N   UNL     1       1.414   3.022  20.529  0.00  0.00    +0.000 NA
ATOM     13  C   UNL     1       2.391   3.886  20.872  0.00  0.00    +0.000 A 
ATOM     14  F   UNL     1       2.433   4.255  22.162  0.00  0.00    +0.000 F 
ATOM     15  N   UNL     1       3.339   4.423  20.076  0.00  0.00    +0.000 NA
ATOM     16  C   UNL     1       3.228   3.982  18.815  0.00  0.00    +0.000 A 
ATOM     17  H   UNL     1       0.450   1.265  18.022  0.00  0.00    +0.000 HD
ATOM     18  H   UNL     1      -0.097   1.270  19.673  0.00  0.00    +0.000 HD
ENDBRANCH   3   6
BRANCH   4  19
ATOM     19  O   UNL     1       6.460   5.147  19.670  0.00  0.00    +0.000 OA
ATOM     20  H   UNL     1       5.561   5.433  19.944  0.00  0.00    +0.000 HD
ENDBRANCH   4  19
BRANCH   5  21
ATOM     21  O   UNL     1       7.463   6.973  18.111  0.00  0.00    +0.000 OA
ATOM     22  H   UNL     1       6.579   7.246  18.421  0.00  0.00    +0.000 HD
ENDBRANCH   5  21
BRANCH   1  23
ATOM     23  C   UNL     1       7.172   4.646  15.144  0.00  0.00    +0.000 C 
BRANCH  23  27
ATOM     24  C   UNL     1       4.964   3.431  12.311  0.00  0.00    +0.000 C 
ATOM     25  C   UNL     1       6.213   3.939  12.979  0.00  0.00    +0.000 C 
ATOM     26  O   UNL     1       7.250   4.169  12.366  0.00  0.00    +0.000 OA
ATOM     27  N   UNL     1       6.080   4.129  14.335  0.00  0.00    +0.000 N 
ATOM     28  H   UNL     1       5.159   4.082  14.755  0.00  0.00    +0.000 HD
ENDBRANCH  23  27
ENDBRANCH   1  23
TORSDOF 5
ENDMDL
