MODEL 1
REMARK VINA RESULT:      -8.1      0.000      0.000
REMARK  Name = 
REMARK  3 active torsions:
REMARK  status: ('A' for Active; 'I' for Inactive)
REMARK    1  A    between atoms: C_1  and  C_2
REMARK    2  A    between atoms: C_6  and  C_7
REMARK    3  A    between atoms: C_16  and  C_17
REMARK                            x       y       z     vdW  Elec       q    Type
REMARK                         _______ _______ _______ _____ _____    ______ ____
ROOT
ATOM      1  C   UNL     1       1.357   2.557  18.588  0.00  0.00    +0.000 C 
ATOM      2  C   UNL     1       2.825   2.900  18.661  0.00  0.00    +0.000 C 
ATOM      3  O   UNL     1       3.688   2.022  18.627  0.00  0.00    +0.000 OA
ATOM      4  N   UNL     1       3.109   4.251  18.762  0.00  0.00    +0.000 N 
ATOM      5  N   UNL     1       2.132   5.185  18.991  0.00  0.00    +0.000 NA
ATOM      6  C   UNL     1       2.734   6.306  19.243  0.00  0.00    +0.000 C 
ATOM      7  C   UNL     1       4.240   6.259  19.205  0.00  0.00    +0.000 C 
ATOM      8  C   UNL     1       4.464   4.786  18.868  0.00  0.00    +0.000 C 
ENDROOT
BRANCH   6   9
ATOM      9  C   UNL     1       2.000   7.554  19.564  0.00  0.00    +0.000 A 
ATOM     10  C   UNL     1       1.848   8.526  18.568  0.00  0.00    +0.000 A 
ATOM     11  C   UNL     1       1.153   9.709  18.837  0.00  0.00    +0.000 A 
ATOM     12  C   UNL     1       0.605   9.926  20.102  0.00  0.00    +0.000 A 
ATOM     13 CL   UNL     1      -0.242  11.407  20.370  0.00  0.00    +0.000 Cl
ATOM     14  C   UNL     1       0.756   8.956  21.100  0.00  0.00    +0.000 A 
ATOM     15 CL   UNL     1       0.109   9.156  22.691  0.00  0.00    +0.000 Cl
ATOM     16  C   UNL     1       1.451   7.770  20.831  0.00  0.00    +0.000 A 
ENDBRANCH   6   9
BRANCH   8  17
ATOM     17  C   UNL     1       5.280   4.615  17.601  0.00  0.00    +0.000 A 
ATOM     18  C   UNL     1       6.683   4.599  17.670  0.00  0.00    +0.000 A 
ATOM     19  C   UNL     1       7.450   4.459  16.512  0.00  0.00    +0.000 A 
ATOM     20  C   UNL     1       6.826   4.338  15.274  0.00  0.00    +0.000 A 
ATOM     21  C   UNL     1       5.434   4.347  15.190  0.00  0.00    +0.000 A 
ATOM     22  C   UNL     1       4.665   4.480  16.346  0.00  0.00    +0.000 A 
ENDBRANCH   8  17
TORSDOF 2
ENDMDL
MODEL 2
REMARK VINA RESULT:      -8.0      0.048      1.031
REMARK  Name = 
REMARK  3 active torsions:
REMARK  status: ('A' for Active; 'I' for Inactive)
REMARK    1  A    between atoms: C_1  and  C_2
REMARK    2  A    between atoms: C_6  and  C_7
REMARK    3  A    between atoms: C_16  and  C_17
REMARK                            x       y       z     vdW  Elec       q    Type
REMARK                         _______ _______ _______ _____ _____    ______ ____
ROOT
ATOM      1  C   UNL     1       1.415   2.542  18.605  0.00  0.00    +0.000 C 
ATOM      2  C   UNL     1       2.879   2.901  18.669  0.00  0.00    +0.000 C 
ATOM      3  O   UNL     1       3.752   2.033  18.630  0.00  0.00    +0.000 OA
ATOM      4  N   UNL     1       3.149   4.255  18.766  0.00  0.00    +0.000 N 
ATOM      5  N   UNL     1       2.164   5.178  19.000  0.00  0.00    +0.000 NA
ATOM      6  C   UNL     1       2.755   6.306  19.248  0.00  0.00    +0.000 C 
ATOM      7  C   UNL     1       4.261   6.275  19.200  0.00  0.00    +0.000 C 
ATOM      8  C   UNL     1       4.498   4.805  18.863  0.00  0.00    +0.000 C 
ENDROOT
BRANCH   6   9
ATOM      9  C   UNL     1       2.009   7.546  19.572  0.00  0.00    +0.000 A 
ATOM     10  C   UNL     1       1.840   8.516  18.576  0.00  0.00    +0.000 A 
ATOM     11  C   UNL     1       1.133   9.691  18.849  0.00  0.00    +0.000 A 
ATOM     12  C   UNL     1       0.592   9.904  20.117  0.00  0.00    +0.000 A 
ATOM     13 CL   UNL     1      -0.270  11.375  20.389  0.00  0.00    +0.000 Cl
ATOM     14  C   UNL     1       0.760   8.936  21.115  0.00  0.00    +0.000 A 
ATOM     15 CL   UNL     1       0.121   9.130  22.709  0.00  0.00    +0.000 Cl
ATOM     16  C   UNL     1       1.466   7.758  20.842  0.00  0.00    +0.000 A 
ENDBRANCH   6   9
BRANCH   8  17
ATOM     17  C   UNL     1       5.309   4.641  17.591  0.00  0.00    +0.000 A 
ATOM     18  C   UNL     1       4.653   4.535  16.353  0.00  0.00    +0.000 A 
ATOM     19  C   UNL     1       5.383   4.367  15.175  0.00  0.00    +0.000 A 
ATOM     20  C   UNL     1       6.773   4.301  15.220  0.00  0.00    +0.000 A 
ATOM     21  C   UNL     1       7.438   4.411  16.440  0.00  0.00    +0.000 A 
ATOM     22  C   UNL     1       6.712   4.585  17.619  0.00  0.00    +0.000 A 
ENDBRANCH   8  17
TORSDOF 2
ENDMDL
MODEL 3
REMARK VINA RESULT:      -7.8      0.659      1.500
REMARK  Name = 
REMARK  3 active torsions:
REMARK  status: ('A' for Active; 'I' for Inactive)
REMARK    1  A    between atoms: C_1  and  C_2
REMARK    2  A    between atoms: C_6  and  C_7
REMARK    3  A    between atoms: C_16  and  C_17
REMARK                            x       y       z     vdW  Elec       q    Type
REMARK                         _______ _______ _______ _____ _____    ______ ____
ROOT
ATOM      1  C   UNL     1       1.376   2.354  18.571  0.00  0.00    +0.000 C 
ATOM      2  C   UNL     1       2.841   2.709  18.634  0.00  0.00    +0.000 C 
ATOM      3  O   UNL     1       3.712   1.844  18.534  0.00  0.00    +0.000 OA
ATOM      4  N   UNL     1       3.113   4.056  18.803  0.00  0.00    +0.000 N 
ATOM      5  N   UNL     1       2.132   4.964  19.103  0.00  0.00    +0.000 NA
ATOM      6  C   UNL     1       2.727   6.077  19.404  0.00  0.00    +0.000 C 
ATOM      7  C   UNL     1       4.232   6.049  19.334  0.00  0.00    +0.000 C 
ATOM      8  C   UNL     1       4.464   4.599  18.911  0.00  0.00    +0.000 C 
ENDROOT
BRANCH   6   9
ATOM      9  C   UNL     1       1.986   7.296  19.808  0.00  0.00    +0.000 A 
ATOM     10  C   UNL     1       1.359   7.325  21.060  0.00  0.00    +0.000 A 
ATOM     11  C   UNL     1       0.661   8.464  21.472  0.00  0.00    +0.000 A 
ATOM     12  C   UNL     1       0.586   9.580  20.638  0.00  0.00    +0.000 A 
ATOM     13 CL   UNL     1      -0.290  10.954  21.207  0.00  0.00    +0.000 Cl
ATOM     14  C   UNL     1       1.212   9.554  19.386  0.00  0.00    +0.000 A 
ATOM     15 CL   UNL     1       1.160  10.895  18.297  0.00  0.00    +0.000 Cl
ATOM     16  C   UNL     1       1.913   8.413  18.972  0.00  0.00    +0.000 A 
ENDBRANCH   6   9
BRANCH   8  17
ATOM     17  C   UNL     1       5.256   4.508  17.621  0.00  0.00    +0.000 A 
ATOM     18  C   UNL     1       6.659   4.547  17.658  0.00  0.00    +0.000 A 
ATOM     19  C   UNL     1       7.403   4.481  16.478  0.00  0.00    +0.000 A 
ATOM     20  C   UNL     1       6.755   4.378  15.250  0.00  0.00    +0.000 A 
ATOM     21  C   UNL     1       5.362   4.333  15.198  0.00  0.00    +0.000 A 
ATOM     22  C   UNL     1       4.616   4.393  16.375  0.00  0.00    +0.000 A 
ENDBRANCH   8  17
TORSDOF 2
ENDMDL
MODEL 4
REMARK VINA RESULT:      -7.7      0.669      1.819
REMARK  Name = 
REMARK  3 active torsions:
REMARK  status: ('A' for Active; 'I' for Inactive)
REMARK    1  A    between atoms: C_1  and  C_2
REMARK    2  A    between atoms: C_6  and  C_7
REMARK    3  A    between atoms: C_16  and  C_17
REMARK                            x       y       z     vdW  Elec       q    Type
REMARK                         _______ _______ _______ _____ _____    ______ ____
ROOT
ATOM      1  C   UNL     1       1.474   2.325  18.551  0.00  0.00    +0.000 C 
ATOM      2  C   UNL     1       2.934   2.704  18.601  0.00  0.00    +0.000 C 
ATOM      3  O   UNL     1       3.818   1.853  18.493  0.00  0.00    +0.000 OA
ATOM      4  N   UNL     1       3.186   4.055  18.766  0.00  0.00    +0.000 N 
ATOM      5  N   UNL     1       2.193   4.948  19.075  0.00  0.00    +0.000 NA
ATOM      6  C   UNL     1       2.773   6.070  19.371  0.00  0.00    +0.000 C 
ATOM      7  C   UNL     1       4.278   6.066  19.286  0.00  0.00    +0.000 C 
ATOM      8  C   UNL     1       4.529   4.620  18.862  0.00  0.00    +0.000 C 
ENDROOT
BRANCH   6   9
ATOM      9  C   UNL     1       2.017   7.278  19.781  0.00  0.00    +0.000 A 
ATOM     10  C   UNL     1       1.356   7.277  21.015  0.00  0.00    +0.000 A 
ATOM     11  C   UNL     1       0.643   8.404  21.433  0.00  0.00    +0.000 A 
ATOM     12  C   UNL     1       0.586   9.538  20.622  0.00  0.00    +0.000 A 
ATOM     13 CL   UNL     1      -0.311  10.896  21.197  0.00  0.00    +0.000 Cl
ATOM     14  C   UNL     1       1.246   9.541  19.387  0.00  0.00    +0.000 A 
ATOM     15 CL   UNL     1       1.219  10.906  18.327  0.00  0.00    +0.000 Cl
ATOM     16  C   UNL     1       1.962   8.413  18.968  0.00  0.00    +0.000 A 
ENDBRANCH   6   9
BRANCH   8  17
ATOM     17  C   UNL     1       5.310   4.540  17.564  0.00  0.00    +0.000 A 
ATOM     18  C   UNL     1       4.626   4.457  16.340  0.00  0.00    +0.000 A 
ATOM     19  C   UNL     1       5.330   4.366  15.138  0.00  0.00    +0.000 A 
ATOM     20  C   UNL     1       6.722   4.354  15.144  0.00  0.00    +0.000 A 
ATOM     21  C   UNL     1       7.415   4.441  16.351  0.00  0.00    +0.000 A 
ATOM     22  C   UNL     1       6.715   4.539  17.554  0.00  0.00    +0.000 A 
ENDBRANCH   8  17
TORSDOF 2
ENDMDL
MODEL 5
REMARK VINA RESULT:      -7.7      4.429      7.221
REMARK  Name = 
REMARK  3 active torsions:
REMARK  status: ('A' for Active; 'I' for Inactive)
REMARK    1  A    between atoms: C_1  and  C_2
REMARK    2  A    between atoms: C_6  and  C_7
REMARK    3  A    between atoms: C_16  and  C_17
REMARK                            x       y       z     vdW  Elec       q    Type
REMARK                         _______ _______ _______ _____ _____    ______ ____
ROOT
ATOM      1  C   UNL     1       2.200   8.375  17.856  0.00  0.00    +0.000 C 
ATOM      2  C   UNL     1       2.654   7.348  18.863  0.00  0.00    +0.000 C 
ATOM      3  O   UNL     1       2.373   7.458  20.057  0.00  0.00    +0.000 OA
ATOM      4  N   UNL     1       3.389   6.297  18.342  0.00  0.00    +0.000 N 
ATOM      5  N   UNL     1       3.848   6.301  17.051  0.00  0.00    +0.000 NA
ATOM      6  C   UNL     1       4.667   5.300  16.939  0.00  0.00    +0.000 C 
ATOM      7  C   UNL     1       4.856   4.472  18.184  0.00  0.00    +0.000 C 
ATOM      8  C   UNL     1       3.940   5.216  19.154  0.00  0.00    +0.000 C 
ENDROOT
BRANCH   6   9
ATOM      9  C   UNL     1       5.385   4.992  15.679  0.00  0.00    +0.000 A 
ATOM     10  C   UNL     1       6.746   5.306  15.580  0.00  0.00    +0.000 A 
ATOM     11  C   UNL     1       7.453   5.019  14.409  0.00  0.00    +0.000 A 
ATOM     12  C   UNL     1       6.805   4.416  13.330  0.00  0.00    +0.000 A 
ATOM     13 CL   UNL     1       7.734   4.088  11.913  0.00  0.00    +0.000 Cl
ATOM     14  C   UNL     1       5.444   4.101  13.426  0.00  0.00    +0.000 A 
ATOM     15 CL   UNL     1       4.573   3.358  12.131  0.00  0.00    +0.000 Cl
ATOM     16  C   UNL     1       4.735   4.388  14.599  0.00  0.00    +0.000 A 
ENDBRANCH   6   9
BRANCH   8  17
ATOM     17  C   UNL     1       2.880   4.303  19.741  0.00  0.00    +0.000 A 
ATOM     18  C   UNL     1       1.953   3.672  18.894  0.00  0.00    +0.000 A 
ATOM     19  C   UNL     1       0.961   2.843  19.419  0.00  0.00    +0.000 A 
ATOM     20  C   UNL     1       0.880   2.636  20.793  0.00  0.00    +0.000 A 
ATOM     21  C   UNL     1       1.796   3.251  21.646  0.00  0.00    +0.000 A 
ATOM     22  C   UNL     1       2.793   4.076  21.124  0.00  0.00    +0.000 A 
ENDBRANCH   8  17
TORSDOF 2
ENDMDL
MODEL 6
REMARK VINA RESULT:      -7.7      4.434      7.160
REMARK  Name = 
REMARK  3 active torsions:
REMARK  status: ('A' for Active; 'I' for Inactive)
REMARK    1  A    between atoms: C_1  and  C_2
REMARK    2  A    between atoms: C_6  and  C_7
REMARK    3  A    between atoms: C_16  and  C_17
REMARK                            x       y       z     vdW  Elec       q    Type
REMARK                         _______ _______ _______ _____ _____    ______ ____
ROOT
ATOM      1  C   UNL     1       2.186   8.399  17.843  0.00  0.00    +0.000 C 
ATOM      2  C   UNL     1       2.637   7.376  18.857  0.00  0.00    +0.000 C 
ATOM      3  O   UNL     1       2.350   7.490  20.049  0.00  0.00    +0.000 OA
ATOM      4  N   UNL     1       3.374   6.323  18.343  0.00  0.00    +0.000 N 
ATOM      5  N   UNL     1       3.839   6.322  17.054  0.00  0.00    +0.000 NA
ATOM      6  C   UNL     1       4.658   5.321  16.949  0.00  0.00    +0.000 C 
ATOM      7  C   UNL     1       4.842   4.498  18.198  0.00  0.00    +0.000 C 
ATOM      8  C   UNL     1       3.921   5.245  19.162  0.00  0.00    +0.000 C 
ENDROOT
BRANCH   6   9
ATOM      9  C   UNL     1       5.383   5.008  15.694  0.00  0.00    +0.000 A 
ATOM     10  C   UNL     1       6.744   5.323  15.600  0.00  0.00    +0.000 A 
ATOM     11  C   UNL     1       7.456   5.032  14.433  0.00  0.00    +0.000 A 
ATOM     12  C   UNL     1       6.813   4.424  13.353  0.00  0.00    +0.000 A 
ATOM     13 CL   UNL     1       7.749   4.091  11.942  0.00  0.00    +0.000 Cl
ATOM     14  C   UNL     1       5.452   4.108  13.445  0.00  0.00    +0.000 A 
ATOM     15 CL   UNL     1       4.587   3.358  12.150  0.00  0.00    +0.000 Cl
ATOM     16  C   UNL     1       4.738   4.399  14.614  0.00  0.00    +0.000 A 
ENDBRANCH   6   9
BRANCH   8  17
ATOM     17  C   UNL     1       2.859   4.334  19.747  0.00  0.00    +0.000 A 
ATOM     18  C   UNL     1       2.828   4.094  21.130  0.00  0.00    +0.000 A 
ATOM     19  C   UNL     1       1.868   3.246  21.683  0.00  0.00    +0.000 A 
ATOM     20  C   UNL     1       0.930   2.625  20.862  0.00  0.00    +0.000 A 
ATOM     21  C   UNL     1       0.945   2.858  19.487  0.00  0.00    +0.000 A 
ATOM     22  C   UNL     1       1.899   3.710  18.932  0.00  0.00    +0.000 A 
ENDBRANCH   8  17
TORSDOF 2
ENDMDL
MODEL 7
REMARK VINA RESULT:      -7.6      1.042      1.448
REMARK  Name = 
REMARK  3 active torsions:
REMARK  status: ('A' for Active; 'I' for Inactive)
REMARK    1  A    between atoms: C_1  and  C_2
REMARK    2  A    between atoms: C_6  and  C_7
REMARK    3  A    between atoms: C_16  and  C_17
REMARK                            x       y       z     vdW  Elec       q    Type
REMARK                         _______ _______ _______ _____ _____    ______ ____
ROOT
ATOM      1  C   UNL     1       2.918   2.867  20.064  0.00  0.00    +0.000 C 
ATOM      2  C   UNL     1       4.165   3.494  19.491  0.00  0.00    +0.000 C 
ATOM      3  O   UNL     1       5.225   2.868  19.430  0.00  0.00    +0.000 OA
ATOM      4  N   UNL     1       4.018   4.796  19.044  0.00  0.00    +0.000 N 
ATOM      5  N   UNL     1       2.887   5.528  19.298  0.00  0.00    +0.000 NA
ATOM      6  C   UNL     1       3.142   6.750  18.944  0.00  0.00    +0.000 C 
ATOM      7  C   UNL     1       4.520   6.991  18.384  0.00  0.00    +0.000 C 
ATOM      8  C   UNL     1       5.109   5.585  18.479  0.00  0.00    +0.000 C 
ENDROOT
BRANCH   6   9
ATOM      9  C   UNL     1       2.156   7.848  19.091  0.00  0.00    +0.000 A 
ATOM     10  C   UNL     1       1.816   8.609  17.965  0.00  0.00    +0.000 A 
ATOM     11  C   UNL     1       0.882   9.644  18.070  0.00  0.00    +0.000 A 
ATOM     12  C   UNL     1       0.283   9.924  19.299  0.00  0.00    +0.000 A 
ATOM     13 CL   UNL     1      -0.862  11.215  19.361  0.00  0.00    +0.000 Cl
ATOM     14  C   UNL     1       0.621   9.165  20.426  0.00  0.00    +0.000 A 
ATOM     15 CL   UNL     1      -0.076   9.456  21.980  0.00  0.00    +0.000 Cl
ATOM     16  C   UNL     1       1.556   8.127  20.321  0.00  0.00    +0.000 A 
ENDBRANCH   6   9
BRANCH   8  17
ATOM     17  C   UNL     1       5.582   5.079  17.129  0.00  0.00    +0.000 A 
ATOM     18  C   UNL     1       4.673   4.457  16.258  0.00  0.00    +0.000 A 
ATOM     19  C   UNL     1       5.095   3.971  15.019  0.00  0.00    +0.000 A 
ATOM     20  C   UNL     1       6.428   4.097  14.639  0.00  0.00    +0.000 A 
ATOM     21  C   UNL     1       7.341   4.717  15.491  0.00  0.00    +0.000 A 
ATOM     22  C   UNL     1       6.922   5.209  16.727  0.00  0.00    +0.000 A 
ENDBRANCH   8  17
TORSDOF 2
ENDMDL
MODEL 8
REMARK VINA RESULT:      -7.5      1.863      3.293
REMARK  Name = 
REMARK  3 active torsions:
REMARK  status: ('A' for Active; 'I' for Inactive)
REMARK    1  A    between atoms: C_1  and  C_2
REMARK    2  A    between atoms: C_6  and  C_7
REMARK    3  A    between atoms: C_16  and  C_17
REMARK                            x       y       z     vdW  Elec       q    Type
REMARK                         _______ _______ _______ _____ _____    ______ ____
ROOT
ATOM      1  C   UNL     1       6.685   7.054  17.214  0.00  0.00    +0.000 C 
ATOM      2  C   UNL     1       5.742   5.900  16.977  0.00  0.00    +0.000 C 
ATOM      3  O   UNL     1       6.093   4.910  16.335  0.00  0.00    +0.000 OA
ATOM      4  N   UNL     1       4.483   6.045  17.535  0.00  0.00    +0.000 N 
ATOM      5  N   UNL     1       4.059   7.231  18.075  0.00  0.00    +0.000 NA
ATOM      6  C   UNL     1       2.789   7.106  18.311  0.00  0.00    +0.000 C 
ATOM      7  C   UNL     1       2.190   5.771  17.950  0.00  0.00    +0.000 C 
ATOM      8  C   UNL     1       3.420   5.053  17.399  0.00  0.00    +0.000 C 
ENDROOT
BRANCH   6   9
ATOM      9  C   UNL     1       1.970   8.201  18.882  0.00  0.00    +0.000 A 
ATOM     10  C   UNL     1       1.525   9.226  18.038  0.00  0.00    +0.000 A 
ATOM     11  C   UNL     1       0.743  10.268  18.545  0.00  0.00    +0.000 A 
ATOM     12  C   UNL     1       0.400  10.292  19.898  0.00  0.00    +0.000 A 
ATOM     13 CL   UNL     1      -0.568  11.605  20.461  0.00  0.00    +0.000 Cl
ATOM     14  C   UNL     1       0.844   9.268  20.744  0.00  0.00    +0.000 A 
ATOM     15 CL   UNL     1       0.463   9.231  22.430  0.00  0.00    +0.000 Cl
ATOM     16  C   UNL     1       1.627   8.224  20.236  0.00  0.00    +0.000 A 
ENDBRANCH   6   9
BRANCH   8  17
ATOM     17  C   UNL     1       3.702   3.762  18.144  0.00  0.00    +0.000 A 
ATOM     18  C   UNL     1       3.362   2.530  17.562  0.00  0.00    +0.000 A 
ATOM     19  C   UNL     1       3.598   1.334  18.241  0.00  0.00    +0.000 A 
ATOM     20  C   UNL     1       4.173   1.354  19.509  0.00  0.00    +0.000 A 
ATOM     21  C   UNL     1       4.521   2.569  20.097  0.00  0.00    +0.000 A 
ATOM     22  C   UNL     1       4.292   3.767  19.419  0.00  0.00    +0.000 A 
ENDBRANCH   8  17
TORSDOF 2
ENDMDL
MODEL 9
REMARK VINA RESULT:      -7.4      1.798      3.171
REMARK  Name = 
REMARK  3 active torsions:
REMARK  status: ('A' for Active; 'I' for Inactive)
REMARK    1  A    between atoms: C_1  and  C_2
REMARK    2  A    between atoms: C_6  and  C_7
REMARK    3  A    between atoms: C_16  and  C_17
REMARK                            x       y       z     vdW  Elec       q    Type
REMARK                         _______ _______ _______ _____ _____    ______ ____
ROOT
ATOM      1  C   UNL     1       6.779   6.799  17.176  0.00  0.00    +0.000 C 
ATOM      2  C   UNL     1       5.801   5.673  16.949  0.00  0.00    +0.000 C 
ATOM      3  O   UNL     1       6.124   4.664  16.319  0.00  0.00    +0.000 OA
ATOM      4  N   UNL     1       4.546   5.862  17.501  0.00  0.00    +0.000 N 
ATOM      5  N   UNL     1       4.157   7.067  18.026  0.00  0.00    +0.000 NA
ATOM      6  C   UNL     1       2.884   6.983  18.260  0.00  0.00    +0.000 C 
ATOM      7  C   UNL     1       2.245   5.662  17.913  0.00  0.00    +0.000 C 
ATOM      8  C   UNL     1       3.454   4.901  17.374  0.00  0.00    +0.000 C 
ENDROOT
BRANCH   6   9
ATOM      9  C   UNL     1       2.096   8.109  18.815  0.00  0.00    +0.000 A 
ATOM     10  C   UNL     1       1.749   9.174  17.974  0.00  0.00    +0.000 A 
ATOM     11  C   UNL     1       0.999  10.246  18.467  0.00  0.00    +0.000 A 
ATOM     12  C   UNL     1       0.592  10.261  19.802  0.00  0.00    +0.000 A 
ATOM     13 CL   UNL     1      -0.332  11.613  20.347  0.00  0.00    +0.000 Cl
ATOM     14  C   UNL     1       0.938   9.198  20.645  0.00  0.00    +0.000 A 
ATOM     15 CL   UNL     1       0.474   9.147  22.309  0.00  0.00    +0.000 Cl
ATOM     16  C   UNL     1       1.689   8.123  20.152  0.00  0.00    +0.000 A 
ENDBRANCH   6   9
BRANCH   8  17
ATOM     17  C   UNL     1       3.694   3.611  18.135  0.00  0.00    +0.000 A 
ATOM     18  C   UNL     1       4.224   3.655  19.435  0.00  0.00    +0.000 A 
ATOM     19  C   UNL     1       4.467   2.477  20.142  0.00  0.00    +0.000 A 
ATOM     20  C   UNL     1       4.187   1.243  19.560  0.00  0.00    +0.000 A 
ATOM     21  C   UNL     1       3.656   1.184  18.273  0.00  0.00    +0.000 A 
ATOM     22  C   UNL     1       3.406   2.360  17.564  0.00  0.00    +0.000 A 
ENDBRANCH   8  17
TORSDOF 2
ENDMDL
