MODEL 1
REMARK VINA RESULT:      -6.5      0.000      0.000
REMARK  Name = 
REMARK  17 active torsions:
REMARK  status: ('A' for Active; 'I' for Inactive)
REMARK    1  A    between atoms: C_1  and  C_2
REMARK    2  A    between atoms: C_2  and  C_3
REMARK    3  A    between atoms: C_3  and  C_4
REMARK    4  A    between atoms: C_4  and  C_5
REMARK    5  A    between atoms: C_5  and  C_6
REMARK    6  A    between atoms: C_6  and  C_7
REMARK    7  A    between atoms: C_7  and  C_8
REMARK    8  A    between atoms: C_8  and  C_9
REMARK    9  A    between atoms: C_9  and  C_10
REMARK   10  A    between atoms: C_10  and  C_11
REMARK   11  A    between atoms: C_11  and  C_12
REMARK   12  A    between atoms: C_12  and  C_13
REMARK   13  A    between atoms: C_13  and  C_14
REMARK   14  A    between atoms: C_15  and  C_16
REMARK   15  A    between atoms: C_16  and  O_17
REMARK   16  A    between atoms: C_16  and  C_18
REMARK   17  A    between atoms: C_24  and  C_26
REMARK                            x       y       z     vdW  Elec       q    Type
REMARK                         _______ _______ _______ _____ _____    ______ ____
ROOT
ATOM      1  C   UNL     1       2.742   6.345  18.315  0.00  0.00    +0.000 C 
ENDROOT
BRANCH   1   2
ATOM      2  C   UNL     1       4.157   5.714  18.376  0.00  0.00    +0.000 C 
ATOM      3  C   UNL     1       5.248   6.566  17.768  0.00  0.00    +0.000 C 
ATOM      4  O   UNL     1       5.413   6.048  16.453  0.00  0.00    +0.000 OA
ATOM      5  C   UNL     1       4.960   4.753  16.447  0.00  0.00    +0.000 C 
ATOM      6  O   UNL     1       5.181   4.017  15.496  0.00  0.00    +0.000 OA
ATOM      7  N   UNL     1       4.280   4.475  17.632  0.00  0.00    +0.000 N 
ATOM      8  C   UNL     1       3.659   3.254  17.869  0.00  0.00    +0.000 C 
ATOM      9  O   UNL     1       3.665   2.311  17.080  0.00  0.00    +0.000 OA
BRANCH   8  10
ATOM     10  C   UNL     1       2.885   3.037  19.129  0.00  0.00    +0.000 A 
ATOM     11  C   UNL     1       1.483   3.063  19.063  0.00  0.00    +0.000 A 
ATOM     12  C   UNL     1       0.717   2.923  20.224  0.00  0.00    +0.000 A 
ATOM     13  C   UNL     1       1.344   2.787  21.461  0.00  0.00    +0.000 A 
ATOM     14  C   UNL     1       2.732   2.711  21.530  0.00  0.00    +0.000 A 
ATOM     15  C   UNL     1       3.493   2.777  20.362  0.00  0.00    +0.000 A 
ENDBRANCH   8  10
ENDBRANCH   1   2
BRANCH   1  16
ATOM     16  O   UNL     1       2.095   6.257  19.585  0.00  0.00    +0.000 OA
ATOM     17  H   UNL     1       1.888   5.332  19.788  0.00  0.00    +0.000 HD
ENDBRANCH   1  16
BRANCH   1  19
ATOM     18  C   UNL     1       1.986   8.712  18.495  0.00  0.00    +0.000 C 
ATOM     19  C   UNL     1       2.699   7.766  17.850  0.00  0.00    +0.000 C 
BRANCH  18  20
ATOM     20  C   UNL     1       1.898  10.127  18.033  0.00  0.00    +0.000 C 
BRANCH  20  21
ATOM     21  C   UNL     1       0.663  10.809  18.624  0.00  0.00    +0.000 C 
BRANCH  21  22
ATOM     22  C   UNL     1      -0.628  10.087  18.251  0.00  0.00    +0.000 C 
BRANCH  22  23
ATOM     23  C   UNL     1      -1.674  11.048  17.696  0.00  0.00    +0.000 C 
BRANCH  23  24
ATOM     24  C   UNL     1      -2.660  11.471  18.772  0.00  0.00    +0.000 C 
BRANCH  24  25
ATOM     25  C   UNL     1      -2.202  12.781  19.402  0.00  0.00    +0.000 C 
BRANCH  25  26
ATOM     26  C   UNL     1      -2.440  12.758  20.902  0.00  0.00    +0.000 C 
BRANCH  26  27
ATOM     27  C   UNL     1      -1.238  13.326  21.643  0.00  0.00    +0.000 C 
BRANCH  27  28
ATOM     28  C   UNL     1      -0.874  12.431  22.820  0.00  0.00    +0.000 C 
BRANCH  28  29
ATOM     29  C   UNL     1      -1.320  10.997  22.569  0.00  0.00    +0.000 C 
BRANCH  29  30
ATOM     30  C   UNL     1      -0.415  10.017  23.310  0.00  0.00    +0.000 C 
BRANCH  30  32
ATOM     31  C   UNL     1      -0.175   8.389  21.417  0.00  0.00    +0.000 C 
ATOM     32  C   UNL     1       0.556   9.337  22.350  0.00  0.00    +0.000 C 
ENDBRANCH  30  32
ENDBRANCH  29  30
ENDBRANCH  28  29
ENDBRANCH  27  28
ENDBRANCH  26  27
ENDBRANCH  25  26
ENDBRANCH  24  25
ENDBRANCH  23  24
ENDBRANCH  22  23
ENDBRANCH  21  22
ENDBRANCH  20  21
ENDBRANCH  18  20
ENDBRANCH   1  19
TORSDOF 16
ENDMDL
MODEL 2
REMARK VINA RESULT:      -6.5      2.058      4.968
REMARK  Name = 
REMARK  17 active torsions:
REMARK  status: ('A' for Active; 'I' for Inactive)
REMARK    1  A    between atoms: C_1  and  C_2
REMARK    2  A    between atoms: C_2  and  C_3
REMARK    3  A    between atoms: C_3  and  C_4
REMARK    4  A    between atoms: C_4  and  C_5
REMARK    5  A    between atoms: C_5  and  C_6
REMARK    6  A    between atoms: C_6  and  C_7
REMARK    7  A    between atoms: C_7  and  C_8
REMARK    8  A    between atoms: C_8  and  C_9
REMARK    9  A    between atoms: C_9  and  C_10
REMARK   10  A    between atoms: C_10  and  C_11
REMARK   11  A    between atoms: C_11  and  C_12
REMARK   12  A    between atoms: C_12  and  C_13
REMARK   13  A    between atoms: C_13  and  C_14
REMARK   14  A    between atoms: C_15  and  C_16
REMARK   15  A    between atoms: C_16  and  O_17
REMARK   16  A    between atoms: C_16  and  C_18
REMARK   17  A    between atoms: C_24  and  C_26
REMARK                            x       y       z     vdW  Elec       q    Type
REMARK                         _______ _______ _______ _____ _____    ______ ____
ROOT
ATOM      1  C   UNL     1       2.480   6.198  19.701  0.00  0.00    +0.000 C 
ENDROOT
BRANCH   1   2
ATOM      2  C   UNL     1       2.101   4.729  19.382  0.00  0.00    +0.000 C 
ATOM      3  C   UNL     1       0.864   4.234  20.098  0.00  0.00    +0.000 C 
ATOM      4  O   UNL     1       1.364   3.533  21.230  0.00  0.00    +0.000 OA
ATOM      5  C   UNL     1       2.649   3.141  20.954  0.00  0.00    +0.000 C 
ATOM      6  O   UNL     1       3.230   2.345  21.677  0.00  0.00    +0.000 OA
ATOM      7  N   UNL     1       3.102   3.762  19.790  0.00  0.00    +0.000 N 
ATOM      8  C   UNL     1       4.396   3.596  19.308  0.00  0.00    +0.000 C 
ATOM      9  O   UNL     1       5.245   2.883  19.840  0.00  0.00    +0.000 OA
BRANCH   8  10
ATOM     10  C   UNL     1       4.848   4.342  18.094  0.00  0.00    +0.000 A 
ATOM     11  C   UNL     1       5.559   5.539  18.274  0.00  0.00    +0.000 A 
ATOM     12  C   UNL     1       5.950   6.301  17.170  0.00  0.00    +0.000 A 
ATOM     13  C   UNL     1       5.611   5.890  15.882  0.00  0.00    +0.000 A 
ATOM     14  C   UNL     1       4.949   4.680  15.693  0.00  0.00    +0.000 A 
ATOM     15  C   UNL     1       4.623   3.884  16.792  0.00  0.00    +0.000 A 
ENDBRANCH   8  10
ENDBRANCH   1   2
BRANCH   1  16
ATOM     16  O   UNL     1       2.333   7.020  18.541  0.00  0.00    +0.000 OA
ATOM     17  H   UNL     1       3.189   7.401  18.294  0.00  0.00    +0.000 HD
ENDBRANCH   1  16
BRANCH   1  19
ATOM     18  C   UNL     1       1.288   8.096  20.788  0.00  0.00    +0.000 C 
ATOM     19  C   UNL     1       1.724   6.821  20.831  0.00  0.00    +0.000 C 
BRANCH  18  20
ATOM     20  C   UNL     1       0.562   8.751  21.914  0.00  0.00    +0.000 C 
BRANCH  20  21
ATOM     21  C   UNL     1       0.326  10.231  21.613  0.00  0.00    +0.000 C 
BRANCH  21  22
ATOM     22  C   UNL     1       1.077  10.693  20.368  0.00  0.00    +0.000 C 
BRANCH  22  23
ATOM     23  C   UNL     1       0.590  12.055  19.885  0.00  0.00    +0.000 C 
BRANCH  23  24
ATOM     24  C   UNL     1      -0.765  12.399  20.481  0.00  0.00    +0.000 C 
BRANCH  24  25
ATOM     25  C   UNL     1      -1.870  11.777  19.635  0.00  0.00    +0.000 C 
BRANCH  25  26
ATOM     26  C   UNL     1      -1.425  11.662  18.187  0.00  0.00    +0.000 C 
BRANCH  26  27
ATOM     27  C   UNL     1      -1.375  10.203  17.758  0.00  0.00    +0.000 C 
BRANCH  27  28
ATOM     28  C   UNL     1      -2.778   9.693  17.459  0.00  0.00    +0.000 C 
BRANCH  28  29
ATOM     29  C   UNL     1      -3.157   9.968  16.009  0.00  0.00    +0.000 C 
BRANCH  29  30
ATOM     30  C   UNL     1      -4.115  11.153  15.922  0.00  0.00    +0.000 C 
BRANCH  30  32
ATOM     31  C   UNL     1      -5.853  12.494  17.134  0.00  0.00    +0.000 C 
ATOM     32  C   UNL     1      -4.932  11.289  17.202  0.00  0.00    +0.000 C 
ENDBRANCH  30  32
ENDBRANCH  29  30
ENDBRANCH  28  29
ENDBRANCH  27  28
ENDBRANCH  26  27
ENDBRANCH  25  26
ENDBRANCH  24  25
ENDBRANCH  23  24
ENDBRANCH  22  23
ENDBRANCH  21  22
ENDBRANCH  20  21
ENDBRANCH  18  20
ENDBRANCH   1  19
TORSDOF 16
ENDMDL
MODEL 3
REMARK VINA RESULT:      -6.3      2.166      4.711
REMARK  Name = 
REMARK  17 active torsions:
REMARK  status: ('A' for Active; 'I' for Inactive)
REMARK    1  A    between atoms: C_1  and  C_2
REMARK    2  A    between atoms: C_2  and  C_3
REMARK    3  A    between atoms: C_3  and  C_4
REMARK    4  A    between atoms: C_4  and  C_5
REMARK    5  A    between atoms: C_5  and  C_6
REMARK    6  A    between atoms: C_6  and  C_7
REMARK    7  A    between atoms: C_7  and  C_8
REMARK    8  A    between atoms: C_8  and  C_9
REMARK    9  A    between atoms: C_9  and  C_10
REMARK   10  A    between atoms: C_10  and  C_11
REMARK   11  A    between atoms: C_11  and  C_12
REMARK   12  A    between atoms: C_12  and  C_13
REMARK   13  A    between atoms: C_13  and  C_14
REMARK   14  A    between atoms: C_15  and  C_16
REMARK   15  A    between atoms: C_16  and  O_17
REMARK   16  A    between atoms: C_16  and  C_18
REMARK   17  A    between atoms: C_24  and  C_26
REMARK                            x       y       z     vdW  Elec       q    Type
REMARK                         _______ _______ _______ _____ _____    ______ ____
ROOT
ATOM      1  C   UNL     1       2.626   5.947  19.825  0.00  0.00    +0.000 C 
ENDROOT
BRANCH   1   2
ATOM      2  C   UNL     1       2.163   4.496  19.539  0.00  0.00    +0.000 C 
ATOM      3  C   UNL     1       0.859   4.114  20.202  0.00  0.00    +0.000 C 
ATOM      4  O   UNL     1       1.248   3.427  21.385  0.00  0.00    +0.000 OA
ATOM      5  C   UNL     1       2.516   2.939  21.196  0.00  0.00    +0.000 C 
ATOM      6  O   UNL     1       3.001   2.136  21.979  0.00  0.00    +0.000 OA
ATOM      7  N   UNL     1       3.072   3.480  20.037  0.00  0.00    +0.000 N 
ATOM      8  C   UNL     1       4.375   3.209  19.635  0.00  0.00    +0.000 C 
ATOM      9  O   UNL     1       5.143   2.462  20.239  0.00  0.00    +0.000 OA
BRANCH   8  10
ATOM     10  C   UNL     1       4.942   3.873  18.422  0.00  0.00    +0.000 A 
ATOM     11  C   UNL     1       5.986   4.794  18.593  0.00  0.00    +0.000 A 
ATOM     12  C   UNL     1       6.508   5.484  17.495  0.00  0.00    +0.000 A 
ATOM     13  C   UNL     1       5.972   5.282  16.225  0.00  0.00    +0.000 A 
ATOM     14  C   UNL     1       4.970   4.333  16.039  0.00  0.00    +0.000 A 
ATOM     15  C   UNL     1       4.500   3.593  17.124  0.00  0.00    +0.000 A 
ENDBRANCH   8  10
ENDBRANCH   1   2
BRANCH   1  16
ATOM     16  O   UNL     1       3.149   6.552  18.640  0.00  0.00    +0.000 OA
ATOM     17  H   UNL     1       2.441   6.669  17.988  0.00  0.00    +0.000 HD
ENDBRANCH   1  16
BRANCH   1  19
ATOM     18  C   UNL     1       1.686   8.191  20.361  0.00  0.00    +0.000 C 
ATOM     19  C   UNL     1       1.581   6.847  20.403  0.00  0.00    +0.000 C 
BRANCH  18  20
ATOM     20  C   UNL     1       0.675   9.109  20.960  0.00  0.00    +0.000 C 
BRANCH  20  21
ATOM     21  C   UNL     1       0.571  10.399  20.145  0.00  0.00    +0.000 C 
BRANCH  21  22
ATOM     22  C   UNL     1      -0.875  10.848  19.959  0.00  0.00    +0.000 C 
BRANCH  22  23
ATOM     23  C   UNL     1      -1.177  11.199  18.506  0.00  0.00    +0.000 C 
BRANCH  23  24
ATOM     24  C   UNL     1      -1.328   9.948  17.656  0.00  0.00    +0.000 C 
BRANCH  24  25
ATOM     25  C   UNL     1      -2.336  10.202  16.542  0.00  0.00    +0.000 C 
BRANCH  25  26
ATOM     26  C   UNL     1      -3.170  11.433  16.856  0.00  0.00    +0.000 C 
BRANCH  26  27
ATOM     27  C   UNL     1      -4.651  11.085  16.874  0.00  0.00    +0.000 C 
BRANCH  27  28
ATOM     28  C   UNL     1      -5.392  11.985  17.853  0.00  0.00    +0.000 C 
BRANCH  28  29
ATOM     29  C   UNL     1      -4.824  11.841  19.258  0.00  0.00    +0.000 C 
BRANCH  29  30
ATOM     30  C   UNL     1      -5.761  12.475  20.282  0.00  0.00    +0.000 C 
BRANCH  30  32
ATOM     31  C   UNL     1      -3.624  13.686  20.789  0.00  0.00    +0.000 C 
ATOM     32  C   UNL     1      -4.977  13.259  21.329  0.00  0.00    +0.000 C 
ENDBRANCH  30  32
ENDBRANCH  29  30
ENDBRANCH  28  29
ENDBRANCH  27  28
ENDBRANCH  26  27
ENDBRANCH  25  26
ENDBRANCH  24  25
ENDBRANCH  23  24
ENDBRANCH  22  23
ENDBRANCH  21  22
ENDBRANCH  20  21
ENDBRANCH  18  20
ENDBRANCH   1  19
TORSDOF 16
ENDMDL
MODEL 4
REMARK VINA RESULT:      -6.3      4.930      7.455
REMARK  Name = 
REMARK  17 active torsions:
REMARK  status: ('A' for Active; 'I' for Inactive)
REMARK    1  A    between atoms: C_1  and  C_2
REMARK    2  A    between atoms: C_2  and  C_3
REMARK    3  A    between atoms: C_3  and  C_4
REMARK    4  A    between atoms: C_4  and  C_5
REMARK    5  A    between atoms: C_5  and  C_6
REMARK    6  A    between atoms: C_6  and  C_7
REMARK    7  A    between atoms: C_7  and  C_8
REMARK    8  A    between atoms: C_8  and  C_9
REMARK    9  A    between atoms: C_9  and  C_10
REMARK   10  A    between atoms: C_10  and  C_11
REMARK   11  A    between atoms: C_11  and  C_12
REMARK   12  A    between atoms: C_12  and  C_13
REMARK   13  A    between atoms: C_13  and  C_14
REMARK   14  A    between atoms: C_15  and  C_16
REMARK   15  A    between atoms: C_16  and  O_17
REMARK   16  A    between atoms: C_16  and  C_18
REMARK   17  A    between atoms: C_24  and  C_26
REMARK                            x       y       z     vdW  Elec       q    Type
REMARK                         _______ _______ _______ _____ _____    ______ ____
ROOT
ATOM      1  C   UNL     1       5.263   4.653  18.699  0.00  0.00    +0.000 C 
ENDROOT
BRANCH   1   2
ATOM      2  C   UNL     1       4.212   4.957  17.600  0.00  0.00    +0.000 C 
ATOM      3  C   UNL     1       4.798   5.423  16.287  0.00  0.00    +0.000 C 
ATOM      4  O   UNL     1       4.701   6.841  16.335  0.00  0.00    +0.000 OA
ATOM      5  C   UNL     1       3.704   7.168  17.219  0.00  0.00    +0.000 C 
ATOM      6  O   UNL     1       3.279   8.312  17.288  0.00  0.00    +0.000 OA
ATOM      7  N   UNL     1       3.307   6.040  17.936  0.00  0.00    +0.000 N 
ATOM      8  C   UNL     1       2.354   6.093  18.948  0.00  0.00    +0.000 C 
ATOM      9  O   UNL     1       1.765   7.118  19.288  0.00  0.00    +0.000 OA
BRANCH   8  10
ATOM     10  C   UNL     1       2.019   4.865  19.730  0.00  0.00    +0.000 A 
ATOM     11  C   UNL     1       2.496   4.762  21.046  0.00  0.00    +0.000 A 
ATOM     12  C   UNL     1       2.258   3.607  21.797  0.00  0.00    +0.000 A 
ATOM     13  C   UNL     1       1.569   2.536  21.230  0.00  0.00    +0.000 A 
ATOM     14  C   UNL     1       1.050   2.650  19.943  0.00  0.00    +0.000 A 
ATOM     15  C   UNL     1       1.225   3.831  19.222  0.00  0.00    +0.000 A 
ENDBRANCH   8  10
ENDBRANCH   1   2
BRANCH   1  16
ATOM     16  O   UNL     1       6.055   3.520  18.340  0.00  0.00    +0.000 OA
ATOM     17  H   UNL     1       6.670   3.304  19.057  0.00  0.00    +0.000 HD
ENDBRANCH   1  16
BRANCH   1  19
ATOM     18  C   UNL     1       7.298   6.044  18.338  0.00  0.00    +0.000 C 
ATOM     19  C   UNL     1       6.175   5.788  19.039  0.00  0.00    +0.000 C 
BRANCH  18  20
ATOM     20  C   UNL     1       8.242   7.147  18.677  0.00  0.00    +0.000 C 
BRANCH  20  21
ATOM     21  C   UNL     1       8.235   8.216  17.582  0.00  0.00    +0.000 C 
BRANCH  21  22
ATOM     22  C   UNL     1       8.032   9.619  18.147  0.00  0.00    +0.000 C 
BRANCH  22  23
ATOM     23  C   UNL     1       9.124   9.991  19.145  0.00  0.00    +0.000 C 
BRANCH  23  24
ATOM     24  C   UNL     1      10.183  10.870  18.501  0.00  0.00    +0.000 C 
BRANCH  24  25
ATOM     25  C   UNL     1       9.517  12.059  17.818  0.00  0.00    +0.000 C 
BRANCH  25  26
ATOM     26  C   UNL     1      10.561  13.082  17.403  0.00  0.00    +0.000 C 
BRANCH  26  27
ATOM     27  C   UNL     1      10.428  14.349  18.235  0.00  0.00    +0.000 C 
BRANCH  27  28
ATOM     28  C   UNL     1       8.980  14.550  18.660  0.00  0.00    +0.000 C 
BRANCH  28  29
ATOM     29  C   UNL     1       8.884  14.781  20.163  0.00  0.00    +0.000 C 
BRANCH  29  30
ATOM     30  C   UNL     1      10.039  14.093  20.885  0.00  0.00    +0.000 C 
BRANCH  30  32
ATOM     31  C   UNL     1       8.894  12.988  22.825  0.00  0.00    +0.000 C 
ATOM     32  C   UNL     1       9.590  12.768  21.494  0.00  0.00    +0.000 C 
ENDBRANCH  30  32
ENDBRANCH  29  30
ENDBRANCH  28  29
ENDBRANCH  27  28
ENDBRANCH  26  27
ENDBRANCH  25  26
ENDBRANCH  24  25
ENDBRANCH  23  24
ENDBRANCH  22  23
ENDBRANCH  21  22
ENDBRANCH  20  21
ENDBRANCH  18  20
ENDBRANCH   1  19
TORSDOF 16
ENDMDL
MODEL 5
REMARK VINA RESULT:      -6.3      2.261      4.988
REMARK  Name = 
REMARK  17 active torsions:
REMARK  status: ('A' for Active; 'I' for Inactive)
REMARK    1  A    between atoms: C_1  and  C_2
REMARK    2  A    between atoms: C_2  and  C_3
REMARK    3  A    between atoms: C_3  and  C_4
REMARK    4  A    between atoms: C_4  and  C_5
REMARK    5  A    between atoms: C_5  and  C_6
REMARK    6  A    between atoms: C_6  and  C_7
REMARK    7  A    between atoms: C_7  and  C_8
REMARK    8  A    between atoms: C_8  and  C_9
REMARK    9  A    between atoms: C_9  and  C_10
REMARK   10  A    between atoms: C_10  and  C_11
REMARK   11  A    between atoms: C_11  and  C_12
REMARK   12  A    between atoms: C_12  and  C_13
REMARK   13  A    between atoms: C_13  and  C_14
REMARK   14  A    between atoms: C_15  and  C_16
REMARK   15  A    between atoms: C_16  and  O_17
REMARK   16  A    between atoms: C_16  and  C_18
REMARK   17  A    between atoms: C_24  and  C_26
REMARK                            x       y       z     vdW  Elec       q    Type
REMARK                         _______ _______ _______ _____ _____    ______ ____
ROOT
ATOM      1  C   UNL     1       2.607   6.029  19.636  0.00  0.00    +0.000 C 
ENDROOT
BRANCH   1   2
ATOM      2  C   UNL     1       2.165   4.563  19.390  0.00  0.00    +0.000 C 
ATOM      3  C   UNL     1       0.862   4.183  20.054  0.00  0.00    +0.000 C 
ATOM      4  O   UNL     1       1.251   3.537  21.260  0.00  0.00    +0.000 OA
ATOM      5  C   UNL     1       2.527   3.061  21.094  0.00  0.00    +0.000 C 
ATOM      6  O   UNL     1       3.016   2.287  21.904  0.00  0.00    +0.000 OA
ATOM      7  N   UNL     1       3.084   3.575  19.924  0.00  0.00    +0.000 N 
ATOM      8  C   UNL     1       4.394   3.310  19.539  0.00  0.00    +0.000 C 
ATOM      9  O   UNL     1       5.167   2.592  20.171  0.00  0.00    +0.000 OA
BRANCH   8  10
ATOM     10  C   UNL     1       4.960   3.946  18.311  0.00  0.00    +0.000 A 
ATOM     11  C   UNL     1       5.990   4.888  18.463  0.00  0.00    +0.000 A 
ATOM     12  C   UNL     1       6.510   5.553  17.349  0.00  0.00    +0.000 A 
ATOM     13  C   UNL     1       5.988   5.303  16.081  0.00  0.00    +0.000 A 
ATOM     14  C   UNL     1       5.002   4.335  15.916  0.00  0.00    +0.000 A 
ATOM     15  C   UNL     1       4.534   3.620  17.019  0.00  0.00    +0.000 A 
ENDBRANCH   8  10
ENDBRANCH   1   2
BRANCH   1  16
ATOM     16  O   UNL     1       3.037   6.637  18.416  0.00  0.00    +0.000 OA
ATOM     17  H   UNL     1       2.270   6.966  17.922  0.00  0.00    +0.000 HD
ENDBRANCH   1  16
BRANCH   1  19
ATOM     18  C   UNL     1       1.893   7.828  21.203  0.00  0.00    +0.000 C 
ATOM     19  C   UNL     1       1.577   6.905  20.273  0.00  0.00    +0.000 C 
BRANCH  18  20
ATOM     20  C   UNL     1       0.881   8.690  21.879  0.00  0.00    +0.000 C 
BRANCH  20  21
ATOM     21  C   UNL     1       0.040   9.442  20.846  0.00  0.00    +0.000 C 
BRANCH  21  22
ATOM     22  C   UNL     1       0.695  10.749  20.409  0.00  0.00    +0.000 C 
BRANCH  22  23
ATOM     23  C   UNL     1       0.176  11.218  19.055  0.00  0.00    +0.000 C 
BRANCH  23  24
ATOM     24  C   UNL     1      -0.427  10.068  18.266  0.00  0.00    +0.000 C 
BRANCH  24  25
ATOM     25  C   UNL     1      -1.917  10.313  18.058  0.00  0.00    +0.000 C 
BRANCH  25  26
ATOM     26  C   UNL     1      -2.290  10.095  16.602  0.00  0.00    +0.000 C 
BRANCH  26  27
ATOM     27  C   UNL     1      -3.456  10.990  16.209  0.00  0.00    +0.000 C 
BRANCH  27  28
ATOM     28  C   UNL     1      -4.650  10.729  17.117  0.00  0.00    +0.000 C 
BRANCH  28  29
ATOM     29  C   UNL     1      -5.229  12.036  17.641  0.00  0.00    +0.000 C 
BRANCH  29  30
ATOM     30  C   UNL     1      -4.886  12.221  19.117  0.00  0.00    +0.000 C 
BRANCH  30  32
ATOM     31  C   UNL     1      -7.346  11.765  19.306  0.00  0.00    +0.000 C 
ATOM     32  C   UNL     1      -6.147  12.441  19.946  0.00  0.00    +0.000 C 
ENDBRANCH  30  32
ENDBRANCH  29  30
ENDBRANCH  28  29
ENDBRANCH  27  28
ENDBRANCH  26  27
ENDBRANCH  25  26
ENDBRANCH  24  25
ENDBRANCH  23  24
ENDBRANCH  22  23
ENDBRANCH  21  22
ENDBRANCH  20  21
ENDBRANCH  18  20
ENDBRANCH   1  19
TORSDOF 16
ENDMDL
MODEL 6
REMARK VINA RESULT:      -6.3      2.506      4.860
REMARK  Name = 
REMARK  17 active torsions:
REMARK  status: ('A' for Active; 'I' for Inactive)
REMARK    1  A    between atoms: C_1  and  C_2
REMARK    2  A    between atoms: C_2  and  C_3
REMARK    3  A    between atoms: C_3  and  C_4
REMARK    4  A    between atoms: C_4  and  C_5
REMARK    5  A    between atoms: C_5  and  C_6
REMARK    6  A    between atoms: C_6  and  C_7
REMARK    7  A    between atoms: C_7  and  C_8
REMARK    8  A    between atoms: C_8  and  C_9
REMARK    9  A    between atoms: C_9  and  C_10
REMARK   10  A    between atoms: C_10  and  C_11
REMARK   11  A    between atoms: C_11  and  C_12
REMARK   12  A    between atoms: C_12  and  C_13
REMARK   13  A    between atoms: C_13  and  C_14
REMARK   14  A    between atoms: C_15  and  C_16
REMARK   15  A    between atoms: C_16  and  O_17
REMARK   16  A    between atoms: C_16  and  C_18
REMARK   17  A    between atoms: C_24  and  C_26
REMARK                            x       y       z     vdW  Elec       q    Type
REMARK                         _______ _______ _______ _____ _____    ______ ____
ROOT
ATOM      1  C   UNL     1       2.441   6.041  19.859  0.00  0.00    +0.000 C 
ENDROOT
BRANCH   1   2
ATOM      2  C   UNL     1       2.072   4.573  19.525  0.00  0.00    +0.000 C 
ATOM      3  C   UNL     1       0.820   4.072  20.210  0.00  0.00    +0.000 C 
ATOM      4  O   UNL     1       1.295   3.366  21.350  0.00  0.00    +0.000 OA
ATOM      5  C   UNL     1       2.587   2.978  21.101  0.00  0.00    +0.000 C 
ATOM      6  O   UNL     1       3.152   2.179  21.833  0.00  0.00    +0.000 OA
ATOM      7  N   UNL     1       3.066   3.605  19.951  0.00  0.00    +0.000 N 
ATOM      8  C   UNL     1       4.371   3.444  19.498  0.00  0.00    +0.000 C 
ATOM      9  O   UNL     1       5.208   2.729  20.046  0.00  0.00    +0.000 OA
BRANCH   8  10
ATOM     10  C   UNL     1       4.848   4.196  18.298  0.00  0.00    +0.000 A 
ATOM     11  C   UNL     1       4.498   3.714  17.027  0.00  0.00    +0.000 A 
ATOM     12  C   UNL     1       4.970   4.350  15.875  0.00  0.00    +0.000 A 
ATOM     13  C   UNL     1       5.817   5.451  15.984  0.00  0.00    +0.000 A 
ATOM     14  C   UNL     1       6.129   5.965  17.240  0.00  0.00    +0.000 A 
ATOM     15  C   UNL     1       5.599   5.373  18.386  0.00  0.00    +0.000 A 
ENDBRANCH   8  10
ENDBRANCH   1   2
BRANCH   1  16
ATOM     16  O   UNL     1       2.560   6.815  18.664  0.00  0.00    +0.000 OA
ATOM     17  H   UNL     1       2.485   6.240  17.887  0.00  0.00    +0.000 HD
ENDBRANCH   1  16
BRANCH   1  19
ATOM     18  C   UNL     1       1.273   8.064  20.723  0.00  0.00    +0.000 C 
ATOM     19  C   UNL     1       1.503   6.737  20.792  0.00  0.00    +0.000 C 
BRANCH  18  20
ATOM     20  C   UNL     1       0.369   8.788  21.663  0.00  0.00    +0.000 C 
BRANCH  20  21
ATOM     21  C   UNL     1       0.883  10.205  21.918  0.00  0.00    +0.000 C 
BRANCH  21  22
ATOM     22  C   UNL     1      -0.200  11.258  21.706  0.00  0.00    +0.000 C 
BRANCH  22  23
ATOM     23  C   UNL     1      -1.296  11.164  22.763  0.00  0.00    +0.000 C 
BRANCH  23  24
ATOM     24  C   UNL     1      -1.894  12.529  23.060  0.00  0.00    +0.000 C 
BRANCH  24  25
ATOM     25  C   UNL     1      -3.323  12.590  22.533  0.00  0.00    +0.000 C 
BRANCH  25  26
ATOM     26  C   UNL     1      -3.322  12.833  21.033  0.00  0.00    +0.000 C 
BRANCH  26  27
ATOM     27  C   UNL     1      -4.743  13.013  20.520  0.00  0.00    +0.000 C 
BRANCH  27  28
ATOM     28  C   UNL     1      -5.743  12.508  21.550  0.00  0.00    +0.000 C 
BRANCH  28  29
ATOM     29  C   UNL     1      -6.985  11.947  20.871  0.00  0.00    +0.000 C 
BRANCH  29  30
ATOM     30  C   UNL     1      -6.705  11.657  19.399  0.00  0.00    +0.000 C 
BRANCH  30  32
ATOM     31  C   UNL     1      -7.436   9.423  20.275  0.00  0.00    +0.000 C 
ATOM     32  C   UNL     1      -6.809  10.164  19.107  0.00  0.00    +0.000 C 
ENDBRANCH  30  32
ENDBRANCH  29  30
ENDBRANCH  28  29
ENDBRANCH  27  28
ENDBRANCH  26  27
ENDBRANCH  25  26
ENDBRANCH  24  25
ENDBRANCH  23  24
ENDBRANCH  22  23
ENDBRANCH  21  22
ENDBRANCH  20  21
ENDBRANCH  18  20
ENDBRANCH   1  19
TORSDOF 16
ENDMDL
MODEL 7
REMARK VINA RESULT:      -6.2      2.231      4.667
REMARK  Name = 
REMARK  17 active torsions:
REMARK  status: ('A' for Active; 'I' for Inactive)
REMARK    1  A    between atoms: C_1  and  C_2
REMARK    2  A    between atoms: C_2  and  C_3
REMARK    3  A    between atoms: C_3  and  C_4
REMARK    4  A    between atoms: C_4  and  C_5
REMARK    5  A    between atoms: C_5  and  C_6
REMARK    6  A    between atoms: C_6  and  C_7
REMARK    7  A    between atoms: C_7  and  C_8
REMARK    8  A    between atoms: C_8  and  C_9
REMARK    9  A    between atoms: C_9  and  C_10
REMARK   10  A    between atoms: C_10  and  C_11
REMARK   11  A    between atoms: C_11  and  C_12
REMARK   12  A    between atoms: C_12  and  C_13
REMARK   13  A    between atoms: C_13  and  C_14
REMARK   14  A    between atoms: C_15  and  C_16
REMARK   15  A    between atoms: C_16  and  O_17
REMARK   16  A    between atoms: C_16  and  C_18
REMARK   17  A    between atoms: C_24  and  C_26
REMARK                            x       y       z     vdW  Elec       q    Type
REMARK                         _______ _______ _______ _____ _____    ______ ____
ROOT
ATOM      1  C   UNL     1       2.573   5.958  19.702  0.00  0.00    +0.000 C 
ENDROOT
BRANCH   1   2
ATOM      2  C   UNL     1       2.156   4.490  19.430  0.00  0.00    +0.000 C 
ATOM      3  C   UNL     1       0.848   4.083  20.070  0.00  0.00    +0.000 C 
ATOM      4  O   UNL     1       1.228   3.426  21.272  0.00  0.00    +0.000 OA
ATOM      5  C   UNL     1       2.513   2.970  21.119  0.00  0.00    +0.000 C 
ATOM      6  O   UNL     1       3.001   2.192  21.926  0.00  0.00    +0.000 OA
ATOM      7  N   UNL     1       3.081   3.508  19.965  0.00  0.00    +0.000 N 
ATOM      8  C   UNL     1       4.399   3.266  19.596  0.00  0.00    +0.000 C 
ATOM      9  O   UNL     1       5.173   2.550  20.230  0.00  0.00    +0.000 OA
BRANCH   8  10
ATOM     10  C   UNL     1       4.975   3.926  18.385  0.00  0.00    +0.000 A 
ATOM     11  C   UNL     1       4.425   3.615  17.132  0.00  0.00    +0.000 A 
ATOM     12  C   UNL     1       4.968   4.162  15.966  0.00  0.00    +0.000 A 
ATOM     13  C   UNL     1       6.079   4.999  16.039  0.00  0.00    +0.000 A 
ATOM     14  C   UNL     1       6.600   5.352  17.282  0.00  0.00    +0.000 A 
ATOM     15  C   UNL     1       6.012   4.863  18.448  0.00  0.00    +0.000 A 
ENDBRANCH   8  10
ENDBRANCH   1   2
BRANCH   1  16
ATOM     16  O   UNL     1       3.092   6.563  18.516  0.00  0.00    +0.000 OA
ATOM     17  H   UNL     1       3.794   6.009  18.142  0.00  0.00    +0.000 HD
ENDBRANCH   1  16
BRANCH   1  19
ATOM     18  C   UNL     1       1.728   8.104  20.643  0.00  0.00    +0.000 C 
ATOM     19  C   UNL     1       1.495   6.834  20.256  0.00  0.00    +0.000 C 
BRANCH  18  20
ATOM     20  C   UNL     1       0.679   8.987  21.230  0.00  0.00    +0.000 C 
BRANCH  20  21
ATOM     21  C   UNL     1       0.510  10.253  20.389  0.00  0.00    +0.000 C 
BRANCH  21  22
ATOM     22  C   UNL     1      -0.871  10.337  19.745  0.00  0.00    +0.000 C 
BRANCH  22  23
ATOM     23  C   UNL     1      -0.796  10.222  18.226  0.00  0.00    +0.000 C 
BRANCH  23  24
ATOM     24  C   UNL     1      -2.159   9.919  17.627  0.00  0.00    +0.000 C 
BRANCH  24  25
ATOM     25  C   UNL     1      -2.532  11.003  16.623  0.00  0.00    +0.000 C 
BRANCH  25  26
ATOM     26  C   UNL     1      -4.037  11.210  16.603  0.00  0.00    +0.000 C 
BRANCH  26  27
ATOM     27  C   UNL     1      -4.643  10.858  17.954  0.00  0.00    +0.000 C 
BRANCH  27  28
ATOM     28  C   UNL     1      -5.074  12.123  18.683  0.00  0.00    +0.000 C 
BRANCH  28  29
ATOM     29  C   UNL     1      -4.068  12.495  19.764  0.00  0.00    +0.000 C 
BRANCH  29  30
ATOM     30  C   UNL     1      -4.761  12.627  21.118  0.00  0.00    +0.000 C 
BRANCH  30  32
ATOM     31  C   UNL     1      -6.271  14.087  22.487  0.00  0.00    +0.000 C 
ATOM     32  C   UNL     1      -5.307  14.036  21.316  0.00  0.00    +0.000 C 
ENDBRANCH  30  32
ENDBRANCH  29  30
ENDBRANCH  28  29
ENDBRANCH  27  28
ENDBRANCH  26  27
ENDBRANCH  25  26
ENDBRANCH  24  25
ENDBRANCH  23  24
ENDBRANCH  22  23
ENDBRANCH  21  22
ENDBRANCH  20  21
ENDBRANCH  18  20
ENDBRANCH   1  19
TORSDOF 16
ENDMDL
MODEL 8
REMARK VINA RESULT:      -6.2      1.681      3.321
REMARK  Name = 
REMARK  17 active torsions:
REMARK  status: ('A' for Active; 'I' for Inactive)
REMARK    1  A    between atoms: C_1  and  C_2
REMARK    2  A    between atoms: C_2  and  C_3
REMARK    3  A    between atoms: C_3  and  C_4
REMARK    4  A    between atoms: C_4  and  C_5
REMARK    5  A    between atoms: C_5  and  C_6
REMARK    6  A    between atoms: C_6  and  C_7
REMARK    7  A    between atoms: C_7  and  C_8
REMARK    8  A    between atoms: C_8  and  C_9
REMARK    9  A    between atoms: C_9  and  C_10
REMARK   10  A    between atoms: C_10  and  C_11
REMARK   11  A    between atoms: C_11  and  C_12
REMARK   12  A    between atoms: C_12  and  C_13
REMARK   13  A    between atoms: C_13  and  C_14
REMARK   14  A    between atoms: C_15  and  C_16
REMARK   15  A    between atoms: C_16  and  O_17
REMARK   16  A    between atoms: C_16  and  C_18
REMARK   17  A    between atoms: C_24  and  C_26
REMARK                            x       y       z     vdW  Elec       q    Type
REMARK                         _______ _______ _______ _____ _____    ______ ____
ROOT
ATOM      1  C   UNL     1       4.711   7.486  17.011  0.00  0.00    +0.000 C 
ENDROOT
BRANCH   1   2
ATOM      2  C   UNL     1       5.846   6.662  17.673  0.00  0.00    +0.000 C 
ATOM      3  C   UNL     1       7.230   7.241  17.483  0.00  0.00    +0.000 C 
ATOM      4  O   UNL     1       7.770   6.520  16.382  0.00  0.00    +0.000 OA
ATOM      5  C   UNL     1       7.107   5.321  16.293  0.00  0.00    +0.000 C 
ATOM      6  O   UNL     1       7.519   4.431  15.564  0.00  0.00    +0.000 OA
ATOM      7  N   UNL     1       5.993   5.324  17.131  0.00  0.00    +0.000 N 
ATOM      8  C   UNL     1       5.101   4.259  17.193  0.00  0.00    +0.000 C 
ATOM      9  O   UNL     1       5.217   3.223  16.543  0.00  0.00    +0.000 OA
BRANCH   8  10
ATOM     10  C   UNL     1       3.885   4.347  18.058  0.00  0.00    +0.000 A 
ATOM     11  C   UNL     1       2.625   4.230  17.451  0.00  0.00    +0.000 A 
ATOM     12  C   UNL     1       1.458   4.365  18.209  0.00  0.00    +0.000 A 
ATOM     13  C   UNL     1       1.541   4.645  19.572  0.00  0.00    +0.000 A 
ATOM     14  C   UNL     1       2.786   4.713  20.191  0.00  0.00    +0.000 A 
ATOM     15  C   UNL     1       3.947   4.507  19.447  0.00  0.00    +0.000 A 
ENDBRANCH   8  10
ENDBRANCH   1   2
BRANCH   1  16
ATOM     16  O   UNL     1       4.405   6.971  15.715  0.00  0.00    +0.000 OA
ATOM     17  H   UNL     1       5.223   6.804  15.222  0.00  0.00    +0.000 HD
ENDBRANCH   1  16
BRANCH   1  19
ATOM     18  C   UNL     1       2.600   8.621  17.690  0.00  0.00    +0.000 C 
ATOM     19  C   UNL     1       3.446   7.578  17.803  0.00  0.00    +0.000 C 
BRANCH  18  20
ATOM     20  C   UNL     1       1.351   8.754  18.493  0.00  0.00    +0.000 C 
BRANCH  20  21
ATOM     21  C   UNL     1       1.629   8.473  19.970  0.00  0.00    +0.000 C 
BRANCH  21  22
ATOM     22  C   UNL     1       0.366   8.559  20.822  0.00  0.00    +0.000 C 
BRANCH  22  23
ATOM     23  C   UNL     1       0.691   8.738  22.300  0.00  0.00    +0.000 C 
BRANCH  23  24
ATOM     24  C   UNL     1       0.044   9.994  22.860  0.00  0.00    +0.000 C 
BRANCH  24  25
ATOM     25  C   UNL     1      -0.750  10.694  21.763  0.00  0.00    +0.000 C 
BRANCH  25  26
ATOM     26  C   UNL     1      -0.026  11.950  21.307  0.00  0.00    +0.000 C 
BRANCH  26  27
ATOM     27  C   UNL     1      -0.317  12.231  19.840  0.00  0.00    +0.000 C 
BRANCH  27  28
ATOM     28  C   UNL     1      -1.771  12.642  19.660  0.00  0.00    +0.000 C 
BRANCH  28  29
ATOM     29  C   UNL     1      -2.523  11.621  18.817  0.00  0.00    +0.000 C 
BRANCH  29  30
ATOM     30  C   UNL     1      -1.617  11.059  17.724  0.00  0.00    +0.000 C 
BRANCH  30  32
ATOM     31  C   UNL     1      -2.694  10.266  15.602  0.00  0.00    +0.000 C 
ATOM     32  C   UNL     1      -2.284   9.886  17.013  0.00  0.00    +0.000 C 
ENDBRANCH  30  32
ENDBRANCH  29  30
ENDBRANCH  28  29
ENDBRANCH  27  28
ENDBRANCH  26  27
ENDBRANCH  25  26
ENDBRANCH  24  25
ENDBRANCH  23  24
ENDBRANCH  22  23
ENDBRANCH  21  22
ENDBRANCH  20  21
ENDBRANCH  18  20
ENDBRANCH   1  19
TORSDOF 16
ENDMDL
MODEL 9
REMARK VINA RESULT:      -6.1      2.421      4.508
REMARK  Name = 
REMARK  17 active torsions:
REMARK  status: ('A' for Active; 'I' for Inactive)
REMARK    1  A    between atoms: C_1  and  C_2
REMARK    2  A    between atoms: C_2  and  C_3
REMARK    3  A    between atoms: C_3  and  C_4
REMARK    4  A    between atoms: C_4  and  C_5
REMARK    5  A    between atoms: C_5  and  C_6
REMARK    6  A    between atoms: C_6  and  C_7
REMARK    7  A    between atoms: C_7  and  C_8
REMARK    8  A    between atoms: C_8  and  C_9
REMARK    9  A    between atoms: C_9  and  C_10
REMARK   10  A    between atoms: C_10  and  C_11
REMARK   11  A    between atoms: C_11  and  C_12
REMARK   12  A    between atoms: C_12  and  C_13
REMARK   13  A    between atoms: C_13  and  C_14
REMARK   14  A    between atoms: C_15  and  C_16
REMARK   15  A    between atoms: C_16  and  O_17
REMARK   16  A    between atoms: C_16  and  C_18
REMARK   17  A    between atoms: C_24  and  C_26
REMARK                            x       y       z     vdW  Elec       q    Type
REMARK                         _______ _______ _______ _____ _____    ______ ____
ROOT
ATOM      1  C   UNL     1       1.877   5.496  19.692  0.00  0.00    +0.000 C 
ENDROOT
BRANCH   1   2
ATOM      2  C   UNL     1       1.902   3.985  19.347  0.00  0.00    +0.000 C 
ATOM      3  C   UNL     1       0.781   3.184  19.970  0.00  0.00    +0.000 C 
ATOM      4  O   UNL     1       1.358   2.610  21.137  0.00  0.00    +0.000 OA
ATOM      5  C   UNL     1       2.717   2.558  20.956  0.00  0.00    +0.000 C 
ATOM      6  O   UNL     1       3.426   1.920  21.721  0.00  0.00    +0.000 OA
ATOM      7  N   UNL     1       3.083   3.292  19.829  0.00  0.00    +0.000 N 
ATOM      8  C   UNL     1       4.408   3.464  19.445  0.00  0.00    +0.000 C 
ATOM      9  O   UNL     1       5.368   2.977  20.039  0.00  0.00    +0.000 OA
BRANCH   8  10
ATOM     10  C   UNL     1       4.744   4.321  18.266  0.00  0.00    +0.000 A 
ATOM     11  C   UNL     1       4.385   3.865  16.988  0.00  0.00    +0.000 A 
ATOM     12  C   UNL     1       4.730   4.603  15.852  0.00  0.00    +0.000 A 
ATOM     13  C   UNL     1       5.460   5.783  15.981  0.00  0.00    +0.000 A 
ATOM     14  C   UNL     1       5.776   6.267  17.248  0.00  0.00    +0.000 A 
ATOM     15  C   UNL     1       5.368   5.567  18.384  0.00  0.00    +0.000 A 
ENDBRANCH   8  10
ENDBRANCH   1   2
BRANCH   1  16
ATOM     16  O   UNL     1       2.782   5.785  20.759  0.00  0.00    +0.000 OA
ATOM     17  H   UNL     1       2.472   6.557  21.257  0.00  0.00    +0.000 HD
ENDBRANCH   1  16
BRANCH   1  19
ATOM     18  C   UNL     1       2.371   7.737  18.722  0.00  0.00    +0.000 C 
ATOM     19  C   UNL     1       2.172   6.415  18.549  0.00  0.00    +0.000 C 
BRANCH  18  20
ATOM     20  C   UNL     1       2.633   8.680  17.597  0.00  0.00    +0.000 C 
BRANCH  20  21
ATOM     21  C   UNL     1       1.850   9.979  17.791  0.00  0.00    +0.000 C 
BRANCH  21  22
ATOM     22  C   UNL     1       0.418   9.726  18.253  0.00  0.00    +0.000 C 
BRANCH  22  23
ATOM     23  C   UNL     1      -0.236  10.994  18.791  0.00  0.00    +0.000 C 
BRANCH  23  24
ATOM     24  C   UNL     1      -0.637  10.832  20.248  0.00  0.00    +0.000 C 
BRANCH  24  25
ATOM     25  C   UNL     1      -1.310  12.108  20.740  0.00  0.00    +0.000 C 
BRANCH  25  26
ATOM     26  C   UNL     1      -0.503  13.326  20.321  0.00  0.00    +0.000 C 
BRANCH  26  27
ATOM     27  C   UNL     1       0.635  13.575  21.300  0.00  0.00    +0.000 C 
BRANCH  27  28
ATOM     28  C   UNL     1       1.846  14.136  20.567  0.00  0.00    +0.000 C 
BRANCH  28  29
ATOM     29  C   UNL     1       1.639  14.085  19.059  0.00  0.00    +0.000 C 
BRANCH  29  30
ATOM     30  C   UNL     1       2.835  13.429  18.376  0.00  0.00    +0.000 C 
BRANCH  30  32
ATOM     31  C   UNL     1       3.512  15.655  17.437  0.00  0.00    +0.000 C 
ATOM     32  C   UNL     1       3.976  14.425  18.197  0.00  0.00    +0.000 C 
ENDBRANCH  30  32
ENDBRANCH  29  30
ENDBRANCH  28  29
ENDBRANCH  27  28
ENDBRANCH  26  27
ENDBRANCH  25  26
ENDBRANCH  24  25
ENDBRANCH  23  24
ENDBRANCH  22  23
ENDBRANCH  21  22
ENDBRANCH  20  21
ENDBRANCH  18  20
ENDBRANCH   1  19
TORSDOF 16
ENDMDL
