MODEL 1
REMARK VINA RESULT:      -7.8      0.000      0.000
REMARK  Name = 
REMARK  4 active torsions:
REMARK  status: ('A' for Active; 'I' for Inactive)
REMARK    1  A    between atoms: C_2  and  C_3
REMARK    2  A    between atoms: C_3  and  C_4
REMARK    3  A    between atoms: N_13  and  C_14
REMARK    4  A    between atoms: C_19  and  N_20
REMARK                            x       y       z     vdW  Elec       q    Type
REMARK                         _______ _______ _______ _____ _____    ______ ____
ROOT
ATOM      1  O   UNL     1       2.188   7.238  19.739  0.00  0.00    +0.000 OA
ATOM      2  C   UNL     1       2.575   7.320  18.574  0.00  0.00    +0.000 C 
ATOM      3  N   UNL     1       2.931   6.259  17.762  0.00  0.00    +0.000 N 
ATOM      4  H   UNL     1       3.463   6.486  16.918  0.00  0.00    +0.000 HD
ENDROOT
BRANCH   3   5
ATOM      5  C   UNL     1       2.817   4.872  18.039  0.00  0.00    +0.000 A 
ATOM      6  C   UNL     1       1.577   4.227  18.067  0.00  0.00    +0.000 A 
ATOM      7  C   UNL     1       1.490   2.864  18.337  0.00  0.00    +0.000 A 
ATOM      8  C   UNL     1       2.655   2.158  18.560  0.00  0.00    +0.000 A 
ATOM      9  N   UNL     1       3.880   2.721  18.525  0.00  0.00    +0.000 NA
ATOM     10  C   UNL     1       3.952   4.065  18.271  0.00  0.00    +0.000 A 
BRANCH  10  11
ATOM     11  N   UNL     1       5.262   4.624  18.289  0.00  0.00    +0.000 N 
ATOM     12  C   UNL     1       6.220   4.495  17.311  0.00  0.00    +0.000 A 
ATOM     13  N   UNL     1       7.337   5.079  17.679  0.00  0.00    +0.000 NA
ATOM     14  C   UNL     1       7.025   5.580  18.905  0.00  0.00    +0.000 A 
ATOM     15  N   UNL     1       5.771   5.372  19.317  0.00  0.00    +0.000 NA
ENDBRANCH  10  11
ENDBRANCH   3   5
BRANCH   2  16
ATOM     16  C   UNL     1       2.686   8.671  17.884  0.00  0.00    +0.000 C 
BRANCH  16  17
ATOM     17  C   UNL     1       1.515   9.587  18.140  0.00  0.00    +0.000 A 
ATOM     18  C   UNL     1       1.714  10.836  18.769  0.00  0.00    +0.000 A 
ATOM     19  C   UNL     1       0.645  11.709  18.991  0.00  0.00    +0.000 A 
ATOM     20  C   UNL     1      -0.607  11.319  18.566  0.00  0.00    +0.000 A 
ATOM     21  C   UNL     1      -0.824  10.094  17.957  0.00  0.00    +0.000 A 
ATOM     22  C   UNL     1       0.218   9.208  17.747  0.00  0.00    +0.000 A 
ATOM     23  C   UNL     1      -2.271   9.941  17.685  0.00  0.00    +0.000 C 
ATOM     24  C   UNL     1      -2.707  11.395  17.874  0.00  0.00    +0.000 C 
ATOM     25  O   UNL     1      -1.742  12.073  18.714  0.00  0.00    +0.000 OA
ENDBRANCH  16  17
ENDBRANCH   2  16
TORSDOF 4
ENDMDL
MODEL 2
REMARK VINA RESULT:      -7.8      2.224      4.201
REMARK  Name = 
REMARK  4 active torsions:
REMARK  status: ('A' for Active; 'I' for Inactive)
REMARK    1  A    between atoms: C_2  and  C_3
REMARK    2  A    between atoms: C_3  and  C_4
REMARK    3  A    between atoms: N_13  and  C_14
REMARK    4  A    between atoms: C_19  and  N_20
REMARK                            x       y       z     vdW  Elec       q    Type
REMARK                         _______ _______ _______ _____ _____    ______ ____
ROOT
ATOM      1  O   UNL     1       2.669   3.599  16.593  0.00  0.00    +0.000 OA
ATOM      2  C   UNL     1       3.389   4.007  17.502  0.00  0.00    +0.000 C 
ATOM      3  N   UNL     1       4.721   4.361  17.384  0.00  0.00    +0.000 N 
ATOM      4  H   UNL     1       5.252   4.442  18.254  0.00  0.00    +0.000 HD
ENDROOT
BRANCH   3   5
ATOM      5  C   UNL     1       5.500   4.445  16.201  0.00  0.00    +0.000 A 
ATOM      6  C   UNL     1       5.063   3.893  14.992  0.00  0.00    +0.000 A 
ATOM      7  C   UNL     1       5.843   3.992  13.843  0.00  0.00    +0.000 A 
ATOM      8  C   UNL     1       7.048   4.661  13.916  0.00  0.00    +0.000 A 
ATOM      9  N   UNL     1       7.510   5.232  15.047  0.00  0.00    +0.000 NA
ATOM     10  C   UNL     1       6.740   5.117  16.174  0.00  0.00    +0.000 A 
BRANCH  10  11
ATOM     11  N   UNL     1       7.290   5.696  17.353  0.00  0.00    +0.000 N 
ATOM     12  C   UNL     1       7.633   7.015  17.534  0.00  0.00    +0.000 A 
ATOM     13  N   UNL     1       8.175   7.193  18.717  0.00  0.00    +0.000 NA
ATOM     14  C   UNL     1       8.138   5.944  19.257  0.00  0.00    +0.000 A 
ATOM     15  N   UNL     1       7.579   4.999  18.497  0.00  0.00    +0.000 NA
ENDBRANCH  10  11
ENDBRANCH   3   5
BRANCH   2  16
ATOM     16  C   UNL     1       2.841   4.185  18.909  0.00  0.00    +0.000 C 
BRANCH  16  17
ATOM     17  C   UNL     1       2.369   5.586  19.211  0.00  0.00    +0.000 A 
ATOM     18  C   UNL     1       1.887   5.912  20.498  0.00  0.00    +0.000 A 
ATOM     19  C   UNL     1       1.470   7.211  20.804  0.00  0.00    +0.000 A 
ATOM     20  C   UNL     1       1.554   8.166  19.813  0.00  0.00    +0.000 A 
ATOM     21  C   UNL     1       2.014   7.864  18.542  0.00  0.00    +0.000 A 
ATOM     22  C   UNL     1       2.412   6.579  18.215  0.00  0.00    +0.000 A 
ATOM     23  C   UNL     1       1.917   9.073  17.694  0.00  0.00    +0.000 C 
ATOM     24  C   UNL     1       1.721  10.121  18.791  0.00  0.00    +0.000 C 
ATOM     25  O   UNL     1       1.185   9.476  19.971  0.00  0.00    +0.000 OA
ENDBRANCH  16  17
ENDBRANCH   2  16
TORSDOF 4
ENDMDL
MODEL 3
REMARK VINA RESULT:      -7.8      2.400      4.150
REMARK  Name = 
REMARK  4 active torsions:
REMARK  status: ('A' for Active; 'I' for Inactive)
REMARK    1  A    between atoms: C_2  and  C_3
REMARK    2  A    between atoms: C_3  and  C_4
REMARK    3  A    between atoms: N_13  and  C_14
REMARK    4  A    between atoms: C_19  and  N_20
REMARK                            x       y       z     vdW  Elec       q    Type
REMARK                         _______ _______ _______ _____ _____    ______ ____
ROOT
ATOM      1  O   UNL     1       2.850   3.302  16.887  0.00  0.00    +0.000 OA
ATOM      2  C   UNL     1       3.417   4.066  17.667  0.00  0.00    +0.000 C 
ATOM      3  N   UNL     1       4.639   4.677  17.456  0.00  0.00    +0.000 N 
ATOM      4  H   UNL     1       5.098   5.080  18.277  0.00  0.00    +0.000 HD
ENDROOT
BRANCH   3   5
ATOM      5  C   UNL     1       5.433   4.659  16.280  0.00  0.00    +0.000 A 
ATOM      6  C   UNL     1       4.965   4.101  15.086  0.00  0.00    +0.000 A 
ATOM      7  C   UNL     1       5.761   4.098  13.943  0.00  0.00    +0.000 A 
ATOM      8  C   UNL     1       7.015   4.672  14.008  0.00  0.00    +0.000 A 
ATOM      9  N   UNL     1       7.510   5.244  15.124  0.00  0.00    +0.000 NA
ATOM     10  C   UNL     1       6.723   5.230  16.245  0.00  0.00    +0.000 A 
BRANCH  10  11
ATOM     11  N   UNL     1       7.306   5.804  17.411  0.00  0.00    +0.000 N 
ATOM     12  C   UNL     1       7.673   7.119  17.579  0.00  0.00    +0.000 A 
ATOM     13  N   UNL     1       8.242   7.293  18.750  0.00  0.00    +0.000 NA
ATOM     14  C   UNL     1       8.197   6.046  19.295  0.00  0.00    +0.000 A 
ATOM     15  N   UNL     1       7.608   5.107  18.550  0.00  0.00    +0.000 NA
ENDBRANCH  10  11
ENDBRANCH   3   5
BRANCH   2  16
ATOM     16  C   UNL     1       2.779   4.437  18.996  0.00  0.00    +0.000 C 
BRANCH  16  17
ATOM     17  C   UNL     1       2.409   5.895  19.112  0.00  0.00    +0.000 A 
ATOM     18  C   UNL     1       2.448   6.731  17.973  0.00  0.00    +0.000 A 
ATOM     19  C   UNL     1       2.084   8.078  18.055  0.00  0.00    +0.000 A 
ATOM     20  C   UNL     1       1.675   8.563  19.279  0.00  0.00    +0.000 A 
ATOM     21  C   UNL     1       1.640   7.763  20.409  0.00  0.00    +0.000 A 
ATOM     22  C   UNL     1       2.016   6.432  20.352  0.00  0.00    +0.000 A 
ATOM     23  C   UNL     1       1.230   8.585  21.569  0.00  0.00    +0.000 C 
ATOM     24  C   UNL     1       0.686   9.803  20.821  0.00  0.00    +0.000 C 
ATOM     25  O   UNL     1       1.287   9.858  19.505  0.00  0.00    +0.000 OA
ENDBRANCH  16  17
ENDBRANCH   2  16
TORSDOF 4
ENDMDL
MODEL 4
REMARK VINA RESULT:      -7.7      1.020      1.186
REMARK  Name = 
REMARK  4 active torsions:
REMARK  status: ('A' for Active; 'I' for Inactive)
REMARK    1  A    between atoms: C_2  and  C_3
REMARK    2  A    between atoms: C_3  and  C_4
REMARK    3  A    between atoms: N_13  and  C_14
REMARK    4  A    between atoms: C_19  and  N_20
REMARK                            x       y       z     vdW  Elec       q    Type
REMARK                         _______ _______ _______ _____ _____    ______ ____
ROOT
ATOM      1  O   UNL     1       2.138   7.676  19.825  0.00  0.00    +0.000 OA
ATOM      2  C   UNL     1       2.538   7.611  18.664  0.00  0.00    +0.000 C 
ATOM      3  N   UNL     1       3.193   6.536  18.092  0.00  0.00    +0.000 N 
ATOM      4  H   UNL     1       3.681   6.712  17.210  0.00  0.00    +0.000 HD
ENDROOT
BRANCH   3   5
ATOM      5  C   UNL     1       3.435   5.258  18.661  0.00  0.00    +0.000 A 
ATOM      6  C   UNL     1       2.389   4.420  19.059  0.00  0.00    +0.000 A 
ATOM      7  C   UNL     1       2.652   3.169  19.611  0.00  0.00    +0.000 A 
ATOM      8  C   UNL     1       3.965   2.766  19.742  0.00  0.00    +0.000 A 
ATOM      9  N   UNL     1       5.013   3.521  19.356  0.00  0.00    +0.000 NA
ATOM     10  C   UNL     1       4.743   4.755  18.826  0.00  0.00    +0.000 A 
BRANCH  10  11
ATOM     11  N   UNL     1       5.882   5.534  18.475  0.00  0.00    +0.000 N 
ATOM     12  C   UNL     1       7.038   5.671  19.209  0.00  0.00    +0.000 A 
ATOM     13  N   UNL     1       7.857   6.517  18.627  0.00  0.00    +0.000 NA
ATOM     14  C   UNL     1       7.170   6.881  17.509  0.00  0.00    +0.000 A 
ATOM     15  N   UNL     1       5.983   6.292  17.339  0.00  0.00    +0.000 NA
ENDBRANCH  10  11
ENDBRANCH   3   5
BRANCH   2  16
ATOM     16  C   UNL     1       2.320   8.766  17.700  0.00  0.00    +0.000 C 
BRANCH  16  17
ATOM     17  C   UNL     1       1.161   9.660  18.067  0.00  0.00    +0.000 A 
ATOM     18  C   UNL     1       1.387  10.860  18.778  0.00  0.00    +0.000 A 
ATOM     19  C   UNL     1       0.329  11.713  19.105  0.00  0.00    +0.000 A 
ATOM     20  C   UNL     1      -0.939  11.353  18.702  0.00  0.00    +0.000 A 
ATOM     21  C   UNL     1      -1.182  10.176  18.014  0.00  0.00    +0.000 A 
ATOM     22  C   UNL     1      -0.151   9.309  17.699  0.00  0.00    +0.000 A 
ATOM     23  C   UNL     1      -2.640  10.041  17.789  0.00  0.00    +0.000 C 
ATOM     24  C   UNL     1      -3.065  11.477  18.100  0.00  0.00    +0.000 C 
ATOM     25  O   UNL     1      -2.067  12.093  18.949  0.00  0.00    +0.000 OA
ENDBRANCH  16  17
ENDBRANCH   2  16
TORSDOF 4
ENDMDL
MODEL 5
REMARK VINA RESULT:      -7.7      1.865      3.213
REMARK  Name = 
REMARK  4 active torsions:
REMARK  status: ('A' for Active; 'I' for Inactive)
REMARK    1  A    between atoms: C_2  and  C_3
REMARK    2  A    between atoms: C_3  and  C_4
REMARK    3  A    between atoms: N_13  and  C_14
REMARK    4  A    between atoms: C_19  and  N_20
REMARK                            x       y       z     vdW  Elec       q    Type
REMARK                         _______ _______ _______ _____ _____    ______ ____
ROOT
ATOM      1  O   UNL     1       1.828   5.328  18.142  0.00  0.00    +0.000 OA
ATOM      2  C   UNL     1       2.691   5.978  18.729  0.00  0.00    +0.000 C 
ATOM      3  N   UNL     1       4.025   6.061  18.373  0.00  0.00    +0.000 N 
ATOM      4  H   UNL     1       4.666   6.428  19.080  0.00  0.00    +0.000 HD
ENDROOT
BRANCH   3   5
ATOM      5  C   UNL     1       4.654   5.528  17.217  0.00  0.00    +0.000 A 
ATOM      6  C   UNL     1       5.066   6.347  16.161  0.00  0.00    +0.000 A 
ATOM      7  C   UNL     1       5.685   5.802  15.039  0.00  0.00    +0.000 A 
ATOM      8  C   UNL     1       5.899   4.439  14.998  0.00  0.00    +0.000 A 
ATOM      9  N   UNL     1       5.544   3.603  15.995  0.00  0.00    +0.000 NA
ATOM     10  C   UNL     1       4.924   4.149  17.088  0.00  0.00    +0.000 A 
BRANCH  10  11
ATOM     11  N   UNL     1       4.527   3.223  18.094  0.00  0.00    +0.000 N 
ATOM     12  C   UNL     1       3.612   2.205  17.954  0.00  0.00    +0.000 A 
ATOM     13  N   UNL     1       3.433   1.585  19.097  0.00  0.00    +0.000 NA
ATOM     14  C   UNL     1       4.276   2.248  19.935  0.00  0.00    +0.000 A 
ATOM     15  N   UNL     1       4.997   3.227  19.380  0.00  0.00    +0.000 NA
ENDBRANCH  10  11
ENDBRANCH   3   5
BRANCH   2  16
ATOM     16  C   UNL     1       2.342   6.808  19.954  0.00  0.00    +0.000 C 
BRANCH  16  17
ATOM     17  C   UNL     1       1.741   8.154  19.632  0.00  0.00    +0.000 A 
ATOM     18  C   UNL     1       1.931   8.730  18.356  0.00  0.00    +0.000 A 
ATOM     19  C   UNL     1       1.361   9.964  18.030  0.00  0.00    +0.000 A 
ATOM     20  C   UNL     1       0.598  10.596  18.988  0.00  0.00    +0.000 A 
ATOM     21  C   UNL     1       0.409  10.053  20.249  0.00  0.00    +0.000 A 
ATOM     22  C   UNL     1       0.983   8.843  20.597  0.00  0.00    +0.000 A 
ATOM     23  C   UNL     1      -0.390  10.995  21.065  0.00  0.00    +0.000 C 
ATOM     24  C   UNL     1      -0.911  11.899  19.947  0.00  0.00    +0.000 C 
ATOM     25  O   UNL     1      -0.022  11.804  18.808  0.00  0.00    +0.000 OA
ENDBRANCH  16  17
ENDBRANCH   2  16
TORSDOF 4
ENDMDL
MODEL 6
REMARK VINA RESULT:      -7.6      1.615      1.758
REMARK  Name = 
REMARK  4 active torsions:
REMARK  status: ('A' for Active; 'I' for Inactive)
REMARK    1  A    between atoms: C_2  and  C_3
REMARK    2  A    between atoms: C_3  and  C_4
REMARK    3  A    between atoms: N_13  and  C_14
REMARK    4  A    between atoms: C_19  and  N_20
REMARK                            x       y       z     vdW  Elec       q    Type
REMARK                         _______ _______ _______ _____ _____    ______ ____
ROOT
ATOM      1  O   UNL     1       1.722   5.815  17.731  0.00  0.00    +0.000 OA
ATOM      2  C   UNL     1       2.530   6.488  18.369  0.00  0.00    +0.000 C 
ATOM      3  N   UNL     1       3.390   6.013  19.342  0.00  0.00    +0.000 N 
ATOM      4  H   UNL     1       3.820   6.712  19.954  0.00  0.00    +0.000 HD
ENDROOT
BRANCH   3   5
ATOM      5  C   UNL     1       3.613   4.666  19.727  0.00  0.00    +0.000 A 
ATOM      6  C   UNL     1       2.618   3.904  20.347  0.00  0.00    +0.000 A 
ATOM      7  C   UNL     1       2.860   2.582  20.712  0.00  0.00    +0.000 A 
ATOM      8  C   UNL     1       4.096   2.033  20.435  0.00  0.00    +0.000 A 
ATOM      9  N   UNL     1       5.085   2.712  19.820  0.00  0.00    +0.000 NA
ATOM     10  C   UNL     1       4.841   4.016  19.477  0.00  0.00    +0.000 A 
BRANCH  10  11
ATOM     11  N   UNL     1       5.930   4.705  18.872  0.00  0.00    +0.000 N 
ATOM     12  C   UNL     1       6.293   4.659  17.546  0.00  0.00    +0.000 A 
ATOM     13  N   UNL     1       7.384   5.360  17.342  0.00  0.00    +0.000 NA
ATOM     14  C   UNL     1       7.667   5.846  18.581  0.00  0.00    +0.000 A 
ATOM     15  N   UNL     1       6.803   5.518  19.546  0.00  0.00    +0.000 NA
ENDBRANCH  10  11
ENDBRANCH   3   5
BRANCH   2  16
ATOM     16  C   UNL     1       2.672   7.981  18.115  0.00  0.00    +0.000 C 
BRANCH  16  17
ATOM     17  C   UNL     1       1.614   8.820  18.788  0.00  0.00    +0.000 A 
ATOM     18  C   UNL     1       1.446   8.763  20.190  0.00  0.00    +0.000 A 
ATOM     19  C   UNL     1       0.489   9.552  20.833  0.00  0.00    +0.000 A 
ATOM     20  C   UNL     1      -0.280  10.395  20.059  0.00  0.00    +0.000 A 
ATOM     21  C   UNL     1      -0.138  10.458  18.683  0.00  0.00    +0.000 A 
ATOM     22  C   UNL     1       0.790   9.670  18.026  0.00  0.00    +0.000 A 
ATOM     23  C   UNL     1      -1.145  11.395  18.136  0.00  0.00    +0.000 C 
ATOM     24  C   UNL     1      -1.553  12.093  19.434  0.00  0.00    +0.000 C 
ATOM     25  O   UNL     1      -1.251  11.226  20.554  0.00  0.00    +0.000 OA
ENDBRANCH  16  17
ENDBRANCH   2  16
TORSDOF 4
ENDMDL
MODEL 7
REMARK VINA RESULT:      -7.6      2.178      3.669
REMARK  Name = 
REMARK  4 active torsions:
REMARK  status: ('A' for Active; 'I' for Inactive)
REMARK    1  A    between atoms: C_2  and  C_3
REMARK    2  A    between atoms: C_3  and  C_4
REMARK    3  A    between atoms: N_13  and  C_14
REMARK    4  A    between atoms: C_19  and  N_20
REMARK                            x       y       z     vdW  Elec       q    Type
REMARK                         _______ _______ _______ _____ _____    ______ ____
ROOT
ATOM      1  O   UNL     1       2.631   4.527  17.398  0.00  0.00    +0.000 OA
ATOM      2  C   UNL     1       3.421   5.110  18.138  0.00  0.00    +0.000 C 
ATOM      3  N   UNL     1       4.759   5.338  17.876  0.00  0.00    +0.000 N 
ATOM      4  H   UNL     1       5.343   5.607  18.672  0.00  0.00    +0.000 HD
ENDROOT
BRANCH   3   5
ATOM      5  C   UNL     1       5.472   5.067  16.679  0.00  0.00    +0.000 A 
ATOM      6  C   UNL     1       4.957   4.221  15.692  0.00  0.00    +0.000 A 
ATOM      7  C   UNL     1       5.673   3.973  14.524  0.00  0.00    +0.000 A 
ATOM      8  C   UNL     1       6.894   4.592  14.352  0.00  0.00    +0.000 A 
ATOM      9  N   UNL     1       7.431   5.434  15.258  0.00  0.00    +0.000 NA
ATOM     10  C   UNL     1       6.724   5.660  16.409  0.00  0.00    +0.000 A 
BRANCH  10  11
ATOM     11  N   UNL     1       7.351   6.519  17.356  0.00  0.00    +0.000 N 
ATOM     12  C   UNL     1       7.567   7.871  17.218  0.00  0.00    +0.000 A 
ATOM     13  N   UNL     1       8.230   8.340  18.249  0.00  0.00    +0.000 NA
ATOM     14  C   UNL     1       8.401   7.235  19.026  0.00  0.00    +0.000 A 
ATOM     15  N   UNL     1       7.858   6.107  18.560  0.00  0.00    +0.000 NA
ENDBRANCH  10  11
ENDBRANCH   3   5
BRANCH   2  16
ATOM     16  C   UNL     1       2.964   5.677  19.474  0.00  0.00    +0.000 C 
BRANCH  16  17
ATOM     17  C   UNL     1       2.331   7.043  19.374  0.00  0.00    +0.000 A 
ATOM     18  C   UNL     1       2.341   7.744  18.147  0.00  0.00    +0.000 A 
ATOM     19  C   UNL     1       1.737   8.999  18.030  0.00  0.00    +0.000 A 
ATOM     20  C   UNL     1       1.121   9.526  19.144  0.00  0.00    +0.000 A 
ATOM     21  C   UNL     1       1.109   8.859  20.358  0.00  0.00    +0.000 A 
ATOM     22  C   UNL     1       1.719   7.626  20.500  0.00  0.00    +0.000 A 
ATOM     23  C   UNL     1       0.438   9.709  21.368  0.00  0.00    +0.000 C 
ATOM     24  C   UNL     1      -0.231  10.715  20.430  0.00  0.00    +0.000 C 
ATOM     25  O   UNL     1       0.488  10.741  19.174  0.00  0.00    +0.000 OA
ENDBRANCH  16  17
ENDBRANCH   2  16
TORSDOF 4
ENDMDL
MODEL 8
REMARK VINA RESULT:      -7.5      2.402      3.746
REMARK  Name = 
REMARK  4 active torsions:
REMARK  status: ('A' for Active; 'I' for Inactive)
REMARK    1  A    between atoms: C_2  and  C_3
REMARK    2  A    between atoms: C_3  and  C_4
REMARK    3  A    between atoms: N_13  and  C_14
REMARK    4  A    between atoms: C_19  and  N_20
REMARK                            x       y       z     vdW  Elec       q    Type
REMARK                         _______ _______ _______ _____ _____    ______ ____
ROOT
ATOM      1  O   UNL     1       4.312   7.391  17.054  0.00  0.00    +0.000 OA
ATOM      2  C   UNL     1       4.011   6.265  17.447  0.00  0.00    +0.000 C 
ATOM      3  N   UNL     1       4.437   5.073  16.891  0.00  0.00    +0.000 N 
ATOM      4  H   UNL     1       3.919   4.232  17.158  0.00  0.00    +0.000 HD
ENDROOT
BRANCH   3   5
ATOM      5  C   UNL     1       5.383   4.884  15.850  0.00  0.00    +0.000 A 
ATOM      6  C   UNL     1       5.007   4.391  14.596  0.00  0.00    +0.000 A 
ATOM      7  C   UNL     1       5.953   4.218  13.588  0.00  0.00    +0.000 A 
ATOM      8  C   UNL     1       7.265   4.559  13.846  0.00  0.00    +0.000 A 
ATOM      9  N   UNL     1       7.682   5.059  15.027  0.00  0.00    +0.000 NA
ATOM     10  C   UNL     1       6.745   5.213  16.015  0.00  0.00    +0.000 A 
BRANCH  10  11
ATOM     11  N   UNL     1       7.239   5.701  17.258  0.00  0.00    +0.000 N 
ATOM     12  C   UNL     1       7.696   6.973  17.515  0.00  0.00    +0.000 A 
ATOM     13  N   UNL     1       8.141   7.063  18.747  0.00  0.00    +0.000 NA
ATOM     14  C   UNL     1       7.929   5.811  19.237  0.00  0.00    +0.000 A 
ATOM     15  N   UNL     1       7.350   4.948  18.397  0.00  0.00    +0.000 NA
ENDBRANCH  10  11
ENDBRANCH   3   5
BRANCH   2  16
ATOM     16  C   UNL     1       3.109   6.078  18.657  0.00  0.00    +0.000 C 
BRANCH  16  17
ATOM     17  C   UNL     1       2.333   7.314  19.039  0.00  0.00    +0.000 A 
ATOM     18  C   UNL     1       1.986   8.268  18.056  0.00  0.00    +0.000 A 
ATOM     19  C   UNL     1       1.245   9.406  18.387  0.00  0.00    +0.000 A 
ATOM     20  C   UNL     1       0.854   9.563  19.700  0.00  0.00    +0.000 A 
ATOM     21  C   UNL     1       1.193   8.645  20.680  0.00  0.00    +0.000 A 
ATOM     22  C   UNL     1       1.943   7.522  20.375  0.00  0.00    +0.000 A 
ATOM     23  C   UNL     1       0.692   9.127  21.987  0.00  0.00    +0.000 C 
ATOM     24  C   UNL     1      -0.277  10.201  21.491  0.00  0.00    +0.000 C 
ATOM     25  O   UNL     1       0.123  10.625  20.166  0.00  0.00    +0.000 OA
ENDBRANCH  16  17
ENDBRANCH   2  16
TORSDOF 4
ENDMDL
MODEL 9
REMARK VINA RESULT:      -7.5      2.234      2.570
REMARK  Name = 
REMARK  4 active torsions:
REMARK  status: ('A' for Active; 'I' for Inactive)
REMARK    1  A    between atoms: C_2  and  C_3
REMARK    2  A    between atoms: C_3  and  C_4
REMARK    3  A    between atoms: N_13  and  C_14
REMARK    4  A    between atoms: C_19  and  N_20
REMARK                            x       y       z     vdW  Elec       q    Type
REMARK                         _______ _______ _______ _____ _____    ______ ____
ROOT
ATOM      1  O   UNL     1       1.758   5.634  17.737  0.00  0.00    +0.000 OA
ATOM      2  C   UNL     1       2.429   6.358  18.470  0.00  0.00    +0.000 C 
ATOM      3  N   UNL     1       3.146   5.947  19.578  0.00  0.00    +0.000 N 
ATOM      4  H   UNL     1       3.447   6.679  20.227  0.00  0.00    +0.000 HD
ENDROOT
BRANCH   3   5
ATOM      5  C   UNL     1       3.362   4.621  20.036  0.00  0.00    +0.000 A 
ATOM      6  C   UNL     1       2.473   3.993  20.913  0.00  0.00    +0.000 A 
ATOM      7  C   UNL     1       2.704   2.689  21.345  0.00  0.00    +0.000 A 
ATOM      8  C   UNL     1       3.819   2.024  20.877  0.00  0.00    +0.000 A 
ATOM      9  N   UNL     1       4.698   2.570  20.013  0.00  0.00    +0.000 NA
ATOM     10  C   UNL     1       4.468   3.858  19.605  0.00  0.00    +0.000 A 
BRANCH  10  11
ATOM     11  N   UNL     1       5.447   4.408  18.730  0.00  0.00    +0.000 N 
ATOM     12  C   UNL     1       5.475   4.298  17.359  0.00  0.00    +0.000 A 
ATOM     13  N   UNL     1       6.553   4.866  16.872  0.00  0.00    +0.000 NA
ATOM     14  C   UNL     1       7.175   5.338  17.987  0.00  0.00    +0.000 A 
ATOM     15  N   UNL     1       6.538   5.127  19.142  0.00  0.00    +0.000 NA
ENDBRANCH  10  11
ENDBRANCH   3   5
BRANCH   2  16
ATOM     16  C   UNL     1       2.548   7.849  18.194  0.00  0.00    +0.000 C 
BRANCH  16  17
ATOM     17  C   UNL     1       1.667   8.706  19.069  0.00  0.00    +0.000 A 
ATOM     18  C   UNL     1       0.892   9.742  18.500  0.00  0.00    +0.000 A 
ATOM     19  C   UNL     1       0.051  10.530  19.291  0.00  0.00    +0.000 A 
ATOM     20  C   UNL     1      -0.009  10.257  20.641  0.00  0.00    +0.000 A 
ATOM     21  C   UNL     1       0.751   9.253  21.219  0.00  0.00    +0.000 A 
ATOM     22  C   UNL     1       1.605   8.477  20.456  0.00  0.00    +0.000 A 
ATOM     23  C   UNL     1       0.521   9.257  22.682  0.00  0.00    +0.000 C 
ATOM     24  C   UNL     1      -0.738  10.124  22.725  0.00  0.00    +0.000 C 
ATOM     25  O   UNL     1      -0.791  10.944  21.533  0.00  0.00    +0.000 OA
ENDBRANCH  16  17
ENDBRANCH   2  16
TORSDOF 4
ENDMDL
