MODEL 1
REMARK VINA RESULT:      -9.2      0.000      0.000
REMARK  Name = 
REMARK  1 active torsions:
REMARK  status: ('A' for Active; 'I' for Inactive)
REMARK    1  A    between atoms: N_22  and  O_23
REMARK                            x       y       z     vdW  Elec       q    Type
REMARK                         _______ _______ _______ _____ _____    ______ ____
ROOT
ATOM      1  O   UNL     1       2.684   4.620  21.074  0.00  0.00    +0.000 OA
ATOM      2  C   UNL     1       3.185   4.918  20.006  0.00  0.00    +0.000 C 
ATOM      3  N   UNL     1       4.027   4.128  19.239  0.00  0.00    +0.000 N 
ATOM      4  C   UNL     1       4.416   4.779  18.071  0.00  0.00    +0.000 A 
ATOM      5  C   UNL     1       5.256   4.267  17.092  0.00  0.00    +0.000 A 
ATOM      6  C   UNL     1       5.534   5.080  15.992  0.00  0.00    +0.000 A 
ATOM      7 BR   UNL     1       6.663   4.462  14.606  0.00  0.00    +0.000 Br
ATOM      8  C   UNL     1       4.989   6.359  15.898  0.00  0.00    +0.000 A 
ATOM      9  C   UNL     1       4.150   6.841  16.905  0.00  0.00    +0.000 A 
ATOM     10  C   UNL     1       3.847   6.058  18.008  0.00  0.00    +0.000 A 
ATOM     11  C   UNL     1       3.026   6.212  19.235  0.00  0.00    +0.000 C 
ATOM     12  C   UNL     1       2.235   7.184  19.739  0.00  0.00    +0.000 C 
ATOM     13  N   UNL     1       1.503   7.211  20.921  0.00  0.00    +0.000 N 
ATOM     14  C   UNL     1       0.833   8.415  21.068  0.00  0.00    +0.000 A 
ATOM     15  C   UNL     1       0.003   8.850  22.086  0.00  0.00    +0.000 A 
ATOM     16  C   UNL     1      -0.568  10.135  21.992  0.00  0.00    +0.000 A 
ATOM     17  C   UNL     1      -0.300  10.961  20.889  0.00  0.00    +0.000 A 
ATOM     18 BR   UNL     1      -1.071  12.685  20.772  0.00  0.00    +0.000 Br
ATOM     19  C   UNL     1       0.531  10.531  19.869  0.00  0.00    +0.000 A 
ATOM     20  C   UNL     1       1.078   9.260  19.980  0.00  0.00    +0.000 A 
ATOM     21  C   UNL     1       1.972   8.530  19.065  0.00  0.00    +0.000 C 
ATOM     22  N   UNL     1       2.445   8.907  17.927  0.00  0.00    +0.000 NA
ATOM     23  H   UNL     1       4.309   3.199  19.509  0.00  0.00    +0.000 HD
ATOM     24  H   UNL     1       1.504   6.429  21.568  0.00  0.00    +0.000 HD
ENDROOT
BRANCH  22  25
ATOM     25  O   UNL     1       2.071  10.176  17.514  0.00  0.00    +0.000 OA
ATOM     26  H   UNL     1       2.927  10.571  17.267  0.00  0.00    +0.000 HD
ENDBRANCH  22  25
TORSDOF 1
ENDMDL
MODEL 2
REMARK VINA RESULT:      -7.5      2.382      7.025
REMARK  Name = 
REMARK  1 active torsions:
REMARK  status: ('A' for Active; 'I' for Inactive)
REMARK    1  A    between atoms: N_22  and  O_23
REMARK                            x       y       z     vdW  Elec       q    Type
REMARK                         _______ _______ _______ _____ _____    ______ ____
ROOT
ATOM      1  O   UNL     1      -0.001   9.195  23.094  0.00  0.00    +0.000 OA
ATOM      2  C   UNL     1       0.116  10.027  22.213  0.00  0.00    +0.000 C 
ATOM      3  N   UNL     1      -0.291  11.351  22.268  0.00  0.00    +0.000 N 
ATOM      4  C   UNL     1      -0.003  12.023  21.082  0.00  0.00    +0.000 A 
ATOM      5  C   UNL     1      -0.283  13.355  20.811  0.00  0.00    +0.000 A 
ATOM      6  C   UNL     1       0.078  13.847  19.556  0.00  0.00    +0.000 A 
ATOM      7 BR   UNL     1      -0.258  15.651  19.101  0.00  0.00    +0.000 Br
ATOM      8  C   UNL     1       0.689  13.018  18.617  0.00  0.00    +0.000 A 
ATOM      9  C   UNL     1       0.952  11.681  18.925  0.00  0.00    +0.000 A 
ATOM     10  C   UNL     1       0.612  11.161  20.165  0.00  0.00    +0.000 A 
ATOM     11  C   UNL     1       0.728   9.844  20.839  0.00  0.00    +0.000 C 
ATOM     12  C   UNL     1       1.234   8.639  20.501  0.00  0.00    +0.000 C 
ATOM     13  N   UNL     1       1.285   7.458  21.234  0.00  0.00    +0.000 N 
ATOM     14  C   UNL     1       1.879   6.441  20.504  0.00  0.00    +0.000 A 
ATOM     15  C   UNL     1       2.126   5.125  20.854  0.00  0.00    +0.000 A 
ATOM     16  C   UNL     1       2.759   4.283  19.918  0.00  0.00    +0.000 A 
ATOM     17  C   UNL     1       3.132   4.766  18.654  0.00  0.00    +0.000 A 
ATOM     18 BR   UNL     1       3.983   3.627  17.405  0.00  0.00    +0.000 Br
ATOM     19  C   UNL     1       2.887   6.081  18.299  0.00  0.00    +0.000 A 
ATOM     20  C   UNL     1       2.266   6.894  19.238  0.00  0.00    +0.000 A 
ATOM     21  C   UNL     1       1.892   8.316  19.160  0.00  0.00    +0.000 C 
ATOM     22  N   UNL     1       2.073   9.146  18.190  0.00  0.00    +0.000 NA
ATOM     23  H   UNL     1      -0.736  11.758  23.074  0.00  0.00    +0.000 HD
ATOM     24  H   UNL     1       0.907   7.396  22.174  0.00  0.00    +0.000 HD
ENDROOT
BRANCH  22  25
ATOM     25  O   UNL     1       2.692   8.627  17.065  0.00  0.00    +0.000 OA
ATOM     26  H   UNL     1       2.234   7.774  16.955  0.00  0.00    +0.000 HD
ENDBRANCH  22  25
TORSDOF 1
ENDMDL
MODEL 3
REMARK VINA RESULT:      -7.5      2.603      4.246
REMARK  Name = 
REMARK  1 active torsions:
REMARK  status: ('A' for Active; 'I' for Inactive)
REMARK    1  A    between atoms: N_22  and  O_23
REMARK                            x       y       z     vdW  Elec       q    Type
REMARK                         _______ _______ _______ _____ _____    ______ ____
ROOT
ATOM      1  O   UNL     1       2.295  10.062  17.365  0.00  0.00    +0.000 OA
ATOM      2  C   UNL     1       2.290   9.033  18.016  0.00  0.00    +0.000 C 
ATOM      3  N   UNL     1       2.970   7.863  17.718  0.00  0.00    +0.000 N 
ATOM      4  C   UNL     1       2.743   6.881  18.679  0.00  0.00    +0.000 A 
ATOM      5  C   UNL     1       3.272   5.598  18.674  0.00  0.00    +0.000 A 
ATOM      6  C   UNL     1       2.919   4.752  19.727  0.00  0.00    +0.000 A 
ATOM      7 BR   UNL     1       3.597   2.989  19.808  0.00  0.00    +0.000 Br
ATOM      8  C   UNL     1       2.061   5.191  20.734  0.00  0.00    +0.000 A 
ATOM      9  C   UNL     1       1.545   6.489  20.702  0.00  0.00    +0.000 A 
ATOM     10  C   UNL     1       1.880   7.357  19.675  0.00  0.00    +0.000 A 
ATOM     11  C   UNL     1       1.551   8.758  19.310  0.00  0.00    +0.000 C 
ATOM     12  C   UNL     1       0.803   9.738  19.861  0.00  0.00    +0.000 C 
ATOM     13  N   UNL     1       0.568  11.035  19.416  0.00  0.00    +0.000 N 
ATOM     14  C   UNL     1      -0.278  11.714  20.277  0.00  0.00    +0.000 A 
ATOM     15  C   UNL     1      -0.760  13.009  20.209  0.00  0.00    +0.000 A 
ATOM     16  C   UNL     1      -1.615  13.469  21.231  0.00  0.00    +0.000 A 
ATOM     17  C   UNL     1      -1.974  12.630  22.298  0.00  0.00    +0.000 A 
ATOM     18 BR   UNL     1      -3.121  13.257  23.666  0.00  0.00    +0.000 Br
ATOM     19  C   UNL     1      -1.494  11.334  22.370  0.00  0.00    +0.000 A 
ATOM     20  C   UNL     1      -0.651  10.904  21.355  0.00  0.00    +0.000 A 
ATOM     21  C   UNL     1       0.019   9.606  21.166  0.00  0.00    +0.000 C 
ATOM     22  N   UNL     1      -0.017   8.561  21.920  0.00  0.00    +0.000 NA
ATOM     23  H   UNL     1       3.553   7.757  16.903  0.00  0.00    +0.000 HD
ATOM     24  H   UNL     1       0.976  11.386  18.555  0.00  0.00    +0.000 HD
ENDROOT
BRANCH  22  25
ATOM     25  O   UNL     1      -0.800   8.671  23.058  0.00  0.00    +0.000 OA
ATOM     26  H   UNL     1      -0.130   8.731  23.763  0.00  0.00    +0.000 HD
ENDBRANCH  22  25
TORSDOF 1
ENDMDL
MODEL 4
REMARK VINA RESULT:      -7.4      1.795      7.506
REMARK  Name = 
REMARK  1 active torsions:
REMARK  status: ('A' for Active; 'I' for Inactive)
REMARK    1  A    between atoms: N_22  and  O_23
REMARK                            x       y       z     vdW  Elec       q    Type
REMARK                         _______ _______ _______ _____ _____    ______ ____
ROOT
ATOM      1  O   UNL     1       2.614   9.842  17.205  0.00  0.00    +0.000 OA
ATOM      2  C   UNL     1       1.982   9.791  18.244  0.00  0.00    +0.000 C 
ATOM      3  N   UNL     1       1.294  10.834  18.845  0.00  0.00    +0.000 N 
ATOM      4  C   UNL     1       0.678  10.427  20.026  0.00  0.00    +0.000 A 
ATOM      5  C   UNL     1      -0.082  11.227  20.868  0.00  0.00    +0.000 A 
ATOM      6  C   UNL     1      -0.613  10.634  22.014  0.00  0.00    +0.000 A 
ATOM      7 BR   UNL     1      -1.668  11.645  23.215  0.00  0.00    +0.000 Br
ATOM      8  C   UNL     1      -0.373   9.290  22.295  0.00  0.00    +0.000 A 
ATOM      9  C   UNL     1       0.401   8.517  21.426  0.00  0.00    +0.000 A 
ATOM     10  C   UNL     1       0.938   9.072  20.275  0.00  0.00    +0.000 A 
ATOM     11  C   UNL     1       1.777   8.592  19.148  0.00  0.00    +0.000 C 
ATOM     12  C   UNL     1       2.326   7.409  18.804  0.00  0.00    +0.000 C 
ATOM     13  N   UNL     1       3.107   7.077  17.701  0.00  0.00    +0.000 N 
ATOM     14  C   UNL     1       3.483   5.744  17.736  0.00  0.00    +0.000 A 
ATOM     15  C   UNL     1       4.250   5.015  16.844  0.00  0.00    +0.000 A 
ATOM     16  C   UNL     1       4.484   3.651  17.110  0.00  0.00    +0.000 A 
ATOM     17  C   UNL     1       3.952   3.041  18.257  0.00  0.00    +0.000 A 
ATOM     18 BR   UNL     1       4.272   1.208  18.604  0.00  0.00    +0.000 Br
ATOM     19  C   UNL     1       3.185   3.766  19.152  0.00  0.00    +0.000 A 
ATOM     20  C   UNL     1       2.963   5.107  18.868  0.00  0.00    +0.000 A 
ATOM     21  C   UNL     1       2.190   6.117  19.610  0.00  0.00    +0.000 C 
ATOM     22  N   UNL     1       1.520   5.979  20.702  0.00  0.00    +0.000 NA
ATOM     23  H   UNL     1       1.255  11.763  18.459  0.00  0.00    +0.000 HD
ATOM     24  H   UNL     1       3.355   7.764  16.996  0.00  0.00    +0.000 HD
ENDROOT
BRANCH  22  25
ATOM     25  O   UNL     1       1.540   4.711  21.260  0.00  0.00    +0.000 OA
ATOM     26  H   UNL     1       0.672   4.668  21.701  0.00  0.00    +0.000 HD
ENDBRANCH  22  25
TORSDOF 1
ENDMDL
MODEL 5
REMARK VINA RESULT:      -7.2      2.711      7.585
REMARK  Name = 
REMARK  1 active torsions:
REMARK  status: ('A' for Active; 'I' for Inactive)
REMARK    1  A    between atoms: N_22  and  O_23
REMARK                            x       y       z     vdW  Elec       q    Type
REMARK                         _______ _______ _______ _____ _____    ______ ____
ROOT
ATOM      1  O   UNL     1      -0.720   9.685  23.416  0.00  0.00    +0.000 OA
ATOM      2  C   UNL     1      -0.666  10.612  22.630  0.00  0.00    +0.000 C 
ATOM      3  N   UNL     1      -1.199  11.879  22.808  0.00  0.00    +0.000 N 
ATOM      4  C   UNL     1      -0.954  12.697  21.708  0.00  0.00    +0.000 A 
ATOM      5  C   UNL     1      -1.355  14.018  21.567  0.00  0.00    +0.000 A 
ATOM      6  C   UNL     1      -1.018  14.670  20.381  0.00  0.00    +0.000 A 
ATOM      7 BR   UNL     1      -1.517  16.474  20.104  0.00  0.00    +0.000 Br
ATOM      8  C   UNL     1      -0.311  14.006  19.380  0.00  0.00    +0.000 A 
ATOM      9  C   UNL     1       0.073  12.675  19.556  0.00  0.00    +0.000 A 
ATOM     10  C   UNL     1      -0.240  11.998  20.725  0.00  0.00    +0.000 A 
ATOM     11  C   UNL     1      -0.012  10.633  21.263  0.00  0.00    +0.000 C 
ATOM     12  C   UNL     1       0.614   9.524  20.818  0.00  0.00    +0.000 C 
ATOM     13  N   UNL     1       0.765   8.282  21.426  0.00  0.00    +0.000 N 
ATOM     14  C   UNL     1       1.468   7.408  20.613  0.00  0.00    +0.000 A 
ATOM     15  C   UNL     1       1.833   6.091  20.833  0.00  0.00    +0.000 A 
ATOM     16  C   UNL     1       2.563   5.415  19.835  0.00  0.00    +0.000 A 
ATOM     17  C   UNL     1       2.913   6.061  18.639  0.00  0.00    +0.000 A 
ATOM     18 BR   UNL     1       3.894   5.145  17.305  0.00  0.00    +0.000 Br
ATOM     19  C   UNL     1       2.550   7.378  18.415  0.00  0.00    +0.000 A 
ATOM     20  C   UNL     1       1.835   8.025  19.413  0.00  0.00    +0.000 A 
ATOM     21  C   UNL     1       1.328   9.407  19.471  0.00  0.00    +0.000 C 
ATOM     22  N   UNL     1       1.447  10.348  18.598  0.00  0.00    +0.000 NA
ATOM     23  H   UNL     1      -1.698  12.155  23.639  0.00  0.00    +0.000 HD
ATOM     24  H   UNL     1       0.376   8.085  22.344  0.00  0.00    +0.000 HD
ENDROOT
BRANCH  22  25
ATOM     25  O   UNL     1       2.135  10.011  17.444  0.00  0.00    +0.000 OA
ATOM     26  H   UNL     1       3.040   9.874  17.779  0.00  0.00    +0.000 HD
ENDBRANCH  22  25
TORSDOF 1
ENDMDL
MODEL 6
REMARK VINA RESULT:      -7.0      3.611      8.970
REMARK  Name = 
REMARK  1 active torsions:
REMARK  status: ('A' for Active; 'I' for Inactive)
REMARK    1  A    between atoms: N_22  and  O_23
REMARK                            x       y       z     vdW  Elec       q    Type
REMARK                         _______ _______ _______ _____ _____    ______ ____
ROOT
ATOM      1  O   UNL     1      -0.425  13.476  17.890  0.00  0.00    +0.000 OA
ATOM      2  C   UNL     1      -0.703  13.563  19.073  0.00  0.00    +0.000 C 
ATOM      3  N   UNL     1      -1.337  14.626  19.696  0.00  0.00    +0.000 N 
ATOM      4  C   UNL     1      -1.499  14.395  21.061  0.00  0.00    +0.000 A 
ATOM      5  C   UNL     1      -2.093  15.260  21.970  0.00  0.00    +0.000 A 
ATOM      6  C   UNL     1      -2.155  14.850  23.302  0.00  0.00    +0.000 A 
ATOM      7 BR   UNL     1      -2.952  15.960  24.609  0.00  0.00    +0.000 Br
ATOM      8  C   UNL     1      -1.630  13.620  23.692  0.00  0.00    +0.000 A 
ATOM      9  C   UNL     1      -1.037  12.777  22.749  0.00  0.00    +0.000 A 
ATOM     10  C   UNL     1      -0.964  13.150  21.415  0.00  0.00    +0.000 A 
ATOM     11  C   UNL     1      -0.434  12.550  20.166  0.00  0.00    +0.000 C 
ATOM     12  C   UNL     1       0.171  11.385  19.847  0.00  0.00    +0.000 C 
ATOM     13  N   UNL     1       0.629  10.928  18.616  0.00  0.00    +0.000 N 
ATOM     14  C   UNL     1       1.208   9.674  18.731  0.00  0.00    +0.000 A 
ATOM     15  C   UNL     1       1.780   8.869  17.762  0.00  0.00    +0.000 A 
ATOM     16  C   UNL     1       2.299   7.615  18.143  0.00  0.00    +0.000 A 
ATOM     17  C   UNL     1       2.238   7.189  19.479  0.00  0.00    +0.000 A 
ATOM     18 BR   UNL     1       2.936   5.503  19.980  0.00  0.00    +0.000 Br
ATOM     19  C   UNL     1       1.667   7.991  20.452  0.00  0.00    +0.000 A 
ATOM     20  C   UNL     1       1.159   9.219  20.054  0.00  0.00    +0.000 A 
ATOM     21  C   UNL     1       0.490  10.269  20.841  0.00  0.00    +0.000 C 
ATOM     22  N   UNL     1       0.208  10.277  22.099  0.00  0.00    +0.000 NA
ATOM     23  H   UNL     1      -1.638  15.453  19.207  0.00  0.00    +0.000 HD
ATOM     24  H   UNL     1       0.542  11.487  17.773  0.00  0.00    +0.000 HD
ENDROOT
BRANCH  22  25
ATOM     25  O   UNL     1       0.596   9.152  22.807  0.00  0.00    +0.000 OA
ATOM     26  H   UNL     1       0.874   9.533  23.661  0.00  0.00    +0.000 HD
ENDBRANCH  22  25
TORSDOF 1
ENDMDL
MODEL 7
REMARK VINA RESULT:      -6.8      3.627      5.410
REMARK  Name = 
REMARK  1 active torsions:
REMARK  status: ('A' for Active; 'I' for Inactive)
REMARK    1  A    between atoms: N_22  and  O_23
REMARK                            x       y       z     vdW  Elec       q    Type
REMARK                         _______ _______ _______ _____ _____    ______ ____
ROOT
ATOM      1  O   UNL     1       0.260   9.571  23.866  0.00  0.00    +0.000 OA
ATOM      2  C   UNL     1       0.534   9.420  22.690  0.00  0.00    +0.000 C 
ATOM      3  N   UNL     1       1.416   8.491  22.160  0.00  0.00    +0.000 N 
ATOM      4  C   UNL     1       1.491   8.592  20.772  0.00  0.00    +0.000 A 
ATOM      5  C   UNL     1       2.281   7.812  19.939  0.00  0.00    +0.000 A 
ATOM      6  C   UNL     1       2.224   8.071  18.570  0.00  0.00    +0.000 A 
ATOM      7 BR   UNL     1       3.261   7.054  17.358  0.00  0.00    +0.000 Br
ATOM      8  C   UNL     1       1.405   9.083  18.071  0.00  0.00    +0.000 A 
ATOM      9  C   UNL     1       0.626   9.850  18.941  0.00  0.00    +0.000 A 
ATOM     10  C   UNL     1       0.654   9.615  20.308  0.00  0.00    +0.000 A 
ATOM     11  C   UNL     1      -0.007  10.193  21.504  0.00  0.00    +0.000 C 
ATOM     12  C   UNL     1      -0.914  11.170  21.716  0.00  0.00    +0.000 C 
ATOM     13  N   UNL     1      -1.467  11.628  22.907  0.00  0.00    +0.000 N 
ATOM     14  C   UNL     1      -2.357  12.665  22.680  0.00  0.00    +0.000 A 
ATOM     15  C   UNL     1      -3.116  13.395  23.578  0.00  0.00    +0.000 A 
ATOM     16  C   UNL     1      -3.960  14.410  23.083  0.00  0.00    +0.000 A 
ATOM     17  C   UNL     1      -4.031  14.677  21.707  0.00  0.00    +0.000 A 
ATOM     18 BR   UNL     1      -5.168  16.041  21.052  0.00  0.00    +0.000 Br
ATOM     19  C   UNL     1      -3.273  13.950  20.805  0.00  0.00    +0.000 A 
ATOM     20  C   UNL     1      -2.452  12.954  21.314  0.00  0.00    +0.000 A 
ATOM     21  C   UNL     1      -1.554  12.018  20.617  0.00  0.00    +0.000 C 
ATOM     22  N   UNL     1      -1.333  11.902  19.352  0.00  0.00    +0.000 NA
ATOM     23  H   UNL     1       1.928   7.832  22.724  0.00  0.00    +0.000 HD
ATOM     24  H   UNL     1      -1.208  11.230  23.805  0.00  0.00    +0.000 HD
ENDROOT
BRANCH  22  25
ATOM     25  O   UNL     1      -2.027  12.784  18.540  0.00  0.00    +0.000 OA
ATOM     26  H   UNL     1      -1.395  12.933  17.813  0.00  0.00    +0.000 HD
ENDBRANCH  22  25
TORSDOF 1
ENDMDL
MODEL 8
REMARK VINA RESULT:      -6.8      2.359      3.404
REMARK  Name = 
REMARK  1 active torsions:
REMARK  status: ('A' for Active; 'I' for Inactive)
REMARK    1  A    between atoms: N_22  and  O_23
REMARK                            x       y       z     vdW  Elec       q    Type
REMARK                         _______ _______ _______ _____ _____    ______ ____
ROOT
ATOM      1  O   UNL     1       0.169   8.154  22.024  0.00  0.00    +0.000 OA
ATOM      2  C   UNL     1       0.909   7.879  21.097  0.00  0.00    +0.000 C 
ATOM      3  N   UNL     1       1.476   6.643  20.831  0.00  0.00    +0.000 N 
ATOM      4  C   UNL     1       2.272   6.680  19.688  0.00  0.00    +0.000 A 
ATOM      5  C   UNL     1       2.981   5.615  19.152  0.00  0.00    +0.000 A 
ATOM      6  C   UNL     1       3.730   5.854  18.000  0.00  0.00    +0.000 A 
ATOM      7 BR   UNL     1       4.723   4.460  17.195  0.00  0.00    +0.000 Br
ATOM      8  C   UNL     1       3.761   7.123  17.423  0.00  0.00    +0.000 A 
ATOM      9  C   UNL     1       3.036   8.172  17.993  0.00  0.00    +0.000 A 
ATOM     10  C   UNL     1       2.276   7.968  19.135  0.00  0.00    +0.000 A 
ATOM     11  C   UNL     1       1.402   8.799  19.999  0.00  0.00    +0.000 C 
ATOM     12  C   UNL     1       0.993  10.086  19.988  0.00  0.00    +0.000 C 
ATOM     13  N   UNL     1       0.156  10.762  20.869  0.00  0.00    +0.000 N 
ATOM     14  C   UNL     1       0.007  12.089  20.501  0.00  0.00    +0.000 A 
ATOM     15  C   UNL     1      -0.732  13.097  21.096  0.00  0.00    +0.000 A 
ATOM     16  C   UNL     1      -0.721  14.379  20.511  0.00  0.00    +0.000 A 
ATOM     17  C   UNL     1       0.024  14.632  19.349  0.00  0.00    +0.000 A 
ATOM     18 BR   UNL     1       0.030  16.357  18.571  0.00  0.00    +0.000 Br
ATOM     19  C   UNL     1       0.764  13.627  18.750  0.00  0.00    +0.000 A 
ATOM     20  C   UNL     1       0.736  12.371  19.341  0.00  0.00    +0.000 A 
ATOM     21  C   UNL     1       1.397  11.119  18.936  0.00  0.00    +0.000 C 
ATOM     22  N   UNL     1       2.155  10.899  17.917  0.00  0.00    +0.000 NA
ATOM     23  H   UNL     1       1.320   5.829  21.404  0.00  0.00    +0.000 HD
ATOM     24  H   UNL     1      -0.257  10.300  21.674  0.00  0.00    +0.000 HD
ENDROOT
BRANCH  22  25
ATOM     25  O   UNL     1       2.387  11.991  17.097  0.00  0.00    +0.000 OA
ATOM     26  H   UNL     1       3.356  11.969  16.996  0.00  0.00    +0.000 HD
ENDBRANCH  22  25
TORSDOF 1
ENDMDL
MODEL 9
REMARK VINA RESULT:      -6.7      3.348      5.024
REMARK  Name = 
REMARK  1 active torsions:
REMARK  status: ('A' for Active; 'I' for Inactive)
REMARK    1  A    between atoms: N_22  and  O_23
REMARK                            x       y       z     vdW  Elec       q    Type
REMARK                         _______ _______ _______ _____ _____    ______ ____
ROOT
ATOM      1  O   UNL     1       0.355   9.761  23.563  0.00  0.00    +0.000 OA
ATOM      2  C   UNL     1       0.711   9.442  22.444  0.00  0.00    +0.000 C 
ATOM      3  N   UNL     1       1.309   8.247  22.076  0.00  0.00    +0.000 N 
ATOM      4  C   UNL     1       1.585   8.213  20.711  0.00  0.00    +0.000 A 
ATOM      5  C   UNL     1       2.183   7.165  20.025  0.00  0.00    +0.000 A 
ATOM      6  C   UNL     1       2.383   7.323  18.653  0.00  0.00    +0.000 A 
ATOM      7 BR   UNL     1       3.184   5.944  17.636  0.00  0.00    +0.000 Br
ATOM      8  C   UNL     1       1.999   8.499  18.010  0.00  0.00    +0.000 A 
ATOM      9  C   UNL     1       1.404   9.534  18.734  0.00  0.00    +0.000 A 
ATOM     10  C   UNL     1       1.184   9.408  20.098  0.00  0.00    +0.000 A 
ATOM     11  C   UNL     1       0.598  10.252  21.168  0.00  0.00    +0.000 C 
ATOM     12  C   UNL     1       0.031  11.476  21.216  0.00  0.00    +0.000 C 
ATOM     13  N   UNL     1      -0.491  12.174  22.300  0.00  0.00    +0.000 N 
ATOM     14  C   UNL     1      -0.967  13.417  21.915  0.00  0.00    +0.000 A 
ATOM     15  C   UNL     1      -1.559  14.413  22.671  0.00  0.00    +0.000 A 
ATOM     16  C   UNL     1      -1.966  15.599  22.027  0.00  0.00    +0.000 A 
ATOM     17  C   UNL     1      -1.775  15.770  20.647  0.00  0.00    +0.000 A 
ATOM     18 BR   UNL     1      -2.327  17.365  19.792  0.00  0.00    +0.000 Br
ATOM     19  C   UNL     1      -1.183  14.776  19.887  0.00  0.00    +0.000 A 
ATOM     20  C   UNL     1      -0.794  13.615  20.540  0.00  0.00    +0.000 A 
ATOM     21  C   UNL     1      -0.161  12.395  20.010  0.00  0.00    +0.000 C 
ATOM     22  N   UNL     1       0.167  12.120  18.794  0.00  0.00    +0.000 NA
ATOM     23  H   UNL     1       1.509   7.507  22.728  0.00  0.00    +0.000 HD
ATOM     24  H   UNL     1      -0.487  11.784  23.238  0.00  0.00    +0.000 HD
ENDROOT
BRANCH  22  25
ATOM     25  O   UNL     1      -0.102  13.110  17.863  0.00  0.00    +0.000 OA
ATOM     26  H   UNL     1       0.713  13.644  17.891  0.00  0.00    +0.000 HD
ENDBRANCH  22  25
TORSDOF 1
ENDMDL
