MODEL 1
REMARK VINA RESULT:      -8.4      0.000      0.000
REMARK  Name = 
REMARK  9 active torsions:
REMARK  status: ('A' for Active; 'I' for Inactive)
REMARK    1  A    between atoms: C_1  and  C_2
REMARK    2  A    between atoms: C_5  and  N_6
REMARK    3  A    between atoms: N_9  and  C_10
REMARK    4  A    between atoms: C_10  and  C_11
REMARK    5  A    between atoms: C_11  and  O_12
REMARK    6  A    between atoms: O_12  and  C_13
REMARK    7  A    between atoms: C_13  and  C_15
REMARK    8  A    between atoms: C_16  and  N_17
REMARK    9  A    between atoms: C_18  and  C_20
REMARK                            x       y       z     vdW  Elec       q    Type
REMARK                         _______ _______ _______ _____ _____    ______ ____
ROOT
ATOM      1  C   UNL     1       3.392   5.274  18.061  0.00  0.00    +0.000 A 
ATOM      2  C   UNL     1       3.846   4.369  17.104  0.00  0.00    +0.000 A 
ATOM      3  S   UNL     1       3.479   2.759  17.473  0.00  0.00    +0.000 S 
ATOM      4  C   UNL     1       2.792   3.185  18.963  0.00  0.00    +0.000 A 
ATOM      5  C   UNL     1       2.724   4.548  19.153  0.00  0.00    +0.000 A 
ATOM      6  C   UNL     1       1.995   5.134  20.330  0.00  0.00    +0.000 C 
ATOM      7  C   UNL     1       1.369   4.121  21.306  0.00  0.00    +0.000 C 
ATOM      8  C   UNL     1       1.588   2.615  21.112  0.00  0.00    +0.000 C 
ATOM      9  C   UNL     1       2.302   2.115  19.865  0.00  0.00    +0.000 C 
ENDROOT
BRANCH   2  10
ATOM     10  N   UNL     1       4.490   4.439  15.881  0.00  0.00    +0.000 N 
ATOM     11  C   UNL     1       5.867   4.414  15.748  0.00  0.00    +0.000 C 
ATOM     12  O   UNL     1       6.662   4.432  16.680  0.00  0.00    +0.000 OA
ATOM     13  H   UNL     1       3.967   3.984  15.147  0.00  0.00    +0.000 HD
BRANCH  11  14
ATOM     14  C   UNL     1       6.383   4.341  14.323  0.00  0.00    +0.000 A 
ATOM     15  C   UNL     1       7.428   5.200  13.951  0.00  0.00    +0.000 A 
ATOM     16  C   UNL     1       7.930   5.213  12.648  0.00  0.00    +0.000 A 
ATOM     17  C   UNL     1       7.387   4.363  11.691  0.00  0.00    +0.000 A 
ATOM     18  C   UNL     1       6.365   3.487  12.044  0.00  0.00    +0.000 A 
ATOM     19  C   UNL     1       5.870   3.470  13.354  0.00  0.00    +0.000 A 
ENDBRANCH  11  14
ENDBRANCH   2  10
BRANCH   1  20
ATOM     20  C   UNL     1       3.500   6.729  17.956  0.00  0.00    +0.000 C 
ATOM     21  O   UNL     1       4.518   7.309  17.602  0.00  0.00    +0.000 OA
BRANCH  20  22
ATOM     22  O   UNL     1       2.376   7.381  18.370  0.00  0.00    +0.000 OA
BRANCH  22  23
ATOM     23  C   UNL     1       2.259   8.781  18.069  0.00  0.00    +0.000 C 
BRANCH  23  24
ATOM     24  C   UNL     1       0.929   9.464  18.356  0.00  0.00    +0.000 C 
BRANCH  24  30
ATOM     25  C   UNL     1       0.517   8.441  21.251  0.00  0.00    +0.000 C 
ATOM     26  C   UNL     1       0.778   9.854  20.858  0.00  0.00    +0.000 A 
ATOM     27  N   UNL     1       0.814  10.871  21.702  0.00  0.00    +0.000 NA
ATOM     28  C   UNL     1       1.041  11.991  20.946  0.00  0.00    +0.000 A 
ATOM     29  C   UNL     1       1.180  11.641  19.633  0.00  0.00    +0.000 A 
ATOM     30  N   UNL     1       0.995  10.287  19.558  0.00  0.00    +0.000 N 
BRANCH  29  31
ATOM     31  N   UNL     1       1.440  12.475  18.524  0.00  0.00    +0.000 N 
ATOM     32  O   UNL     1       2.570  12.406  18.033  0.00  0.00    +0.000 OA
ATOM     33  O   UNL     1       0.513  13.196  18.141  0.00  0.00    +0.000 OA
ENDBRANCH  29  31
ENDBRANCH  24  30
ENDBRANCH  23  24
ENDBRANCH  22  23
ENDBRANCH  20  22
ENDBRANCH   1  20
TORSDOF 8
ENDMDL
MODEL 2
REMARK VINA RESULT:      -8.0      1.402      1.748
REMARK  Name = 
REMARK  9 active torsions:
REMARK  status: ('A' for Active; 'I' for Inactive)
REMARK    1  A    between atoms: C_1  and  C_2
REMARK    2  A    between atoms: C_5  and  N_6
REMARK    3  A    between atoms: N_9  and  C_10
REMARK    4  A    between atoms: C_10  and  C_11
REMARK    5  A    between atoms: C_11  and  O_12
REMARK    6  A    between atoms: O_12  and  C_13
REMARK    7  A    between atoms: C_13  and  C_15
REMARK    8  A    between atoms: C_16  and  N_17
REMARK    9  A    between atoms: C_18  and  C_20
REMARK                            x       y       z     vdW  Elec       q    Type
REMARK                         _______ _______ _______ _____ _____    ______ ____
ROOT
ATOM      1  C   UNL     1       3.327   5.381  18.087  0.00  0.00    +0.000 A 
ATOM      2  C   UNL     1       3.915   4.488  17.194  0.00  0.00    +0.000 A 
ATOM      3  S   UNL     1       3.780   2.870  17.672  0.00  0.00    +0.000 S 
ATOM      4  C   UNL     1       3.024   3.293  19.130  0.00  0.00    +0.000 A 
ATOM      5  C   UNL     1       2.760   4.642  19.226  0.00  0.00    +0.000 A 
ATOM      6  C   UNL     1       1.943   5.194  20.361  0.00  0.00    +0.000 C 
ATOM      7  C   UNL     1       1.459   4.170  21.403  0.00  0.00    +0.000 C 
ATOM      8  C   UNL     1       1.894   2.701  21.312  0.00  0.00    +0.000 C 
ATOM      9  C   UNL     1       2.684   2.227  20.102  0.00  0.00    +0.000 C 
ENDROOT
BRANCH   2  10
ATOM     10  N   UNL     1       4.555   4.568  15.969  0.00  0.00    +0.000 N 
ATOM     11  C   UNL     1       5.926   4.463  15.823  0.00  0.00    +0.000 C 
ATOM     12  O   UNL     1       6.728   4.395  16.748  0.00  0.00    +0.000 OA
ATOM     13  H   UNL     1       4.000   4.175  15.223  0.00  0.00    +0.000 HD
BRANCH  11  14
ATOM     14  C   UNL     1       6.428   4.416  14.392  0.00  0.00    +0.000 A 
ATOM     15  C   UNL     1       7.480   5.271  14.029  0.00  0.00    +0.000 A 
ATOM     16  C   UNL     1       7.969   5.307  12.721  0.00  0.00    +0.000 A 
ATOM     17  C   UNL     1       7.407   4.485  11.750  0.00  0.00    +0.000 A 
ATOM     18  C   UNL     1       6.377   3.614  12.095  0.00  0.00    +0.000 A 
ATOM     19  C   UNL     1       5.895   3.573  13.409  0.00  0.00    +0.000 A 
ENDBRANCH  11  14
ENDBRANCH   2  10
BRANCH   1  20
ATOM     20  C   UNL     1       3.227   6.826  17.884  0.00  0.00    +0.000 C 
ATOM     21  O   UNL     1       4.187   7.545  17.639  0.00  0.00    +0.000 OA
BRANCH  20  22
ATOM     22  O   UNL     1       1.965   7.307  18.073  0.00  0.00    +0.000 OA
BRANCH  22  23
ATOM     23  C   UNL     1       1.795   8.427  18.957  0.00  0.00    +0.000 C 
BRANCH  23  24
ATOM     24  C   UNL     1       1.432   9.772  18.343  0.00  0.00    +0.000 C 
BRANCH  24  30
ATOM     25  C   UNL     1      -1.366   9.731  17.014  0.00  0.00    +0.000 C 
ATOM     26  C   UNL     1      -1.039  10.342  18.333  0.00  0.00    +0.000 A 
ATOM     27  N   UNL     1      -1.904  11.000  19.087  0.00  0.00    +0.000 NA
ATOM     28  C   UNL     1      -1.207  11.430  20.186  0.00  0.00    +0.000 A 
ATOM     29  C   UNL     1       0.086  10.996  20.111  0.00  0.00    +0.000 A 
ATOM     30  N   UNL     1       0.214  10.320  18.928  0.00  0.00    +0.000 N 
BRANCH  29  31
ATOM     31  N   UNL     1       1.136  11.196  21.033  0.00  0.00    +0.000 N 
ATOM     32  O   UNL     1       1.335  10.294  21.851  0.00  0.00    +0.000 OA
ATOM     33  O   UNL     1       1.764  12.256  20.938  0.00  0.00    +0.000 OA
ENDBRANCH  29  31
ENDBRANCH  24  30
ENDBRANCH  23  24
ENDBRANCH  22  23
ENDBRANCH  20  22
ENDBRANCH   1  20
TORSDOF 8
ENDMDL
MODEL 3
REMARK VINA RESULT:      -7.7      1.555      2.068
REMARK  Name = 
REMARK  9 active torsions:
REMARK  status: ('A' for Active; 'I' for Inactive)
REMARK    1  A    between atoms: C_1  and  C_2
REMARK    2  A    between atoms: C_5  and  N_6
REMARK    3  A    between atoms: N_9  and  C_10
REMARK    4  A    between atoms: C_10  and  C_11
REMARK    5  A    between atoms: C_11  and  O_12
REMARK    6  A    between atoms: O_12  and  C_13
REMARK    7  A    between atoms: C_13  and  C_15
REMARK    8  A    between atoms: C_16  and  N_17
REMARK    9  A    between atoms: C_18  and  C_20
REMARK                            x       y       z     vdW  Elec       q    Type
REMARK                         _______ _______ _______ _____ _____    ______ ____
ROOT
ATOM      1  C   UNL     1       3.412   5.343  18.083  0.00  0.00    +0.000 A 
ATOM      2  C   UNL     1       3.951   4.445  17.165  0.00  0.00    +0.000 A 
ATOM      3  S   UNL     1       3.746   2.825  17.607  0.00  0.00    +0.000 S 
ATOM      4  C   UNL     1       3.023   3.248  19.081  0.00  0.00    +0.000 A 
ATOM      5  C   UNL     1       2.821   4.605  19.210  0.00  0.00    +0.000 A 
ATOM      6  C   UNL     1       2.041   5.169  20.365  0.00  0.00    +0.000 C 
ATOM      7  C   UNL     1       1.519   4.144  21.389  0.00  0.00    +0.000 C 
ATOM      8  C   UNL     1       1.885   2.659  21.260  0.00  0.00    +0.000 C 
ATOM      9  C   UNL     1       2.643   2.177  20.032  0.00  0.00    +0.000 C 
ENDROOT
BRANCH   2  10
ATOM     10  N   UNL     1       4.583   4.524  15.936  0.00  0.00    +0.000 N 
ATOM     11  C   UNL     1       5.953   4.408  15.780  0.00  0.00    +0.000 C 
ATOM     12  O   UNL     1       6.760   4.329  16.699  0.00  0.00    +0.000 OA
ATOM     13  H   UNL     1       4.020   4.139  15.191  0.00  0.00    +0.000 HD
BRANCH  11  14
ATOM     14  C   UNL     1       6.444   4.361  14.345  0.00  0.00    +0.000 A 
ATOM     15  C   UNL     1       7.461   5.250  13.962  0.00  0.00    +0.000 A 
ATOM     16  C   UNL     1       7.937   5.288  12.651  0.00  0.00    +0.000 A 
ATOM     17  C   UNL     1       7.399   4.433  11.695  0.00  0.00    +0.000 A 
ATOM     18  C   UNL     1       6.405   3.528  12.058  0.00  0.00    +0.000 A 
ATOM     19  C   UNL     1       5.935   3.486  13.377  0.00  0.00    +0.000 A 
ENDBRANCH  11  14
ENDBRANCH   2  10
BRANCH   1  20
ATOM     20  C   UNL     1       3.376   6.796  17.913  0.00  0.00    +0.000 C 
ATOM     21  O   UNL     1       4.218   7.426  17.287  0.00  0.00    +0.000 OA
BRANCH  20  22
ATOM     22  O   UNL     1       2.353   7.389  18.591  0.00  0.00    +0.000 OA
BRANCH  22  23
ATOM     23  C   UNL     1       2.229   8.819  18.511  0.00  0.00    +0.000 C 
BRANCH  23  24
ATOM     24  C   UNL     1       0.829   9.415  18.505  0.00  0.00    +0.000 C 
BRANCH  24  30
ATOM     25  C   UNL     1       0.831  12.510  18.363  0.00  0.00    +0.000 C 
ATOM     26  C   UNL     1       0.653  11.697  19.598  0.00  0.00    +0.000 A 
ATOM     27  N   UNL     1       0.524  12.202  20.813  0.00  0.00    +0.000 NA
ATOM     28  C   UNL     1       0.422  11.133  21.666  0.00  0.00    +0.000 A 
ATOM     29  C   UNL     1       0.453   9.969  20.951  0.00  0.00    +0.000 A 
ATOM     30  N   UNL     1       0.620  10.310  19.637  0.00  0.00    +0.000 N 
BRANCH  29  31
ATOM     31  N   UNL     1       0.360   8.643  21.426  0.00  0.00    +0.000 N 
ATOM     32  O   UNL     1       1.416   8.097  21.754  0.00  0.00    +0.000 OA
ATOM     33  O   UNL     1      -0.772   8.149  21.475  0.00  0.00    +0.000 OA
ENDBRANCH  29  31
ENDBRANCH  24  30
ENDBRANCH  23  24
ENDBRANCH  22  23
ENDBRANCH  20  22
ENDBRANCH   1  20
TORSDOF 8
ENDMDL
MODEL 4
REMARK VINA RESULT:      -7.6      1.691      2.335
REMARK  Name = 
REMARK  9 active torsions:
REMARK  status: ('A' for Active; 'I' for Inactive)
REMARK    1  A    between atoms: C_1  and  C_2
REMARK    2  A    between atoms: C_5  and  N_6
REMARK    3  A    between atoms: N_9  and  C_10
REMARK    4  A    between atoms: C_10  and  C_11
REMARK    5  A    between atoms: C_11  and  O_12
REMARK    6  A    between atoms: O_12  and  C_13
REMARK    7  A    between atoms: C_13  and  C_15
REMARK    8  A    between atoms: C_16  and  N_17
REMARK    9  A    between atoms: C_18  and  C_20
REMARK                            x       y       z     vdW  Elec       q    Type
REMARK                         _______ _______ _______ _____ _____    ______ ____
ROOT
ATOM      1  C   UNL     1       3.502   5.235  18.199  0.00  0.00    +0.000 A 
ATOM      2  C   UNL     1       4.065   4.357  17.275  0.00  0.00    +0.000 A 
ATOM      3  S   UNL     1       3.984   2.736  17.753  0.00  0.00    +0.000 S 
ATOM      4  C   UNL     1       3.290   3.139  19.246  0.00  0.00    +0.000 A 
ATOM      5  C   UNL     1       3.004   4.482  19.360  0.00  0.00    +0.000 A 
ATOM      6  C   UNL     1       2.232   5.015  20.535  0.00  0.00    +0.000 C 
ATOM      7  C   UNL     1       1.818   3.978  21.595  0.00  0.00    +0.000 C 
ATOM      8  C   UNL     1       2.277   2.518  21.477  0.00  0.00    +0.000 C 
ATOM      9  C   UNL     1       3.018   2.064  20.229  0.00  0.00    +0.000 C 
ENDROOT
BRANCH   2  10
ATOM     10  N   UNL     1       4.643   4.454  16.022  0.00  0.00    +0.000 N 
ATOM     11  C   UNL     1       6.005   4.601  15.826  0.00  0.00    +0.000 C 
ATOM     12  O   UNL     1       6.828   4.767  16.718  0.00  0.00    +0.000 OA
ATOM     13  H   UNL     1       4.155   3.900  15.332  0.00  0.00    +0.000 HD
BRANCH  11  14
ATOM     14  C   UNL     1       6.467   4.530  14.382  0.00  0.00    +0.000 A 
ATOM     15  C   UNL     1       5.837   3.612  13.528  0.00  0.00    +0.000 A 
ATOM     16  C   UNL     1       6.234   3.467  12.197  0.00  0.00    +0.000 A 
ATOM     17  C   UNL     1       7.276   4.242  11.698  0.00  0.00    +0.000 A 
ATOM     18  C   UNL     1       7.899   5.174  12.523  0.00  0.00    +0.000 A 
ATOM     19  C   UNL     1       7.493   5.324  13.855  0.00  0.00    +0.000 A 
ENDBRANCH  11  14
ENDBRANCH   2  10
BRANCH   1  20
ATOM     20  C   UNL     1       3.363   6.679  18.006  0.00  0.00    +0.000 C 
ATOM     21  O   UNL     1       4.286   7.410  17.668  0.00  0.00    +0.000 OA
BRANCH  20  22
ATOM     22  O   UNL     1       2.120   7.144  18.319  0.00  0.00    +0.000 OA
BRANCH  22  23
ATOM     23  C   UNL     1       2.018   8.196  19.292  0.00  0.00    +0.000 C 
BRANCH  23  24
ATOM     24  C   UNL     1       0.782   8.231  20.179  0.00  0.00    +0.000 C 
BRANCH  24  30
ATOM     25  C   UNL     1      -0.489  10.141  18.096  0.00  0.00    +0.000 C 
ATOM     26  C   UNL     1      -0.190  10.478  19.516  0.00  0.00    +0.000 A 
ATOM     27  N   UNL     1      -0.383  11.669  20.058  0.00  0.00    +0.000 NA
ATOM     28  C   UNL     1       0.049  11.576  21.356  0.00  0.00    +0.000 A 
ATOM     29  C   UNL     1       0.474  10.303  21.610  0.00  0.00    +0.000 A 
ATOM     30  N   UNL     1       0.348   9.598  20.444  0.00  0.00    +0.000 N 
BRANCH  29  31
ATOM     31  N   UNL     1       0.978   9.769  22.815  0.00  0.00    +0.000 N 
ATOM     32  O   UNL     1       0.175   9.641  23.743  0.00  0.00    +0.000 OA
ATOM     33  O   UNL     1       2.178   9.473  22.833  0.00  0.00    +0.000 OA
ENDBRANCH  29  31
ENDBRANCH  24  30
ENDBRANCH  23  24
ENDBRANCH  22  23
ENDBRANCH  20  22
ENDBRANCH   1  20
TORSDOF 8
ENDMDL
MODEL 5
REMARK VINA RESULT:      -7.6      1.459      1.997
REMARK  Name = 
REMARK  9 active torsions:
REMARK  status: ('A' for Active; 'I' for Inactive)
REMARK    1  A    between atoms: C_1  and  C_2
REMARK    2  A    between atoms: C_5  and  N_6
REMARK    3  A    between atoms: N_9  and  C_10
REMARK    4  A    between atoms: C_10  and  C_11
REMARK    5  A    between atoms: C_11  and  O_12
REMARK    6  A    between atoms: O_12  and  C_13
REMARK    7  A    between atoms: C_13  and  C_15
REMARK    8  A    between atoms: C_16  and  N_17
REMARK    9  A    between atoms: C_18  and  C_20
REMARK                            x       y       z     vdW  Elec       q    Type
REMARK                         _______ _______ _______ _____ _____    ______ ____
ROOT
ATOM      1  C   UNL     1       3.464   5.495  18.177  0.00  0.00    +0.000 A 
ATOM      2  C   UNL     1       4.060   4.621  17.271  0.00  0.00    +0.000 A 
ATOM      3  S   UNL     1       3.986   3.000  17.751  0.00  0.00    +0.000 S 
ATOM      4  C   UNL     1       3.250   3.398  19.225  0.00  0.00    +0.000 A 
ATOM      5  C   UNL     1       2.945   4.738  19.328  0.00  0.00    +0.000 A 
ATOM      6  C   UNL     1       2.137   5.265  20.481  0.00  0.00    +0.000 C 
ATOM      7  C   UNL     1       1.708   4.226  21.533  0.00  0.00    +0.000 C 
ATOM      8  C   UNL     1       2.187   2.771  21.431  0.00  0.00    +0.000 C 
ATOM      9  C   UNL     1       2.965   2.322  20.203  0.00  0.00    +0.000 C 
ENDROOT
BRANCH   2  10
ATOM     10  N   UNL     1       4.669   4.721  16.032  0.00  0.00    +0.000 N 
ATOM     11  C   UNL     1       6.025   4.529  15.838  0.00  0.00    +0.000 C 
ATOM     12  O   UNL     1       6.845   4.356  16.733  0.00  0.00    +0.000 OA
ATOM     13  H   UNL     1       4.067   4.408  15.284  0.00  0.00    +0.000 HD
BRANCH  11  14
ATOM     14  C   UNL     1       6.482   4.523  14.391  0.00  0.00    +0.000 A 
ATOM     15  C   UNL     1       5.864   3.629  13.503  0.00  0.00    +0.000 A 
ATOM     16  C   UNL     1       6.257   3.544  12.166  0.00  0.00    +0.000 A 
ATOM     17  C   UNL     1       7.284   4.356  11.695  0.00  0.00    +0.000 A 
ATOM     18  C   UNL     1       7.895   5.265  12.553  0.00  0.00    +0.000 A 
ATOM     19  C   UNL     1       7.492   5.355  13.892  0.00  0.00    +0.000 A 
ENDBRANCH  11  14
ENDBRANCH   2  10
BRANCH   1  20
ATOM     20  C   UNL     1       3.314   6.936  17.978  0.00  0.00    +0.000 C 
ATOM     21  O   UNL     1       3.826   7.549  17.050  0.00  0.00    +0.000 OA
BRANCH  20  22
ATOM     22  O   UNL     1       2.611   7.545  18.975  0.00  0.00    +0.000 OA
BRANCH  22  23
ATOM     23  C   UNL     1       1.378   8.197  18.631  0.00  0.00    +0.000 C 
BRANCH  23  24
ATOM     24  C   UNL     1       1.392   9.711  18.471  0.00  0.00    +0.000 C 
BRANCH  24  30
ATOM     25  C   UNL     1      -1.356   9.778  17.041  0.00  0.00    +0.000 C 
ATOM     26  C   UNL     1      -1.049  10.391  18.364  0.00  0.00    +0.000 A 
ATOM     27  N   UNL     1      -1.909  11.096  19.079  0.00  0.00    +0.000 NA
ATOM     28  C   UNL     1      -1.233  11.510  20.197  0.00  0.00    +0.000 A 
ATOM     29  C   UNL     1       0.041  11.017  20.174  0.00  0.00    +0.000 A 
ATOM     30  N   UNL     1       0.180  10.320  19.005  0.00  0.00    +0.000 N 
BRANCH  29  31
ATOM     31  N   UNL     1       1.065  11.182  21.132  0.00  0.00    +0.000 N 
ATOM     32  O   UNL     1       1.643  12.271  21.141  0.00  0.00    +0.000 OA
ATOM     33  O   UNL     1       1.288  10.222  21.878  0.00  0.00    +0.000 OA
ENDBRANCH  29  31
ENDBRANCH  24  30
ENDBRANCH  23  24
ENDBRANCH  22  23
ENDBRANCH  20  22
ENDBRANCH   1  20
TORSDOF 8
ENDMDL
MODEL 6
REMARK VINA RESULT:      -7.5      1.467      1.951
REMARK  Name = 
REMARK  9 active torsions:
REMARK  status: ('A' for Active; 'I' for Inactive)
REMARK    1  A    between atoms: C_1  and  C_2
REMARK    2  A    between atoms: C_5  and  N_6
REMARK    3  A    between atoms: N_9  and  C_10
REMARK    4  A    between atoms: C_10  and  C_11
REMARK    5  A    between atoms: C_11  and  O_12
REMARK    6  A    between atoms: O_12  and  C_13
REMARK    7  A    between atoms: C_13  and  C_15
REMARK    8  A    between atoms: C_16  and  N_17
REMARK    9  A    between atoms: C_18  and  C_20
REMARK                            x       y       z     vdW  Elec       q    Type
REMARK                         _______ _______ _______ _____ _____    ______ ____
ROOT
ATOM      1  C   UNL     1       3.383   5.356  18.030  0.00  0.00    +0.000 A 
ATOM      2  C   UNL     1       3.892   4.447  17.106  0.00  0.00    +0.000 A 
ATOM      3  S   UNL     1       3.619   2.832  17.529  0.00  0.00    +0.000 S 
ATOM      4  C   UNL     1       2.903   3.267  19.003  0.00  0.00    +0.000 A 
ATOM      5  C   UNL     1       2.755   4.629  19.146  0.00  0.00    +0.000 A 
ATOM      6  C   UNL     1       1.990   5.211  20.302  0.00  0.00    +0.000 C 
ATOM      7  C   UNL     1       1.421   4.197  21.311  0.00  0.00    +0.000 C 
ATOM      8  C   UNL     1       1.728   2.700  21.168  0.00  0.00    +0.000 C 
ATOM      9  C   UNL     1       2.474   2.202  19.939  0.00  0.00    +0.000 C 
ENDROOT
BRANCH   2  10
ATOM     10  N   UNL     1       4.534   4.514  15.882  0.00  0.00    +0.000 N 
ATOM     11  C   UNL     1       5.910   4.466  15.745  0.00  0.00    +0.000 C 
ATOM     12  O   UNL     1       6.708   4.465  16.676  0.00  0.00    +0.000 OA
ATOM     13  H   UNL     1       4.002   4.072  15.146  0.00  0.00    +0.000 HD
BRANCH  11  14
ATOM     14  C   UNL     1       6.422   4.393  14.319  0.00  0.00    +0.000 A 
ATOM     15  C   UNL     1       7.462   5.256  13.941  0.00  0.00    +0.000 A 
ATOM     16  C   UNL     1       7.959   5.269  12.637  0.00  0.00    +0.000 A 
ATOM     17  C   UNL     1       7.417   4.414  11.683  0.00  0.00    +0.000 A 
ATOM     18  C   UNL     1       6.401   3.534  12.042  0.00  0.00    +0.000 A 
ATOM     19  C   UNL     1       5.910   3.516  13.354  0.00  0.00    +0.000 A 
ENDBRANCH  11  14
ENDBRANCH   2  10
BRANCH   1  20
ATOM     20  C   UNL     1       3.406   6.811  17.877  0.00  0.00    +0.000 C 
ATOM     21  O   UNL     1       4.403   7.442  17.552  0.00  0.00    +0.000 OA
BRANCH  20  22
ATOM     22  O   UNL     1       2.224   7.403  18.210  0.00  0.00    +0.000 OA
BRANCH  22  23
ATOM     23  C   UNL     1       2.261   8.753  18.702  0.00  0.00    +0.000 C 
BRANCH  23  24
ATOM     24  C   UNL     1       1.667   9.848  17.828  0.00  0.00    +0.000 C 
BRANCH  24  30
ATOM     25  C   UNL     1       3.077  12.605  17.919  0.00  0.00    +0.000 C 
ATOM     26  C   UNL     1       1.869  12.220  18.700  0.00  0.00    +0.000 A 
ATOM     27  N   UNL     1       1.269  13.002  19.583  0.00  0.00    +0.000 NA
ATOM     28  C   UNL     1       0.232  12.272  20.102  0.00  0.00    +0.000 A 
ATOM     29  C   UNL     1       0.183  11.047  19.499  0.00  0.00    +0.000 A 
ATOM     30  N   UNL     1       1.230  10.992  18.619  0.00  0.00    +0.000 N 
BRANCH  29  31
ATOM     31  N   UNL     1      -0.733   9.995  19.718  0.00  0.00    +0.000 N 
ATOM     32  O   UNL     1      -1.642   9.872  18.894  0.00  0.00    +0.000 OA
ATOM     33  O   UNL     1      -0.540   9.289  20.714  0.00  0.00    +0.000 OA
ENDBRANCH  29  31
ENDBRANCH  24  30
ENDBRANCH  23  24
ENDBRANCH  22  23
ENDBRANCH  20  22
ENDBRANCH   1  20
TORSDOF 8
ENDMDL
MODEL 7
REMARK VINA RESULT:      -7.5      4.926      9.699
REMARK  Name = 
REMARK  9 active torsions:
REMARK  status: ('A' for Active; 'I' for Inactive)
REMARK    1  A    between atoms: C_1  and  C_2
REMARK    2  A    between atoms: C_5  and  N_6
REMARK    3  A    between atoms: N_9  and  C_10
REMARK    4  A    between atoms: C_10  and  C_11
REMARK    5  A    between atoms: C_11  and  O_12
REMARK    6  A    between atoms: O_12  and  C_13
REMARK    7  A    between atoms: C_13  and  C_15
REMARK    8  A    between atoms: C_16  and  N_17
REMARK    9  A    between atoms: C_18  and  C_20
REMARK                            x       y       z     vdW  Elec       q    Type
REMARK                         _______ _______ _______ _____ _____    ______ ____
ROOT
ATOM      1  C   UNL     1       0.549  10.300  19.523  0.00  0.00    +0.000 A 
ATOM      2  C   UNL     1       0.083  10.103  20.821  0.00  0.00    +0.000 A 
ATOM      3  S   UNL     1       0.653   8.678  21.533  0.00  0.00    +0.000 S 
ATOM      4  C   UNL     1       1.461   8.213  20.116  0.00  0.00    +0.000 A 
ATOM      5  C   UNL     1       1.410   9.173  19.130  0.00  0.00    +0.000 A 
ATOM      6  C   UNL     1       2.206   9.028  17.862  0.00  0.00    +0.000 C 
ATOM      7  C   UNL     1       3.042   7.741  17.736  0.00  0.00    +0.000 C 
ATOM      8  C   UNL     1       2.958   6.649  18.811  0.00  0.00    +0.000 C 
ATOM      9  C   UNL     1       2.159   6.906  20.080  0.00  0.00    +0.000 C 
ENDROOT
BRANCH   2  10
ATOM     10  N   UNL     1      -0.702  10.801  21.722  0.00  0.00    +0.000 N 
ATOM     11  C   UNL     1      -0.410  12.086  22.143  0.00  0.00    +0.000 C 
ATOM     12  O   UNL     1       0.609  12.704  21.857  0.00  0.00    +0.000 OA
ATOM     13  H   UNL     1      -1.682  10.580  21.626  0.00  0.00    +0.000 HD
BRANCH  11  14
ATOM     14  C   UNL     1      -1.469  12.745  23.008  0.00  0.00    +0.000 A 
ATOM     15  C   UNL     1      -2.659  12.043  23.250  0.00  0.00    +0.000 A 
ATOM     16  C   UNL     1      -3.691  12.601  24.007  0.00  0.00    +0.000 A 
ATOM     17  C   UNL     1      -3.547  13.880  24.536  0.00  0.00    +0.000 A 
ATOM     18  C   UNL     1      -2.365  14.584  24.326  0.00  0.00    +0.000 A 
ATOM     19  C   UNL     1      -1.328  14.018  23.574  0.00  0.00    +0.000 A 
ENDBRANCH  11  14
ENDBRANCH   2  10
BRANCH   1  20
ATOM     20  C   UNL     1       0.281  11.483  18.706  0.00  0.00    +0.000 C 
ATOM     21  O   UNL     1       1.079  12.398  18.556  0.00  0.00    +0.000 OA
BRANCH  20  22
ATOM     22  O   UNL     1      -0.982  11.502  18.190  0.00  0.00    +0.000 OA
BRANCH  22  23
ATOM     23  C   UNL     1      -1.911  12.462  18.719  0.00  0.00    +0.000 C 
BRANCH  23  24
ATOM     24  C   UNL     1      -3.064  11.947  19.568  0.00  0.00    +0.000 C 
BRANCH  24  30
ATOM     25  C   UNL     1      -5.399  13.679  20.637  0.00  0.00    +0.000 C 
ATOM     26  C   UNL     1      -5.417  12.875  19.383  0.00  0.00    +0.000 A 
ATOM     27  N   UNL     1      -6.466  12.756  18.586  0.00  0.00    +0.000 NA
ATOM     28  C   UNL     1      -6.088  11.911  17.576  0.00  0.00    +0.000 A 
ATOM     29  C   UNL     1      -4.782  11.544  17.746  0.00  0.00    +0.000 A 
ATOM     30  N   UNL     1      -4.348  12.133  18.902  0.00  0.00    +0.000 N 
BRANCH  29  31
ATOM     31  N   UNL     1      -3.992  10.704  16.932  0.00  0.00    +0.000 N 
ATOM     32  O   UNL     1      -3.693  11.136  15.816  0.00  0.00    +0.000 OA
ATOM     33  O   UNL     1      -3.667   9.611  17.411  0.00  0.00    +0.000 OA
ENDBRANCH  29  31
ENDBRANCH  24  30
ENDBRANCH  23  24
ENDBRANCH  22  23
ENDBRANCH  20  22
ENDBRANCH   1  20
TORSDOF 8
ENDMDL
MODEL 8
REMARK VINA RESULT:      -7.5      0.999      1.150
REMARK  Name = 
REMARK  9 active torsions:
REMARK  status: ('A' for Active; 'I' for Inactive)
REMARK    1  A    between atoms: C_1  and  C_2
REMARK    2  A    between atoms: C_5  and  N_6
REMARK    3  A    between atoms: N_9  and  C_10
REMARK    4  A    between atoms: C_10  and  C_11
REMARK    5  A    between atoms: C_11  and  O_12
REMARK    6  A    between atoms: O_12  and  C_13
REMARK    7  A    between atoms: C_13  and  C_15
REMARK    8  A    between atoms: C_16  and  N_17
REMARK    9  A    between atoms: C_18  and  C_20
REMARK                            x       y       z     vdW  Elec       q    Type
REMARK                         _______ _______ _______ _____ _____    ______ ____
ROOT
ATOM      1  C   UNL     1       3.332   5.270  18.095  0.00  0.00    +0.000 A 
ATOM      2  C   UNL     1       3.855   4.381  17.159  0.00  0.00    +0.000 A 
ATOM      3  S   UNL     1       3.590   2.756  17.553  0.00  0.00    +0.000 S 
ATOM      4  C   UNL     1       2.859   3.162  19.028  0.00  0.00    +0.000 A 
ATOM      5  C   UNL     1       2.701   4.521  19.193  0.00  0.00    +0.000 A 
ATOM      6  C   UNL     1       1.922   5.077  20.352  0.00  0.00    +0.000 C 
ATOM      7  C   UNL     1       1.351   4.042  21.339  0.00  0.00    +0.000 C 
ATOM      8  C   UNL     1       1.671   2.550  21.174  0.00  0.00    +0.000 C 
ATOM      9  C   UNL     1       2.430   2.078  19.943  0.00  0.00    +0.000 C 
ENDROOT
BRANCH   2  10
ATOM     10  N   UNL     1       4.506   4.473  15.942  0.00  0.00    +0.000 N 
ATOM     11  C   UNL     1       5.884   4.449  15.817  0.00  0.00    +0.000 C 
ATOM     12  O   UNL     1       6.674   4.451  16.755  0.00  0.00    +0.000 OA
ATOM     13  H   UNL     1       3.988   4.030  15.197  0.00  0.00    +0.000 HD
BRANCH  11  14
ATOM     14  C   UNL     1       6.410   4.402  14.395  0.00  0.00    +0.000 A 
ATOM     15  C   UNL     1       7.434   5.291  14.035  0.00  0.00    +0.000 A 
ATOM     16  C   UNL     1       7.942   5.328  12.735  0.00  0.00    +0.000 A 
ATOM     17  C   UNL     1       7.427   4.471  11.768  0.00  0.00    +0.000 A 
ATOM     18  C   UNL     1       6.426   3.566  12.109  0.00  0.00    +0.000 A 
ATOM     19  C   UNL     1       5.925   3.525  13.416  0.00  0.00    +0.000 A 
ENDBRANCH  11  14
ENDBRANCH   2  10
BRANCH   1  20
ATOM     20  C   UNL     1       3.346   6.727  17.966  0.00  0.00    +0.000 C 
ATOM     21  O   UNL     1       4.243   7.350  17.414  0.00  0.00    +0.000 OA
BRANCH  20  22
ATOM     22  O   UNL     1       2.296   7.331  18.594  0.00  0.00    +0.000 OA
BRANCH  22  23
ATOM     23  C   UNL     1       1.699   8.474  17.962  0.00  0.00    +0.000 C 
BRANCH  23  24
ATOM     24  C   UNL     1       1.819   9.821  18.661  0.00  0.00    +0.000 C 
BRANCH  24  30
ATOM     25  C   UNL     1       1.755   8.641  21.526  0.00  0.00    +0.000 C 
ATOM     26  C   UNL     1       0.687   9.472  20.904  0.00  0.00    +0.000 A 
ATOM     27  N   UNL     1      -0.463   9.770  21.486  0.00  0.00    +0.000 NA
ATOM     28  C   UNL     1      -1.174  10.511  20.579  0.00  0.00    +0.000 A 
ATOM     29  C   UNL     1      -0.429  10.694  19.448  0.00  0.00    +0.000 A 
ATOM     30  N   UNL     1       0.749  10.021  19.631  0.00  0.00    +0.000 N 
BRANCH  29  31
ATOM     31  N   UNL     1      -0.768  11.407  18.278  0.00  0.00    +0.000 N 
ATOM     32  O   UNL     1      -0.395  12.581  18.217  0.00  0.00    +0.000 OA
ATOM     33  O   UNL     1      -1.405  10.790  17.416  0.00  0.00    +0.000 OA
ENDBRANCH  29  31
ENDBRANCH  24  30
ENDBRANCH  23  24
ENDBRANCH  22  23
ENDBRANCH  20  22
ENDBRANCH   1  20
TORSDOF 8
ENDMDL
MODEL 9
REMARK VINA RESULT:      -7.4      0.938      1.391
REMARK  Name = 
REMARK  9 active torsions:
REMARK  status: ('A' for Active; 'I' for Inactive)
REMARK    1  A    between atoms: C_1  and  C_2
REMARK    2  A    between atoms: C_5  and  N_6
REMARK    3  A    between atoms: N_9  and  C_10
REMARK    4  A    between atoms: C_10  and  C_11
REMARK    5  A    between atoms: C_11  and  O_12
REMARK    6  A    between atoms: O_12  and  C_13
REMARK    7  A    between atoms: C_13  and  C_15
REMARK    8  A    between atoms: C_16  and  N_17
REMARK    9  A    between atoms: C_18  and  C_20
REMARK                            x       y       z     vdW  Elec       q    Type
REMARK                         _______ _______ _______ _____ _____    ______ ____
ROOT
ATOM      1  C   UNL     1       3.363   5.300  18.165  0.00  0.00    +0.000 A 
ATOM      2  C   UNL     1       3.938   4.405  17.266  0.00  0.00    +0.000 A 
ATOM      3  S   UNL     1       3.838   2.791  17.766  0.00  0.00    +0.000 S 
ATOM      4  C   UNL     1       3.118   3.221  19.240  0.00  0.00    +0.000 A 
ATOM      5  C   UNL     1       2.838   4.567  19.328  0.00  0.00    +0.000 A 
ATOM      6  C   UNL     1       2.047   5.123  20.479  0.00  0.00    +0.000 C 
ATOM      7  C   UNL     1       1.606   4.105  21.547  0.00  0.00    +0.000 C 
ATOM      8  C   UNL     1       2.059   2.641  21.461  0.00  0.00    +0.000 C 
ATOM      9  C   UNL     1       2.821   2.163  20.234  0.00  0.00    +0.000 C 
ENDROOT
BRANCH   2  10
ATOM     10  N   UNL     1       4.540   4.478  16.022  0.00  0.00    +0.000 N 
ATOM     11  C   UNL     1       5.894   4.707  15.849  0.00  0.00    +0.000 C 
ATOM     12  O   UNL     1       6.682   4.969  16.751  0.00  0.00    +0.000 OA
ATOM     13  H   UNL     1       4.107   3.861  15.351  0.00  0.00    +0.000 HD
BRANCH  11  14
ATOM     14  C   UNL     1       6.397   4.596  14.422  0.00  0.00    +0.000 A 
ATOM     15  C   UNL     1       5.762   3.686  13.563  0.00  0.00    +0.000 A 
ATOM     16  C   UNL     1       6.193   3.506  12.247  0.00  0.00    +0.000 A 
ATOM     17  C   UNL     1       7.276   4.237  11.769  0.00  0.00    +0.000 A 
ATOM     18  C   UNL     1       7.905   5.161  12.598  0.00  0.00    +0.000 A 
ATOM     19  C   UNL     1       7.465   5.346  13.914  0.00  0.00    +0.000 A 
ENDBRANCH  11  14
ENDBRANCH   2  10
BRANCH   1  20
ATOM     20  C   UNL     1       3.236   6.742  17.948  0.00  0.00    +0.000 C 
ATOM     21  O   UNL     1       3.997   7.390  17.241  0.00  0.00    +0.000 OA
BRANCH  20  22
ATOM     22  O   UNL     1       2.232   7.307  18.677  0.00  0.00    +0.000 OA
BRANCH  22  23
ATOM     23  C   UNL     1       1.572   8.461  18.133  0.00  0.00    +0.000 C 
BRANCH  23  24
ATOM     24  C   UNL     1       1.819   9.806  18.802  0.00  0.00    +0.000 C 
BRANCH  24  30
ATOM     25  C   UNL     1       1.589   8.616  21.653  0.00  0.00    +0.000 C 
ATOM     26  C   UNL     1       0.636   9.579  21.034  0.00  0.00    +0.000 A 
ATOM     27  N   UNL     1      -0.472  10.011  21.612  0.00  0.00    +0.000 NA
ATOM     28  C   UNL     1      -1.080  10.842  20.708  0.00  0.00    +0.000 A 
ATOM     29  C   UNL     1      -0.310  10.942  19.584  0.00  0.00    +0.000 A 
ATOM     30  N   UNL     1       0.774  10.128  19.767  0.00  0.00    +0.000 N 
BRANCH  29  31
ATOM     31  N   UNL     1      -0.550  11.703  18.419  0.00  0.00    +0.000 N 
ATOM     32  O   UNL     1      -1.371  11.248  17.620  0.00  0.00    +0.000 OA
ATOM     33  O   UNL     1       0.082  12.759  18.305  0.00  0.00    +0.000 OA
ENDBRANCH  29  31
ENDBRANCH  24  30
ENDBRANCH  23  24
ENDBRANCH  22  23
ENDBRANCH  20  22
ENDBRANCH   1  20
TORSDOF 8
ENDMDL
