MODEL 1
REMARK VINA RESULT:      -7.5      0.000      0.000
REMARK  Name = 
REMARK  4 active torsions:
REMARK  status: ('A' for Active; 'I' for Inactive)
REMARK    1  A    between atoms: C_1  and  C_2
REMARK    2  A    between atoms: C_2  and  N_3
REMARK    3  A    between atoms: C_7  and  C_8
REMARK    4  A    between atoms: C_12  and  C_14
REMARK                            x       y       z     vdW  Elec       q    Type
REMARK                         _______ _______ _______ _____ _____    ______ ____
ROOT
ATOM      1  C   UNL     1       5.010   5.185  17.616  0.00  0.00    +0.000 C 
ATOM      2  C   UNL     1       4.315   6.474  17.193  0.00  0.00    +0.000 C 
ATOM      3  C   UNL     1       3.598   7.158  18.349  0.00  0.00    +0.000 C 
ATOM      4  N   UNL     1       2.753   6.304  19.183  0.00  0.00    +0.000 N 
ATOM      5  C   UNL     1       1.811   6.826  20.123  0.00  0.00    +0.000 C 
ATOM      6  O   UNL     1       1.204   6.067  20.879  0.00  0.00    +0.000 OA
ATOM      7  C   UNL     1       3.257   4.958  19.473  0.00  0.00    +0.000 C 
ATOM      8  C   UNL     1       3.971   4.286  18.296  0.00  0.00    +0.000 C 
ENDROOT
BRANCH   5   9
ATOM      9  C   UNL     1       1.549   8.268  20.109  0.00  0.00    +0.000 A 
ATOM     10  C   UNL     1       1.474   9.151  19.030  0.00  0.00    +0.000 A 
ATOM     11  C   UNL     1       0.558  10.157  19.371  0.00  0.00    +0.000 A 
ATOM     12  C   UNL     1       0.468  10.338  20.726  0.00  0.00    +0.000 A 
ATOM     13  S   UNL     1       1.181   9.098  21.596  0.00  0.00    +0.000 S 
ATOM     14  C   UNL     1      -0.505  11.398  21.083  0.00  0.00    +0.000 C 
ATOM     15  C   UNL     1      -1.438  11.280  19.839  0.00  0.00    +0.000 C 
ATOM     16  C   UNL     1      -0.464  10.956  18.655  0.00  0.00    +0.000 C 
ENDBRANCH   5   9
BRANCH   1  21
ATOM     17  N   UNL     1       7.261   6.271  18.245  0.00  0.00    +0.000 N 
ATOM     18  C   UNL     1       8.139   6.100  19.277  0.00  0.00    +0.000 A 
ATOM     19  N   UNL     1       7.636   5.264  20.149  0.00  0.00    +0.000 NA
ATOM     20  N   UNL     1       6.422   4.855  19.667  0.00  0.00    +0.000 NA
ATOM     21  C   UNL     1       6.202   5.435  18.502  0.00  0.00    +0.000 A 
BRANCH  17  23
ATOM     22  C   UNL     1       7.863   8.585  17.634  0.00  0.00    +0.000 C 
ATOM     23  C   UNL     1       7.465   7.201  17.158  0.00  0.00    +0.000 C 
ENDBRANCH  17  23
ENDBRANCH   1  21
TORSDOF 3
ENDMDL
MODEL 2
REMARK VINA RESULT:      -7.3      3.633      5.412
REMARK  Name = 
REMARK  4 active torsions:
REMARK  status: ('A' for Active; 'I' for Inactive)
REMARK    1  A    between atoms: C_1  and  C_2
REMARK    2  A    between atoms: C_2  and  N_3
REMARK    3  A    between atoms: C_7  and  C_8
REMARK    4  A    between atoms: C_12  and  C_14
REMARK                            x       y       z     vdW  Elec       q    Type
REMARK                         _______ _______ _______ _____ _____    ______ ____
ROOT
ATOM      1  C   UNL     1       7.182   4.946  16.348  0.00  0.00    +0.000 C 
ATOM      2  C   UNL     1       6.448   4.270  17.501  0.00  0.00    +0.000 C 
ATOM      3  C   UNL     1       4.981   4.674  17.577  0.00  0.00    +0.000 C 
ATOM      4  N   UNL     1       4.698   6.105  17.485  0.00  0.00    +0.000 N 
ATOM      5  C   UNL     1       3.425   6.666  17.810  0.00  0.00    +0.000 C 
ATOM      6  O   UNL     1       3.204   7.861  17.611  0.00  0.00    +0.000 OA
ATOM      7  C   UNL     1       5.508   6.879  16.538  0.00  0.00    +0.000 C 
ATOM      8  C   UNL     1       6.980   6.460  16.480  0.00  0.00    +0.000 C 
ENDROOT
BRANCH   5   9
ATOM      9  C   UNL     1       2.428   5.796  18.442  0.00  0.00    +0.000 A 
ATOM     10  C   UNL     1       1.570   4.857  17.867  0.00  0.00    +0.000 A 
ATOM     11  C   UNL     1       1.363   3.841  18.811  0.00  0.00    +0.000 A 
ATOM     12  C   UNL     1       1.522   4.287  20.096  0.00  0.00    +0.000 A 
ATOM     13  S   UNL     1       2.257   5.790  20.176  0.00  0.00    +0.000 S 
ATOM     14  C   UNL     1       1.310   3.209  21.092  0.00  0.00    +0.000 C 
ATOM     15  C   UNL     1       1.713   1.994  20.201  0.00  0.00    +0.000 C 
ATOM     16  C   UNL     1       1.187   2.370  18.773  0.00  0.00    +0.000 C 
ENDBRANCH   5   9
BRANCH   1  21
ATOM     17  N   UNL     1       7.252   4.782  13.776  0.00  0.00    +0.000 N 
ATOM     18  C   UNL     1       6.478   4.149  12.847  0.00  0.00    +0.000 A 
ATOM     19  N   UNL     1       5.583   3.409  13.449  0.00  0.00    +0.000 NA
ATOM     20  N   UNL     1       5.751   3.583  14.796  0.00  0.00    +0.000 NA
ATOM     21  C   UNL     1       6.738   4.435  15.002  0.00  0.00    +0.000 A 
BRANCH  17  23
ATOM     22  C   UNL     1       8.326   6.179  12.048  0.00  0.00    +0.000 C 
ATOM     23  C   UNL     1       8.395   5.603  13.450  0.00  0.00    +0.000 C 
ENDBRANCH  17  23
ENDBRANCH   1  21
TORSDOF 3
ENDMDL
MODEL 3
REMARK VINA RESULT:      -7.0      0.876      1.108
REMARK  Name = 
REMARK  4 active torsions:
REMARK  status: ('A' for Active; 'I' for Inactive)
REMARK    1  A    between atoms: C_1  and  C_2
REMARK    2  A    between atoms: C_2  and  N_3
REMARK    3  A    between atoms: C_7  and  C_8
REMARK    4  A    between atoms: C_12  and  C_14
REMARK                            x       y       z     vdW  Elec       q    Type
REMARK                         _______ _______ _______ _____ _____    ______ ____
ROOT
ATOM      1  C   UNL     1       4.542   4.648  17.891  0.00  0.00    +0.000 C 
ATOM      2  C   UNL     1       3.786   5.811  17.258  0.00  0.00    +0.000 C 
ATOM      3  C   UNL     1       3.235   6.782  18.294  0.00  0.00    +0.000 C 
ATOM      4  N   UNL     1       2.521   6.189  19.423  0.00  0.00    +0.000 N 
ATOM      5  C   UNL     1       1.718   6.956  20.322  0.00  0.00    +0.000 C 
ATOM      6  O   UNL     1       1.227   6.427  21.321  0.00  0.00    +0.000 OA
ATOM      7  C   UNL     1       3.069   4.942  19.969  0.00  0.00    +0.000 C 
ATOM      8  C   UNL     1       3.614   3.978  18.911  0.00  0.00    +0.000 C 
ENDROOT
BRANCH   5   9
ATOM      9  C   UNL     1       1.448   8.356  19.983  0.00  0.00    +0.000 A 
ATOM     10  C   UNL     1       1.262   8.952  18.735  0.00  0.00    +0.000 A 
ATOM     11  C   UNL     1       0.379  10.028  18.908  0.00  0.00    +0.000 A 
ATOM     12  C   UNL     1       0.422  10.534  20.180  0.00  0.00    +0.000 A 
ATOM     13  S   UNL     1       1.224   9.528  21.253  0.00  0.00    +0.000 S 
ATOM     14  C   UNL     1      -0.517  11.667  20.362  0.00  0.00    +0.000 C 
ATOM     15  C   UNL     1      -1.567  11.268  19.281  0.00  0.00    +0.000 C 
ATOM     16  C   UNL     1      -0.713  10.649  18.122  0.00  0.00    +0.000 C 
ENDBRANCH   5   9
BRANCH   1  21
ATOM     17  N   UNL     1       6.936   5.603  17.866  0.00  0.00    +0.000 N 
ATOM     18  C   UNL     1       7.908   5.743  18.814  0.00  0.00    +0.000 A 
ATOM     19  N   UNL     1       7.440   5.389  19.982  0.00  0.00    +0.000 NA
ATOM     20  N   UNL     1       6.148   4.978  19.795  0.00  0.00    +0.000 NA
ATOM     21  C   UNL     1       5.846   5.076  18.513  0.00  0.00    +0.000 A 
BRANCH  17  23
ATOM     22  C   UNL     1       7.091   4.816  15.532  0.00  0.00    +0.000 C 
ATOM     23  C   UNL     1       7.093   5.996  16.485  0.00  0.00    +0.000 C 
ENDBRANCH  17  23
ENDBRANCH   1  21
TORSDOF 3
ENDMDL
MODEL 4
REMARK VINA RESULT:      -6.9      6.733      8.766
REMARK  Name = 
REMARK  4 active torsions:
REMARK  status: ('A' for Active; 'I' for Inactive)
REMARK    1  A    between atoms: C_1  and  C_2
REMARK    2  A    between atoms: C_2  and  N_3
REMARK    3  A    between atoms: C_7  and  C_8
REMARK    4  A    between atoms: C_12  and  C_14
REMARK                            x       y       z     vdW  Elec       q    Type
REMARK                         _______ _______ _______ _____ _____    ______ ____
ROOT
ATOM      1  C   UNL     1      -0.520  12.020  20.037  0.00  0.00    +0.000 C 
ATOM      2  C   UNL     1      -1.796  12.851  19.963  0.00  0.00    +0.000 C 
ATOM      3  C   UNL     1      -2.988  12.048  19.459  0.00  0.00    +0.000 C 
ATOM      4  N   UNL     1      -2.766  11.240  18.261  0.00  0.00    +0.000 N 
ATOM      5  C   UNL     1      -3.832  10.655  17.512  0.00  0.00    +0.000 C 
ATOM      6  O   UNL     1      -3.587   9.893  16.575  0.00  0.00    +0.000 OA
ATOM      7  C   UNL     1      -1.469  10.564  18.152  0.00  0.00    +0.000 C 
ATOM      8  C   UNL     1      -0.284  11.390  18.660  0.00  0.00    +0.000 C 
ENDROOT
BRANCH   5   9
ATOM      9  C   UNL     1      -5.206  11.040  17.849  0.00  0.00    +0.000 A 
ATOM     10  C   UNL     1      -6.118  10.427  18.710  0.00  0.00    +0.000 A 
ATOM     11  C   UNL     1      -6.932  11.435  19.249  0.00  0.00    +0.000 A 
ATOM     12  C   UNL     1      -7.022  12.525  18.423  0.00  0.00    +0.000 A 
ATOM     13  S   UNL     1      -5.879  12.510  17.199  0.00  0.00    +0.000 S 
ATOM     14  C   UNL     1      -7.877  13.591  18.999  0.00  0.00    +0.000 C 
ATOM     15  C   UNL     1      -7.666  13.263  20.509  0.00  0.00    +0.000 C 
ATOM     16  C   UNL     1      -7.579  11.699  20.556  0.00  0.00    +0.000 C 
ENDBRANCH   5   9
BRANCH   1  21
ATOM     17  N   UNL     1      -0.921  11.181  22.441  0.00  0.00    +0.000 N 
ATOM     18  C   UNL     1      -0.723   9.987  23.072  0.00  0.00    +0.000 A 
ATOM     19  N   UNL     1      -0.335   9.089  22.203  0.00  0.00    +0.000 NA
ATOM     20  N   UNL     1      -0.246   9.710  20.987  0.00  0.00    +0.000 NA
ATOM     21  C   UNL     1      -0.569  10.983  21.129  0.00  0.00    +0.000 A 
BRANCH  17  23
ATOM     22  C   UNL     1      -2.921  12.254  23.410  0.00  0.00    +0.000 C 
ATOM     23  C   UNL     1      -1.442  12.361  23.093  0.00  0.00    +0.000 C 
ENDBRANCH  17  23
ENDBRANCH   1  21
TORSDOF 3
ENDMDL
MODEL 5
REMARK VINA RESULT:      -6.9      2.867      4.465
REMARK  Name = 
REMARK  4 active torsions:
REMARK  status: ('A' for Active; 'I' for Inactive)
REMARK    1  A    between atoms: C_1  and  C_2
REMARK    2  A    between atoms: C_2  and  N_3
REMARK    3  A    between atoms: C_7  and  C_8
REMARK    4  A    between atoms: C_12  and  C_14
REMARK                            x       y       z     vdW  Elec       q    Type
REMARK                         _______ _______ _______ _____ _____    ______ ____
ROOT
ATOM      1  C   UNL     1       3.588   5.230  19.477  0.00  0.00    +0.000 C 
ATOM      2  C   UNL     1       2.899   6.091  20.530  0.00  0.00    +0.000 C 
ATOM      3  C   UNL     1       1.942   7.107  19.920  0.00  0.00    +0.000 C 
ATOM      4  N   UNL     1       2.456   7.887  18.795  0.00  0.00    +0.000 N 
ATOM      5  C   UNL     1       1.797   9.052  18.295  0.00  0.00    +0.000 C 
ATOM      6  O   UNL     1       2.211   9.610  17.278  0.00  0.00    +0.000 OA
ATOM      7  C   UNL     1       3.306   7.178  17.834  0.00  0.00    +0.000 C 
ATOM      8  C   UNL     1       4.264   6.165  18.468  0.00  0.00    +0.000 C 
ENDROOT
BRANCH   5   9
ATOM      9  C   UNL     1       0.670   9.591  19.062  0.00  0.00    +0.000 A 
ATOM     10  C   UNL     1       0.556   9.827  20.433  0.00  0.00    +0.000 A 
ATOM     11  C   UNL     1      -0.301  10.925  20.602  0.00  0.00    +0.000 A 
ATOM     12  C   UNL     1      -1.181  11.061  19.561  0.00  0.00    +0.000 A 
ATOM     13  S   UNL     1      -0.766  10.128  18.233  0.00  0.00    +0.000 S 
ATOM     14  C   UNL     1      -2.080  12.226  19.739  0.00  0.00    +0.000 C 
ATOM     15  C   UNL     1      -1.142  13.107  20.620  0.00  0.00    +0.000 C 
ATOM     16  C   UNL     1      -0.388  12.077  21.530  0.00  0.00    +0.000 C 
ENDBRANCH   5   9
BRANCH   1  21
ATOM     17  N   UNL     1       1.659   3.521  19.409  0.00  0.00    +0.000 N 
ATOM     18  C   UNL     1       1.127   2.734  18.429  0.00  0.00    +0.000 A 
ATOM     19  N   UNL     1       1.691   3.015  17.283  0.00  0.00    +0.000 NA
ATOM     20  N   UNL     1       2.632   3.980  17.518  0.00  0.00    +0.000 NA
ATOM     21  C   UNL     1       2.640   4.270  18.806  0.00  0.00    +0.000 A 
BRANCH  17  23
ATOM     22  C   UNL     1       1.985   2.602  21.676  0.00  0.00    +0.000 C 
ATOM     23  C   UNL     1       1.193   3.532  20.776  0.00  0.00    +0.000 C 
ENDBRANCH  17  23
ENDBRANCH   1  21
TORSDOF 3
ENDMDL
MODEL 6
REMARK VINA RESULT:      -6.9      3.003      8.055
REMARK  Name = 
REMARK  4 active torsions:
REMARK  status: ('A' for Active; 'I' for Inactive)
REMARK    1  A    between atoms: C_1  and  C_2
REMARK    2  A    between atoms: C_2  and  N_3
REMARK    3  A    between atoms: C_7  and  C_8
REMARK    4  A    between atoms: C_12  and  C_14
REMARK                            x       y       z     vdW  Elec       q    Type
REMARK                         _______ _______ _______ _____ _____    ______ ____
ROOT
ATOM      1  C   UNL     1       0.268  11.357  19.272  0.00  0.00    +0.000 C 
ATOM      2  C   UNL     1       1.461  10.979  18.402  0.00  0.00    +0.000 C 
ATOM      3  C   UNL     1       1.651   9.472  18.292  0.00  0.00    +0.000 C 
ATOM      4  N   UNL     1       1.601   8.719  19.544  0.00  0.00    +0.000 N 
ATOM      5  C   UNL     1       2.027   7.360  19.649  0.00  0.00    +0.000 C 
ATOM      6  O   UNL     1       1.862   6.737  20.699  0.00  0.00    +0.000 OA
ATOM      7  C   UNL     1       0.609   9.151  20.534  0.00  0.00    +0.000 C 
ATOM      8  C   UNL     1       0.436  10.669  20.632  0.00  0.00    +0.000 C 
ENDROOT
BRANCH   5   9
ATOM      9  C   UNL     1       2.718   6.762  18.502  0.00  0.00    +0.000 A 
ATOM     10  C   UNL     1       3.699   7.304  17.671  0.00  0.00    +0.000 A 
ATOM     11  C   UNL     1       4.519   6.249  17.243  0.00  0.00    +0.000 A 
ATOM     12  C   UNL     1       3.859   5.048  17.239  0.00  0.00    +0.000 A 
ATOM     13  S   UNL     1       2.406   5.103  18.070  0.00  0.00    +0.000 S 
ATOM     14  C   UNL     1       4.730   3.935  16.794  0.00  0.00    +0.000 C 
ATOM     15  C   UNL     1       6.104   4.530  17.230  0.00  0.00    +0.000 C 
ATOM     16  C   UNL     1       5.962   6.068  16.959  0.00  0.00    +0.000 C 
ENDBRANCH   5   9
BRANCH   1  21
ATOM     17  N   UNL     1      -2.283  11.524  18.945  0.00  0.00    +0.000 N 
ATOM     18  C   UNL     1      -3.184  10.850  18.172  0.00  0.00    +0.000 A 
ATOM     19  N   UNL     1      -2.553  10.020  17.382  0.00  0.00    +0.000 NA
ATOM     20  N   UNL     1      -1.218  10.126  17.663  0.00  0.00    +0.000 NA
ATOM     21  C   UNL     1      -1.049  11.011  18.628  0.00  0.00    +0.000 A 
BRANCH  17  23
ATOM     22  C   UNL     1      -4.137  12.707  20.065  0.00  0.00    +0.000 C 
ATOM     23  C   UNL     1      -2.639  12.584  19.860  0.00  0.00    +0.000 C 
ENDBRANCH  17  23
ENDBRANCH   1  21
TORSDOF 3
ENDMDL
MODEL 7
REMARK VINA RESULT:      -6.8      1.514      1.893
REMARK  Name = 
REMARK  4 active torsions:
REMARK  status: ('A' for Active; 'I' for Inactive)
REMARK    1  A    between atoms: C_1  and  C_2
REMARK    2  A    between atoms: C_2  and  N_3
REMARK    3  A    between atoms: C_7  and  C_8
REMARK    4  A    between atoms: C_12  and  C_14
REMARK                            x       y       z     vdW  Elec       q    Type
REMARK                         _______ _______ _______ _____ _____    ______ ____
ROOT
ATOM      1  C   UNL     1       4.170   3.872  17.266  0.00  0.00    +0.000 C 
ATOM      2  C   UNL     1       3.317   5.069  16.860  0.00  0.00    +0.000 C 
ATOM      3  C   UNL     1       3.072   6.030  18.015  0.00  0.00    +0.000 C 
ATOM      4  N   UNL     1       2.643   5.430  19.278  0.00  0.00    +0.000 N 
ATOM      5  C   UNL     1       2.114   6.197  20.361  0.00  0.00    +0.000 C 
ATOM      6  O   UNL     1       1.871   5.660  21.442  0.00  0.00    +0.000 OA
ATOM      7  C   UNL     1       3.270   4.158  19.651  0.00  0.00    +0.000 C 
ATOM      8  C   UNL     1       3.505   3.204  18.476  0.00  0.00    +0.000 C 
ENDROOT
BRANCH   5   9
ATOM      9  C   UNL     1       1.811   7.612  20.122  0.00  0.00    +0.000 A 
ATOM     10  C   UNL     1       1.927   8.363  18.951  0.00  0.00    +0.000 A 
ATOM     11  C   UNL     1       0.928   9.348  18.982  0.00  0.00    +0.000 A 
ATOM     12  C   UNL     1       0.560   9.673  20.260  0.00  0.00    +0.000 A 
ATOM     13  S   UNL     1       1.123   8.579  21.397  0.00  0.00    +0.000 S 
ATOM     14  C   UNL     1      -0.501  10.708  20.289  0.00  0.00    +0.000 C 
ATOM     15  C   UNL     1      -1.159  10.400  18.909  0.00  0.00    +0.000 C 
ATOM     16  C   UNL     1       0.046  10.003  17.987  0.00  0.00    +0.000 C 
ENDBRANCH   5   9
BRANCH   1  21
ATOM     17  N   UNL     1       6.527   4.713  16.648  0.00  0.00    +0.000 N 
ATOM     18  C   UNL     1       7.701   4.827  17.335  0.00  0.00    +0.000 A 
ATOM     19  N   UNL     1       7.508   4.520  18.592  0.00  0.00    +0.000 NA
ATOM     20  N   UNL     1       6.193   4.166  18.727  0.00  0.00    +0.000 NA
ATOM     21  C   UNL     1       5.600   4.251  17.550  0.00  0.00    +0.000 A 
BRANCH  17  23
ATOM     22  C   UNL     1       6.306   3.860  14.342  0.00  0.00    +0.000 C 
ATOM     23  C   UNL     1       6.368   5.069  15.257  0.00  0.00    +0.000 C 
ENDBRANCH  17  23
ENDBRANCH   1  21
TORSDOF 3
ENDMDL
MODEL 8
REMARK VINA RESULT:      -6.6      7.722     11.140
REMARK  Name = 
REMARK  4 active torsions:
REMARK  status: ('A' for Active; 'I' for Inactive)
REMARK    1  A    between atoms: C_1  and  C_2
REMARK    2  A    between atoms: C_2  and  N_3
REMARK    3  A    between atoms: C_7  and  C_8
REMARK    4  A    between atoms: C_12  and  C_14
REMARK                            x       y       z     vdW  Elec       q    Type
REMARK                         _______ _______ _______ _____ _____    ______ ____
ROOT
ATOM      1  C   UNL     1      -6.414  13.363  20.662  0.00  0.00    +0.000 C 
ATOM      2  C   UNL     1      -4.991  13.388  20.116  0.00  0.00    +0.000 C 
ATOM      3  C   UNL     1      -3.969  12.879  21.125  0.00  0.00    +0.000 C 
ATOM      4  N   UNL     1      -4.068  13.422  22.478  0.00  0.00    +0.000 N 
ATOM      5  C   UNL     1      -3.038  13.263  23.455  0.00  0.00    +0.000 C 
ATOM      6  O   UNL     1      -3.216  13.644  24.613  0.00  0.00    +0.000 OA
ATOM      7  C   UNL     1      -5.420  13.627  23.010  0.00  0.00    +0.000 C 
ATOM      8  C   UNL     1      -6.430  14.143  21.982  0.00  0.00    +0.000 C 
ENDROOT
BRANCH   5   9
ATOM      9  C   UNL     1      -1.756  12.700  23.021  0.00  0.00    +0.000 A 
ATOM     10  C   UNL     1      -1.309  11.378  23.044  0.00  0.00    +0.000 A 
ATOM     11  C   UNL     1      -0.433  11.210  21.961  0.00  0.00    +0.000 A 
ATOM     12  C   UNL     1       0.165  12.386  21.591  0.00  0.00    +0.000 A 
ATOM     13  S   UNL     1      -0.565  13.730  22.274  0.00  0.00    +0.000 S 
ATOM     14  C   UNL     1       1.085  12.207  20.442  0.00  0.00    +0.000 C 
ATOM     15  C   UNL     1       0.393  10.972  19.787  0.00  0.00    +0.000 C 
ATOM     16  C   UNL     1      -0.118  10.125  21.003  0.00  0.00    +0.000 C 
ENDBRANCH   5   9
BRANCH   1  21
ATOM     17  N   UNL     1      -7.184  11.046  19.836  0.00  0.00    +0.000 N 
ATOM     18  C   UNL     1      -7.748   9.963  20.447  0.00  0.00    +0.000 A 
ATOM     19  N   UNL     1      -7.799  10.163  21.739  0.00  0.00    +0.000 NA
ATOM     20  N   UNL     1      -7.290  11.411  21.978  0.00  0.00    +0.000 NA
ATOM     21  C   UNL     1      -6.944  11.963  20.830  0.00  0.00    +0.000 A 
BRANCH  17  23
ATOM     22  C   UNL     1      -5.472  10.696  18.093  0.00  0.00    +0.000 C 
ATOM     23  C   UNL     1      -6.892  11.114  18.423  0.00  0.00    +0.000 C 
ENDBRANCH  17  23
ENDBRANCH   1  21
TORSDOF 3
ENDMDL
MODEL 9
REMARK VINA RESULT:      -6.5      5.726      8.430
REMARK  Name = 
REMARK  4 active torsions:
REMARK  status: ('A' for Active; 'I' for Inactive)
REMARK    1  A    between atoms: C_1  and  C_2
REMARK    2  A    between atoms: C_2  and  N_3
REMARK    3  A    between atoms: C_7  and  C_8
REMARK    4  A    between atoms: C_12  and  C_14
REMARK                            x       y       z     vdW  Elec       q    Type
REMARK                         _______ _______ _______ _____ _____    ______ ____
ROOT
ATOM      1  C   UNL     1      -0.531  12.346  20.192  0.00  0.00    +0.000 C 
ATOM      2  C   UNL     1      -1.805  13.135  19.911  0.00  0.00    +0.000 C 
ATOM      3  C   UNL     1      -2.970  12.240  19.511  0.00  0.00    +0.000 C 
ATOM      4  N   UNL     1      -2.692  11.230  18.491  0.00  0.00    +0.000 N 
ATOM      5  C   UNL     1      -3.721  10.506  17.815  0.00  0.00    +0.000 C 
ATOM      6  O   UNL     1      -3.432   9.590  17.045  0.00  0.00    +0.000 OA
ATOM      7  C   UNL     1      -1.389  10.560  18.564  0.00  0.00    +0.000 C 
ATOM      8  C   UNL     1      -0.231  11.478  18.964  0.00  0.00    +0.000 C 
ENDROOT
BRANCH   5   9
ATOM      9  C   UNL     1      -5.110  10.931  18.016  0.00  0.00    +0.000 A 
ATOM     10  C   UNL     1      -6.083  10.422  18.879  0.00  0.00    +0.000 A 
ATOM     11  C   UNL     1      -6.919  11.487  19.246  0.00  0.00    +0.000 A 
ATOM     12  C   UNL     1      -6.945  12.476  18.299  0.00  0.00    +0.000 A 
ATOM     13  S   UNL     1      -5.725  12.320  17.162  0.00  0.00    +0.000 S 
ATOM     14  C   UNL     1      -7.824  13.603  18.693  0.00  0.00    +0.000 C 
ATOM     15  C   UNL     1      -7.714  13.448  20.241  0.00  0.00    +0.000 C 
ATOM     16  C   UNL     1      -7.646  11.899  20.469  0.00  0.00    +0.000 C 
ENDBRANCH   5   9
BRANCH   1  21
ATOM     17  N   UNL     1       0.098  10.398  21.758  0.00  0.00    +0.000 N 
ATOM     18  C   UNL     1      -0.394   9.944  22.948  0.00  0.00    +0.000 A 
ATOM     19  N   UNL     1      -1.315  10.763  23.385  0.00  0.00    +0.000 NA
ATOM     20  N   UNL     1      -1.454  11.755  22.452  0.00  0.00    +0.000 NA
ATOM     21  C   UNL     1      -0.625  11.524  21.451  0.00  0.00    +0.000 A 
BRANCH  17  23
ATOM     22  C   UNL     1       1.133   8.263  21.078  0.00  0.00    +0.000 C 
ATOM     23  C   UNL     1       1.194   9.778  21.050  0.00  0.00    +0.000 C 
ENDBRANCH  17  23
ENDBRANCH   1  21
TORSDOF 3
ENDMDL
