MODEL 1
REMARK VINA RESULT:      -8.2      0.000      0.000
REMARK  Name = 
REMARK  5 active torsions:
REMARK  status: ('A' for Active; 'I' for Inactive)
REMARK    1  A    between atoms: C_1  and  C_2
REMARK    2  A    between atoms: C_2  and  S_3
REMARK    3  A    between atoms: C_2  and  C_13
REMARK    4  A    between atoms: S_3  and  C_4
REMARK    5  A    between atoms: N_15  and  C_16
REMARK                            x       y       z     vdW  Elec       q    Type
REMARK                         _______ _______ _______ _____ _____    ______ ____
ROOT
ATOM      1  C   UNL     1       2.209   4.814  20.089  0.00  0.00    +0.000 C 
ATOM      2  O   UNL     1       1.087   4.577  19.638  0.00  0.00    +0.000 OA
ATOM      3  N   UNL     1       2.821   6.059  20.091  0.00  0.00    +0.000 N 
ATOM      4  H   UNL     1       3.814   6.101  20.324  0.00  0.00    +0.000 HD
ENDROOT
BRANCH   3   5
ATOM      5  C   UNL     1       2.228   7.262  19.645  0.00  0.00    +0.000 A 
ATOM      6  C   UNL     1       2.356   7.716  18.315  0.00  0.00    +0.000 A 
ATOM      7  C   UNL     1       1.856   8.956  17.918  0.00  0.00    +0.000 A 
ATOM      8  C   UNL     1       1.226   9.720  18.868  0.00  0.00    +0.000 A 
ATOM      9  C   UNL     1       1.044   9.268  20.155  0.00  0.00    +0.000 A 
ATOM     10  C   UNL     1       1.510   8.034  20.570  0.00  0.00    +0.000 A 
ATOM     11  O   UNL     1       0.397  10.183  20.929  0.00  0.00    +0.000 OA
ATOM     12  C   UNL     1       0.285  11.289  20.005  0.00  0.00    +0.000 C 
ATOM     13  O   UNL     1       0.731  10.969  18.673  0.00  0.00    +0.000 OA
ENDBRANCH   3   5
BRANCH   1  15
ATOM     14  C   UNL     1       2.236   2.776  21.613  0.00  0.00    +0.000 C 
ATOM     15  C   UNL     1       3.029   3.656  20.654  0.00  0.00    +0.000 C 
BRANCH  15  16
ATOM     16  S   UNL     1       3.979   2.822  19.330  0.00  0.00    +0.000 S 
BRANCH  16  17
ATOM     17  C   UNL     1       5.179   3.979  18.890  0.00  0.00    +0.000 A 
ATOM     18  N   UNL     1       5.839   4.751  19.724  0.00  0.00    +0.000 NA
ATOM     19  N   UNL     1       6.642   5.585  18.987  0.00  0.00    +0.000 NA
ATOM     20  C   UNL     1       6.465   5.291  17.718  0.00  0.00    +0.000 A 
ATOM     21  C   UNL     1       7.014   5.834  16.525  0.00  0.00    +0.000 A 
ATOM     22  C   UNL     1       6.695   5.288  15.336  0.00  0.00    +0.000 A 
ATOM     23  C   UNL     1       5.798   4.142  15.243  0.00  0.00    +0.000 A 
ATOM     24  C   UNL     1       5.248   3.649  16.370  0.00  0.00    +0.000 A 
ATOM     25  N   UNL     1       5.570   4.232  17.595  0.00  0.00    +0.000 N 
ENDBRANCH  16  17
ENDBRANCH  15  16
ENDBRANCH   1  15
TORSDOF 4
ENDMDL
MODEL 2
REMARK VINA RESULT:      -8.2      0.935      1.729
REMARK  Name = 
REMARK  5 active torsions:
REMARK  status: ('A' for Active; 'I' for Inactive)
REMARK    1  A    between atoms: C_1  and  C_2
REMARK    2  A    between atoms: C_2  and  S_3
REMARK    3  A    between atoms: C_2  and  C_13
REMARK    4  A    between atoms: S_3  and  C_4
REMARK    5  A    between atoms: N_15  and  C_16
REMARK                            x       y       z     vdW  Elec       q    Type
REMARK                         _______ _______ _______ _____ _____    ______ ____
ROOT
ATOM      1  C   UNL     1       2.402   4.816  19.827  0.00  0.00    +0.000 C 
ATOM      2  O   UNL     1       1.406   4.542  19.156  0.00  0.00    +0.000 OA
ATOM      3  N   UNL     1       2.886   6.097  20.050  0.00  0.00    +0.000 N 
ATOM      4  H   UNL     1       3.812   6.191  20.468  0.00  0.00    +0.000 HD
ENDROOT
BRANCH   3   5
ATOM      5  C   UNL     1       2.273   7.292  19.607  0.00  0.00    +0.000 A 
ATOM      6  C   UNL     1       2.411   7.761  18.283  0.00  0.00    +0.000 A 
ATOM      7  C   UNL     1       1.890   8.993  17.890  0.00  0.00    +0.000 A 
ATOM      8  C   UNL     1       1.228   9.734  18.837  0.00  0.00    +0.000 A 
ATOM      9  C   UNL     1       1.036   9.266  20.116  0.00  0.00    +0.000 A 
ATOM     10  C   UNL     1       1.523   8.038  20.527  0.00  0.00    +0.000 A 
ATOM     11  O   UNL     1       0.357  10.158  20.888  0.00  0.00    +0.000 OA
ATOM     12  C   UNL     1       0.235  11.271  19.973  0.00  0.00    +0.000 C 
ATOM     13  O   UNL     1       0.708  10.974  18.645  0.00  0.00    +0.000 OA
ENDBRANCH   3   5
BRANCH   1  15
ATOM     14  C   UNL     1       2.419   2.853  21.446  0.00  0.00    +0.000 C 
ATOM     15  C   UNL     1       3.212   3.673  20.434  0.00  0.00    +0.000 C 
BRANCH  15  16
ATOM     16  S   UNL     1       4.127   2.760  19.138  0.00  0.00    +0.000 S 
BRANCH  16  17
ATOM     17  C   UNL     1       4.649   3.994  18.054  0.00  0.00    +0.000 A 
ATOM     18  N   UNL     1       4.105   4.268  16.889  0.00  0.00    +0.000 NA
ATOM     19  N   UNL     1       4.849   5.257  16.295  0.00  0.00    +0.000 NA
ATOM     20  C   UNL     1       5.823   5.575  17.120  0.00  0.00    +0.000 A 
ATOM     21  C   UNL     1       6.890   6.508  17.024  0.00  0.00    +0.000 A 
ATOM     22  C   UNL     1       7.726   6.673  18.067  0.00  0.00    +0.000 A 
ATOM     23  C   UNL     1       7.556   5.917  19.303  0.00  0.00    +0.000 A 
ATOM     24  C   UNL     1       6.566   5.007  19.382  0.00  0.00    +0.000 A 
ATOM     25  N   UNL     1       5.717   4.829  18.290  0.00  0.00    +0.000 N 
ENDBRANCH  16  17
ENDBRANCH  15  16
ENDBRANCH   1  15
TORSDOF 4
ENDMDL
MODEL 3
REMARK VINA RESULT:      -8.1      1.962      4.336
REMARK  Name = 
REMARK  5 active torsions:
REMARK  status: ('A' for Active; 'I' for Inactive)
REMARK    1  A    between atoms: C_1  and  C_2
REMARK    2  A    between atoms: C_2  and  S_3
REMARK    3  A    between atoms: C_2  and  C_13
REMARK    4  A    between atoms: S_3  and  C_4
REMARK    5  A    between atoms: N_15  and  C_16
REMARK                            x       y       z     vdW  Elec       q    Type
REMARK                         _______ _______ _______ _____ _____    ______ ____
ROOT
ATOM      1  C   UNL     1       4.631   5.780  18.108  0.00  0.00    +0.000 C 
ATOM      2  O   UNL     1       5.135   5.810  19.232  0.00  0.00    +0.000 OA
ATOM      3  N   UNL     1       3.460   6.428  17.741  0.00  0.00    +0.000 N 
ATOM      4  H   UNL     1       3.045   6.187  16.840  0.00  0.00    +0.000 HD
ENDROOT
BRANCH   3   5
ATOM      5  C   UNL     1       2.703   7.284  18.574  0.00  0.00    +0.000 A 
ATOM      6  C   UNL     1       2.318   6.912  19.880  0.00  0.00    +0.000 A 
ATOM      7  C   UNL     1       1.482   7.721  20.650  0.00  0.00    +0.000 A 
ATOM      8  C   UNL     1       1.052   8.900  20.094  0.00  0.00    +0.000 A 
ATOM      9  C   UNL     1       1.463   9.302  18.845  0.00  0.00    +0.000 A 
ATOM     10  C   UNL     1       2.309   8.530  18.068  0.00  0.00    +0.000 A 
ATOM     11  O   UNL     1       0.918  10.498  18.489  0.00  0.00    +0.000 OA
ATOM     12  C   UNL     1       0.047  10.745  19.617  0.00  0.00    +0.000 C 
ATOM     13  O   UNL     1       0.195   9.778  20.675  0.00  0.00    +0.000 OA
ENDBRANCH   3   5
BRANCH   1  15
ATOM     14  C   UNL     1       6.796   5.206  16.901  0.00  0.00    +0.000 C 
ATOM     15  C   UNL     1       5.301   4.934  17.028  0.00  0.00    +0.000 C 
BRANCH  15  16
ATOM     16  S   UNL     1       4.767   3.187  17.142  0.00  0.00    +0.000 S 
BRANCH  16  17
ATOM     17  C   UNL     1       3.144   3.287  17.714  0.00  0.00    +0.000 A 
ATOM     18  N   UNL     1       2.090   3.556  16.978  0.00  0.00    +0.000 NA
ATOM     19  N   UNL     1       0.998   3.625  17.806  0.00  0.00    +0.000 NA
ATOM     20  C   UNL     1       1.410   3.380  19.031  0.00  0.00    +0.000 A 
ATOM     21  C   UNL     1       0.730   3.337  20.278  0.00  0.00    +0.000 A 
ATOM     22  C   UNL     1       1.404   2.995  21.392  0.00  0.00    +0.000 A 
ATOM     23  C   UNL     1       2.823   2.659  21.349  0.00  0.00    +0.000 A 
ATOM     24  C   UNL     1       3.477   2.735  20.174  0.00  0.00    +0.000 A 
ATOM     25  N   UNL     1       2.775   3.108  19.028  0.00  0.00    +0.000 N 
ENDBRANCH  16  17
ENDBRANCH  15  16
ENDBRANCH   1  15
TORSDOF 4
ENDMDL
MODEL 4
REMARK VINA RESULT:      -8.0      2.033      4.287
REMARK  Name = 
REMARK  5 active torsions:
REMARK  status: ('A' for Active; 'I' for Inactive)
REMARK    1  A    between atoms: C_1  and  C_2
REMARK    2  A    between atoms: C_2  and  S_3
REMARK    3  A    between atoms: C_2  and  C_13
REMARK    4  A    between atoms: S_3  and  C_4
REMARK    5  A    between atoms: N_15  and  C_16
REMARK                            x       y       z     vdW  Elec       q    Type
REMARK                         _______ _______ _______ _____ _____    ______ ____
ROOT
ATOM      1  C   UNL     1       4.634   5.891  18.003  0.00  0.00    +0.000 C 
ATOM      2  O   UNL     1       5.035   5.962  19.166  0.00  0.00    +0.000 OA
ATOM      3  N   UNL     1       3.508   6.533  17.507  0.00  0.00    +0.000 N 
ATOM      4  H   UNL     1       3.173   6.260  16.583  0.00  0.00    +0.000 HD
ENDROOT
BRANCH   3   5
ATOM      5  C   UNL     1       2.688   7.425  18.235  0.00  0.00    +0.000 A 
ATOM      6  C   UNL     1       2.266   8.662  17.703  0.00  0.00    +0.000 A 
ATOM      7  C   UNL     1       1.547   9.577  18.472  0.00  0.00    +0.000 A 
ATOM      8  C   UNL     1       1.257   9.228  19.767  0.00  0.00    +0.000 A 
ATOM      9  C   UNL     1       1.612   8.004  20.283  0.00  0.00    +0.000 A 
ATOM     10  C   UNL     1       2.307   7.069  19.537  0.00  0.00    +0.000 A 
ATOM     11  O   UNL     1       1.228   7.868  21.582  0.00  0.00    +0.000 OA
ATOM     12  C   UNL     1       0.680   9.180  21.842  0.00  0.00    +0.000 C 
ATOM     13  O   UNL     1       0.617  10.016  20.670  0.00  0.00    +0.000 OA
ENDBRANCH   3   5
BRANCH   1  15
ATOM     14  C   UNL     1       6.882   5.309  16.962  0.00  0.00    +0.000 C 
ATOM     15  C   UNL     1       5.390   4.999  17.022  0.00  0.00    +0.000 C 
BRANCH  15  16
ATOM     16  S   UNL     1       4.899   3.246  17.221  0.00  0.00    +0.000 S 
BRANCH  16  17
ATOM     17  C   UNL     1       3.254   3.333  17.728  0.00  0.00    +0.000 A 
ATOM     18  N   UNL     1       2.228   3.598  16.952  0.00  0.00    +0.000 NA
ATOM     19  N   UNL     1       1.104   3.655  17.737  0.00  0.00    +0.000 NA
ATOM     20  C   UNL     1       1.469   3.408  18.976  0.00  0.00    +0.000 A 
ATOM     21  C   UNL     1       0.741   3.354  20.195  0.00  0.00    +0.000 A 
ATOM     22  C   UNL     1       1.372   3.012  21.334  0.00  0.00    +0.000 A 
ATOM     23  C   UNL     1       2.794   2.687  21.345  0.00  0.00    +0.000 A 
ATOM     24  C   UNL     1       3.494   2.772  20.197  0.00  0.00    +0.000 A 
ATOM     25  N   UNL     1       2.835   3.145  19.026  0.00  0.00    +0.000 N 
ENDBRANCH  16  17
ENDBRANCH  15  16
ENDBRANCH   1  15
TORSDOF 4
ENDMDL
MODEL 5
REMARK VINA RESULT:      -7.9      1.792      4.139
REMARK  Name = 
REMARK  5 active torsions:
REMARK  status: ('A' for Active; 'I' for Inactive)
REMARK    1  A    between atoms: C_1  and  C_2
REMARK    2  A    between atoms: C_2  and  S_3
REMARK    3  A    between atoms: C_2  and  C_13
REMARK    4  A    between atoms: S_3  and  C_4
REMARK    5  A    between atoms: N_15  and  C_16
REMARK                            x       y       z     vdW  Elec       q    Type
REMARK                         _______ _______ _______ _____ _____    ______ ____
ROOT
ATOM      1  C   UNL     1       4.499   5.953  17.712  0.00  0.00    +0.000 C 
ATOM      2  O   UNL     1       5.302   6.337  18.564  0.00  0.00    +0.000 OA
ATOM      3  N   UNL     1       3.165   6.328  17.646  0.00  0.00    +0.000 N 
ATOM      4  H   UNL     1       2.556   5.811  17.011  0.00  0.00    +0.000 HD
ENDROOT
BRANCH   3   5
ATOM      5  C   UNL     1       2.536   7.265  18.497  0.00  0.00    +0.000 A 
ATOM      6  C   UNL     1       2.295   6.998  19.861  0.00  0.00    +0.000 A 
ATOM      7  C   UNL     1       1.579   7.887  20.662  0.00  0.00    +0.000 A 
ATOM      8  C   UNL     1       1.122   9.041  20.076  0.00  0.00    +0.000 A 
ATOM      9  C   UNL     1       1.396   9.343  18.762  0.00  0.00    +0.000 A 
ATOM     10  C   UNL     1       2.122   8.488  17.951  0.00  0.00    +0.000 A 
ATOM     11  O   UNL     1       0.848  10.531  18.387  0.00  0.00    +0.000 OA
ATOM     12  C   UNL     1       0.123  10.886  19.587  0.00  0.00    +0.000 C 
ATOM     13  O   UNL     1       0.364   9.988  20.687  0.00  0.00    +0.000 OA
ENDBRANCH   3   5
BRANCH   1  15
ATOM     14  C   UNL     1       6.490   4.876  16.549  0.00  0.00    +0.000 C 
ATOM     15  C   UNL     1       4.971   4.949  16.663  0.00  0.00    +0.000 C 
BRANCH  15  16
ATOM     16  S   UNL     1       4.059   3.369  16.812  0.00  0.00    +0.000 S 
BRANCH  16  17
ATOM     17  C   UNL     1       4.070   3.044  18.505  0.00  0.00    +0.000 A 
ATOM     18  N   UNL     1       5.120   2.685  19.207  0.00  0.00    +0.000 NA
ATOM     19  N   UNL     1       4.710   2.444  20.494  0.00  0.00    +0.000 NA
ATOM     20  C   UNL     1       3.416   2.677  20.551  0.00  0.00    +0.000 A 
ATOM     21  C   UNL     1       2.473   2.577  21.609  0.00  0.00    +0.000 A 
ATOM     22  C   UNL     1       1.195   2.944  21.398  0.00  0.00    +0.000 A 
ATOM     23  C   UNL     1       0.754   3.451  20.103  0.00  0.00    +0.000 A 
ATOM     24  C   UNL     1       1.640   3.513  19.090  0.00  0.00    +0.000 A 
ATOM     25  N   UNL     1       2.957   3.113  19.312  0.00  0.00    +0.000 N 
ENDBRANCH  16  17
ENDBRANCH  15  16
ENDBRANCH   1  15
TORSDOF 4
ENDMDL
MODEL 6
REMARK VINA RESULT:      -7.8      0.775      1.414
REMARK  Name = 
REMARK  5 active torsions:
REMARK  status: ('A' for Active; 'I' for Inactive)
REMARK    1  A    between atoms: C_1  and  C_2
REMARK    2  A    between atoms: C_2  and  S_3
REMARK    3  A    between atoms: C_2  and  C_13
REMARK    4  A    between atoms: S_3  and  C_4
REMARK    5  A    between atoms: N_15  and  C_16
REMARK                            x       y       z     vdW  Elec       q    Type
REMARK                         _______ _______ _______ _____ _____    ______ ____
ROOT
ATOM      1  C   UNL     1       1.919   4.800  20.491  0.00  0.00    +0.000 C 
ATOM      2  O   UNL     1       0.696   4.656  20.502  0.00  0.00    +0.000 OA
ATOM      3  N   UNL     1       2.579   6.015  20.374  0.00  0.00    +0.000 N 
ATOM      4  H   UNL     1       3.584   5.996  20.196  0.00  0.00    +0.000 HD
ENDROOT
BRANCH   3   5
ATOM      5  C   UNL     1       1.955   7.283  20.326  0.00  0.00    +0.000 A 
ATOM      6  C   UNL     1       1.212   7.796  21.409  0.00  0.00    +0.000 A 
ATOM      7  C   UNL     1       0.514   9.000  21.308  0.00  0.00    +0.000 A 
ATOM      8  C   UNL     1       0.582   9.674  20.114  0.00  0.00    +0.000 A 
ATOM      9  C   UNL     1       1.348   9.215  19.067  0.00  0.00    +0.000 A 
ATOM     10  C   UNL     1       2.067   8.035  19.148  0.00  0.00    +0.000 A 
ATOM     11  O   UNL     1       1.271  10.034  17.983  0.00  0.00    +0.000 OA
ATOM     12  C   UNL     1       0.298  11.000  18.441  0.00  0.00    +0.000 C 
ATOM     13  O   UNL     1      -0.075  10.825  19.821  0.00  0.00    +0.000 OA
ENDBRANCH   3   5
BRANCH   1  15
ATOM     14  C   UNL     1       2.251   2.488  21.501  0.00  0.00    +0.000 C 
ATOM     15  C   UNL     1       2.802   3.556  20.563  0.00  0.00    +0.000 C 
BRANCH  15  16
ATOM     16  S   UNL     1       3.321   3.025  18.890  0.00  0.00    +0.000 S 
BRANCH  16  17
ATOM     17  C   UNL     1       4.805   3.863  18.632  0.00  0.00    +0.000 A 
ATOM     18  N   UNL     1       5.580   4.352  19.573  0.00  0.00    +0.000 NA
ATOM     19  N   UNL     1       6.619   5.012  18.968  0.00  0.00    +0.000 NA
ATOM     20  C   UNL     1       6.463   4.896  17.667  0.00  0.00    +0.000 A 
ATOM     21  C   UNL     1       7.216   5.386  16.566  0.00  0.00    +0.000 A 
ATOM     22  C   UNL     1       6.852   5.058  15.312  0.00  0.00    +0.000 A 
ATOM     23  C   UNL     1       5.700   4.201  15.055  0.00  0.00    +0.000 A 
ATOM     24  C   UNL     1       4.964   3.766  16.096  0.00  0.00    +0.000 A 
ATOM     25  N   UNL     1       5.338   4.125  17.390  0.00  0.00    +0.000 N 
ENDBRANCH  16  17
ENDBRANCH  15  16
ENDBRANCH   1  15
TORSDOF 4
ENDMDL
MODEL 7
REMARK VINA RESULT:      -7.7      1.795      2.421
REMARK  Name = 
REMARK  5 active torsions:
REMARK  status: ('A' for Active; 'I' for Inactive)
REMARK    1  A    between atoms: C_1  and  C_2
REMARK    2  A    between atoms: C_2  and  S_3
REMARK    3  A    between atoms: C_2  and  C_13
REMARK    4  A    between atoms: S_3  and  C_4
REMARK    5  A    between atoms: N_15  and  C_16
REMARK                            x       y       z     vdW  Elec       q    Type
REMARK                         _______ _______ _______ _____ _____    ______ ____
ROOT
ATOM      1  C   UNL     1       2.807   4.585  18.174  0.00  0.00    +0.000 C 
ATOM      2  O   UNL     1       1.753   4.512  17.541  0.00  0.00    +0.000 OA
ATOM      3  N   UNL     1       3.253   5.707  18.857  0.00  0.00    +0.000 N 
ATOM      4  H   UNL     1       4.217   5.710  19.192  0.00  0.00    +0.000 HD
ENDROOT
BRANCH   3   5
ATOM      5  C   UNL     1       2.535   6.918  18.996  0.00  0.00    +0.000 A 
ATOM      6  C   UNL     1       2.451   7.865  17.954  0.00  0.00    +0.000 A 
ATOM      7  C   UNL     1       1.831   9.100  18.141  0.00  0.00    +0.000 A 
ATOM      8  C   UNL     1       1.296   9.360  19.378  0.00  0.00    +0.000 A 
ATOM      9  C   UNL     1       1.320   8.425  20.387  0.00  0.00    +0.000 A 
ATOM     10  C   UNL     1       1.910   7.185  20.222  0.00  0.00    +0.000 A 
ATOM     11  O   UNL     1       0.737   8.890  21.526  0.00  0.00    +0.000 OA
ATOM     12  C   UNL     1       0.434  10.250  21.141  0.00  0.00    +0.000 C 
ATOM     13  O   UNL     1       0.708  10.525  19.753  0.00  0.00    +0.000 OA
ENDBRANCH   3   5
BRANCH   1  15
ATOM     14  C   UNL     1       3.014   2.071  18.510  0.00  0.00    +0.000 C 
ATOM     15  C   UNL     1       3.737   3.373  18.187  0.00  0.00    +0.000 C 
BRANCH  15  16
ATOM     16  S   UNL     1       4.846   3.385  16.731  0.00  0.00    +0.000 S 
BRANCH  16  17
ATOM     17  C   UNL     1       5.384   5.020  16.635  0.00  0.00    +0.000 A 
ATOM     18  N   UNL     1       4.948   5.919  15.783  0.00  0.00    +0.000 NA
ATOM     19  N   UNL     1       5.673   7.069  15.969  0.00  0.00    +0.000 NA
ATOM     20  C   UNL     1       6.527   6.850  16.945  0.00  0.00    +0.000 A 
ATOM     21  C   UNL     1       7.525   7.665  17.544  0.00  0.00    +0.000 A 
ATOM     22  C   UNL     1       8.230   7.194  18.590  0.00  0.00    +0.000 A 
ATOM     23  C   UNL     1       7.989   5.860  19.129  0.00  0.00    +0.000 A 
ATOM     24  C   UNL     1       7.069   5.073  18.539  0.00  0.00    +0.000 A 
ATOM     25  N   UNL     1       6.356   5.563  17.446  0.00  0.00    +0.000 N 
ENDBRANCH  16  17
ENDBRANCH  15  16
ENDBRANCH   1  15
TORSDOF 4
ENDMDL
MODEL 8
REMARK VINA RESULT:      -7.7      2.058      4.080
REMARK  Name = 
REMARK  5 active torsions:
REMARK  status: ('A' for Active; 'I' for Inactive)
REMARK    1  A    between atoms: C_1  and  C_2
REMARK    2  A    between atoms: C_2  and  S_3
REMARK    3  A    between atoms: C_2  and  C_13
REMARK    4  A    between atoms: S_3  and  C_4
REMARK    5  A    between atoms: N_15  and  C_16
REMARK                            x       y       z     vdW  Elec       q    Type
REMARK                         _______ _______ _______ _____ _____    ______ ____
ROOT
ATOM      1  C   UNL     1       4.488   6.213  17.636  0.00  0.00    +0.000 C 
ATOM      2  O   UNL     1       4.472   6.881  16.601  0.00  0.00    +0.000 OA
ATOM      3  N   UNL     1       3.694   6.447  18.749  0.00  0.00    +0.000 N 
ATOM      4  H   UNL     1       3.919   5.946  19.609  0.00  0.00    +0.000 HD
ENDROOT
BRANCH   3   5
ATOM      5  C   UNL     1       2.692   7.440  18.844  0.00  0.00    +0.000 A 
ATOM      6  C   UNL     1       2.379   8.297  17.768  0.00  0.00    +0.000 A 
ATOM      7  C   UNL     1       1.463   9.340  17.911  0.00  0.00    +0.000 A 
ATOM      8  C   UNL     1       0.869   9.499  19.138  0.00  0.00    +0.000 A 
ATOM      9  C   UNL     1       1.122   8.639  20.180  0.00  0.00    +0.000 A 
ATOM     10  C   UNL     1       2.008   7.583  20.060  0.00  0.00    +0.000 A 
ATOM     11  O   UNL     1       0.429   8.980  21.302  0.00  0.00    +0.000 OA
ATOM     12  C   UNL     1      -0.206  10.204  20.866  0.00  0.00    +0.000 C 
ATOM     13  O   UNL     1       0.001  10.490  19.470  0.00  0.00    +0.000 OA
ENDBRANCH   3   5
BRANCH   1  15
ATOM     14  C   UNL     1       6.181   5.003  19.100  0.00  0.00    +0.000 C 
ATOM     15  C   UNL     1       5.482   5.059  17.746  0.00  0.00    +0.000 C 
BRANCH  15  16
ATOM     16  S   UNL     1       4.756   3.506  17.105  0.00  0.00    +0.000 S 
BRANCH  16  17
ATOM     17  C   UNL     1       3.136   3.534  17.694  0.00  0.00    +0.000 A 
ATOM     18  N   UNL     1       2.071   3.842  16.988  0.00  0.00    +0.000 NA
ATOM     19  N   UNL     1       0.986   3.826  17.827  0.00  0.00    +0.000 NA
ATOM     20  C   UNL     1       1.412   3.493  19.026  0.00  0.00    +0.000 A 
ATOM     21  C   UNL     1       0.743   3.339  20.270  0.00  0.00    +0.000 A 
ATOM     22  C   UNL     1       1.431   2.922  21.349  0.00  0.00    +0.000 A 
ATOM     23  C   UNL     1       2.855   2.616  21.270  0.00  0.00    +0.000 A 
ATOM     24  C   UNL     1       3.498   2.795  20.100  0.00  0.00    +0.000 A 
ATOM     25  N   UNL     1       2.781   3.245  18.992  0.00  0.00    +0.000 N 
ENDBRANCH  16  17
ENDBRANCH  15  16
ENDBRANCH   1  15
TORSDOF 4
ENDMDL
MODEL 9
REMARK VINA RESULT:      -7.6      1.484      2.434
REMARK  Name = 
REMARK  5 active torsions:
REMARK  status: ('A' for Active; 'I' for Inactive)
REMARK    1  A    between atoms: C_1  and  C_2
REMARK    2  A    between atoms: C_2  and  S_3
REMARK    3  A    between atoms: C_2  and  C_13
REMARK    4  A    between atoms: S_3  and  C_4
REMARK    5  A    between atoms: N_15  and  C_16
REMARK                            x       y       z     vdW  Elec       q    Type
REMARK                         _______ _______ _______ _____ _____    ______ ____
ROOT
ATOM      1  C   UNL     1       2.618   4.913  19.435  0.00  0.00    +0.000 C 
ATOM      2  O   UNL     1       1.464   4.623  19.113  0.00  0.00    +0.000 OA
ATOM      3  N   UNL     1       3.048   6.178  19.807  0.00  0.00    +0.000 N 
ATOM      4  H   UNL     1       4.054   6.338  19.877  0.00  0.00    +0.000 HD
ENDROOT
BRANCH   3   5
ATOM      5  C   UNL     1       2.219   7.315  19.949  0.00  0.00    +0.000 A 
ATOM      6  C   UNL     1       1.471   7.557  21.120  0.00  0.00    +0.000 A 
ATOM      7  C   UNL     1       0.577   8.625  21.205  0.00  0.00    +0.000 A 
ATOM      8  C   UNL     1       0.456   9.439  20.106  0.00  0.00    +0.000 A 
ATOM      9  C   UNL     1       1.218   9.249  18.978  0.00  0.00    +0.000 A 
ATOM     10  C   UNL     1       2.128   8.211  18.875  0.00  0.00    +0.000 A 
ATOM     11  O   UNL     1       0.937  10.167  18.013  0.00  0.00    +0.000 OA
ATOM     12  C   UNL     1      -0.152  10.887  18.632  0.00  0.00    +0.000 C 
ATOM     13  O   UNL     1      -0.403  10.485  19.993  0.00  0.00    +0.000 OA
ENDBRANCH   3   5
BRANCH   1  15
ATOM     14  C   UNL     1       3.348   2.615  20.249  0.00  0.00    +0.000 C 
ATOM     15  C   UNL     1       3.687   3.823  19.383  0.00  0.00    +0.000 C 
BRANCH  15  16
ATOM     16  S   UNL     1       4.214   3.507  17.659  0.00  0.00    +0.000 S 
BRANCH  16  17
ATOM     17  C   UNL     1       4.984   4.974  17.186  0.00  0.00    +0.000 A 
ATOM     18  N   UNL     1       4.652   5.712  16.151  0.00  0.00    +0.000 NA
ATOM     19  N   UNL     1       5.546   6.750  16.064  0.00  0.00    +0.000 NA
ATOM     20  C   UNL     1       6.396   6.630  17.060  0.00  0.00    +0.000 A 
ATOM     21  C   UNL     1       7.526   7.397  17.451  0.00  0.00    +0.000 A 
ATOM     22  C   UNL     1       8.195   7.074  18.573  0.00  0.00    +0.000 A 
ATOM     23  C   UNL     1       7.781   5.951  19.407  0.00  0.00    +0.000 A 
ATOM     24  C   UNL     1       6.731   5.201  19.019  0.00  0.00    +0.000 A 
ATOM     25  N   UNL     1       6.056   5.532  17.845  0.00  0.00    +0.000 N 
ENDBRANCH  16  17
ENDBRANCH  15  16
ENDBRANCH   1  15
TORSDOF 4
ENDMDL
