MODEL 1
REMARK VINA RESULT:      -6.3      0.000      0.000
REMARK  Name = 
REMARK  5 active torsions:
REMARK  status: ('A' for Active; 'I' for Inactive)
REMARK    1  A    between atoms: C_2  and  C_4
REMARK    2  A    between atoms: C_4  and  SE_5
REMARK    3  A    between atoms: SE_5  and  C_6
REMARK    4  A    between atoms: C_6  and  C_8
REMARK    5  A    between atoms: C_8  and  C_9
REMARK                            x       y       z     vdW  Elec       q    Type
REMARK                         _______ _______ _______ _____ _____    ______ ____
ROOT
ATOM      1  C   UNL     1       4.139   6.359  17.827  0.00  0.00    +0.000 C 
ATOM      2  O   UNL     1       4.631   7.026  16.930  0.00  0.00    +0.000 OA
ENDROOT
BRANCH   1   3
ATOM      3 SE   UNL     1       5.164   4.955  18.668  0.00  0.00    +0.000 Se
BRANCH   3   4
ATOM      4  C   UNL     1       5.810   4.198  16.985  0.00  0.00    +0.000 C 
BRANCH   4   6
ATOM      5  N   UNL     1       7.362   5.762  15.841  0.00  0.00    +0.000 N 
ATOM      6  C   UNL     1       7.187   4.723  16.692  0.00  0.00    +0.000 C 
ATOM      7  O   UNL     1       8.158   4.211  17.230  0.00  0.00    +0.000 OA
ATOM      8  H   UNL     1       8.307   6.123  15.641  0.00  0.00    +0.000 HD
ATOM      9  H   UNL     1       6.555   6.208  15.381  0.00  0.00    +0.000 HD
ENDBRANCH   4   6
ENDBRANCH   3   4
ENDBRANCH   1   3
BRANCH   1  10
ATOM     10  C   UNL     1       2.721   6.607  18.260  0.00  0.00    +0.000 C 
BRANCH  10  11
ATOM     11  C   UNL     1       2.094   5.353  18.817  0.00  0.00    +0.000 A 
ATOM     12  C   UNL     1       1.719   4.304  17.957  0.00  0.00    +0.000 A 
ATOM     13  C   UNL     1       1.141   3.140  18.472  0.00  0.00    +0.000 A 
ATOM     14  C   UNL     1       0.935   3.009  19.848  0.00  0.00    +0.000 A 
ATOM     15  C   UNL     1       1.308   4.042  20.711  0.00  0.00    +0.000 A 
ATOM     16  C   UNL     1       1.884   5.210  20.200  0.00  0.00    +0.000 A 
ENDBRANCH  10  11
ENDBRANCH   1  10
TORSDOF 5
ENDMDL
MODEL 2
REMARK VINA RESULT:      -6.0      1.692      2.119
REMARK  Name = 
REMARK  5 active torsions:
REMARK  status: ('A' for Active; 'I' for Inactive)
REMARK    1  A    between atoms: C_2  and  C_4
REMARK    2  A    between atoms: C_4  and  SE_5
REMARK    3  A    between atoms: SE_5  and  C_6
REMARK    4  A    between atoms: C_6  and  C_8
REMARK    5  A    between atoms: C_8  and  C_9
REMARK                            x       y       z     vdW  Elec       q    Type
REMARK                         _______ _______ _______ _____ _____    ______ ____
ROOT
ATOM      1  C   UNL     1       4.798   5.784  18.362  0.00  0.00    +0.000 C 
ATOM      2  O   UNL     1       5.147   5.335  19.442  0.00  0.00    +0.000 OA
ENDROOT
BRANCH   1   3
ATOM      3 SE   UNL     1       6.112   6.188  17.006  0.00  0.00    +0.000 Se
BRANCH   3   4
ATOM      4  C   UNL     1       6.037   4.418  16.178  0.00  0.00    +0.000 C 
BRANCH   4   6
ATOM      5  N   UNL     1       6.351   3.589  13.859  0.00  0.00    +0.000 N 
ATOM      6  C   UNL     1       6.702   4.463  14.832  0.00  0.00    +0.000 C 
ATOM      7  O   UNL     1       7.566   5.300  14.610  0.00  0.00    +0.000 OA
ATOM      8  H   UNL     1       6.807   3.621  12.935  0.00  0.00    +0.000 HD
ATOM      9  H   UNL     1       5.622   2.879  14.027  0.00  0.00    +0.000 HD
ENDBRANCH   4   6
ENDBRANCH   3   4
ENDBRANCH   1   3
BRANCH   1  10
ATOM     10  C   UNL     1       3.343   6.056  18.093  0.00  0.00    +0.000 C 
BRANCH  10  11
ATOM     11  C   UNL     1       2.470   4.967  18.665  0.00  0.00    +0.000 A 
ATOM     12  C   UNL     1       1.937   5.091  19.961  0.00  0.00    +0.000 A 
ATOM     13  C   UNL     1       1.126   4.083  20.492  0.00  0.00    +0.000 A 
ATOM     14  C   UNL     1       0.835   2.945  19.734  0.00  0.00    +0.000 A 
ATOM     15  C   UNL     1       1.356   2.815  18.444  0.00  0.00    +0.000 A 
ATOM     16  C   UNL     1       2.170   3.819  17.910  0.00  0.00    +0.000 A 
ENDBRANCH  10  11
ENDBRANCH   1  10
TORSDOF 5
ENDMDL
MODEL 3
REMARK VINA RESULT:      -5.9      1.824      1.961
REMARK  Name = 
REMARK  5 active torsions:
REMARK  status: ('A' for Active; 'I' for Inactive)
REMARK    1  A    between atoms: C_2  and  C_4
REMARK    2  A    between atoms: C_4  and  SE_5
REMARK    3  A    between atoms: SE_5  and  C_6
REMARK    4  A    between atoms: C_6  and  C_8
REMARK    5  A    between atoms: C_8  and  C_9
REMARK                            x       y       z     vdW  Elec       q    Type
REMARK                         _______ _______ _______ _____ _____    ______ ____
ROOT
ATOM      1  C   UNL     1       5.155   5.031  18.577  0.00  0.00    +0.000 C 
ATOM      2  O   UNL     1       5.921   4.168  18.976  0.00  0.00    +0.000 OA
ENDROOT
BRANCH   1   3
ATOM      3 SE   UNL     1       5.351   5.759  16.800  0.00  0.00    +0.000 Se
BRANCH   3   4
ATOM      4  C   UNL     1       6.032   4.100  16.020  0.00  0.00    +0.000 C 
BRANCH   4   6
ATOM      5  N   UNL     1       7.590   5.342  14.541  0.00  0.00    +0.000 N 
ATOM      6  C   UNL     1       6.640   4.386  14.677  0.00  0.00    +0.000 C 
ATOM      7  O   UNL     1       6.279   3.748  13.699  0.00  0.00    +0.000 OA
ATOM      8  H   UNL     1       8.008   5.539  13.619  0.00  0.00    +0.000 HD
ATOM      9  H   UNL     1       7.908   5.889  15.355  0.00  0.00    +0.000 HD
ENDBRANCH   4   6
ENDBRANCH   3   4
ENDBRANCH   1   3
BRANCH   1  10
ATOM     10  C   UNL     1       4.074   5.555  19.481  0.00  0.00    +0.000 C 
BRANCH  10  11
ATOM     11  C   UNL     1       2.897   4.612  19.528  0.00  0.00    +0.000 A 
ATOM     12  C   UNL     1       2.410   4.026  18.345  0.00  0.00    +0.000 A 
ATOM     13  C   UNL     1       1.322   3.149  18.386  0.00  0.00    +0.000 A 
ATOM     14  C   UNL     1       0.712   2.846  19.607  0.00  0.00    +0.000 A 
ATOM     15  C   UNL     1       1.191   3.419  20.788  0.00  0.00    +0.000 A 
ATOM     16  C   UNL     1       2.278   4.298  20.750  0.00  0.00    +0.000 A 
ENDBRANCH  10  11
ENDBRANCH   1  10
TORSDOF 5
ENDMDL
MODEL 4
REMARK VINA RESULT:      -5.9      1.049      1.652
REMARK  Name = 
REMARK  5 active torsions:
REMARK  status: ('A' for Active; 'I' for Inactive)
REMARK    1  A    between atoms: C_2  and  C_4
REMARK    2  A    between atoms: C_4  and  SE_5
REMARK    3  A    between atoms: SE_5  and  C_6
REMARK    4  A    between atoms: C_6  and  C_8
REMARK    5  A    between atoms: C_8  and  C_9
REMARK                            x       y       z     vdW  Elec       q    Type
REMARK                         _______ _______ _______ _____ _____    ______ ____
ROOT
ATOM      1  C   UNL     1       3.761   6.471  18.387  0.00  0.00    +0.000 C 
ATOM      2  O   UNL     1       3.830   7.206  17.415  0.00  0.00    +0.000 OA
ENDROOT
BRANCH   1   3
ATOM      3 SE   UNL     1       5.210   5.262  18.797  0.00  0.00    +0.000 Se
BRANCH   3   4
ATOM      4  C   UNL     1       5.623   4.865  16.927  0.00  0.00    +0.000 C 
BRANCH   4   6
ATOM      5  N   UNL     1       7.997   4.308  17.390  0.00  0.00    +0.000 N 
ATOM      6  C   UNL     1       7.096   5.037  16.689  0.00  0.00    +0.000 C 
ATOM      7  O   UNL     1       7.486   5.838  15.852  0.00  0.00    +0.000 OA
ATOM      8  H   UNL     1       9.008   4.426  17.226  0.00  0.00    +0.000 HD
ATOM      9  H   UNL     1       7.686   3.626  18.098  0.00  0.00    +0.000 HD
ENDBRANCH   4   6
ENDBRANCH   3   4
ENDBRANCH   1   3
BRANCH   1  10
ATOM     10  C   UNL     1       2.532   6.481  19.253  0.00  0.00    +0.000 C 
BRANCH  10  11
ATOM     11  C   UNL     1       2.014   5.082  19.480  0.00  0.00    +0.000 A 
ATOM     12  C   UNL     1       1.896   4.571  20.786  0.00  0.00    +0.000 A 
ATOM     13  C   UNL     1       1.413   3.276  20.997  0.00  0.00    +0.000 A 
ATOM     14  C   UNL     1       1.040   2.480  19.911  0.00  0.00    +0.000 A 
ATOM     15  C   UNL     1       1.149   2.980  18.610  0.00  0.00    +0.000 A 
ATOM     16  C   UNL     1       1.634   4.274  18.394  0.00  0.00    +0.000 A 
ENDBRANCH  10  11
ENDBRANCH   1  10
TORSDOF 5
ENDMDL
MODEL 5
REMARK VINA RESULT:      -5.9      1.780      1.815
REMARK  Name = 
REMARK  5 active torsions:
REMARK  status: ('A' for Active; 'I' for Inactive)
REMARK    1  A    between atoms: C_2  and  C_4
REMARK    2  A    between atoms: C_4  and  SE_5
REMARK    3  A    between atoms: SE_5  and  C_6
REMARK    4  A    between atoms: C_6  and  C_8
REMARK    5  A    between atoms: C_8  and  C_9
REMARK                            x       y       z     vdW  Elec       q    Type
REMARK                         _______ _______ _______ _____ _____    ______ ____
ROOT
ATOM      1  C   UNL     1       4.917   5.424  18.790  0.00  0.00    +0.000 C 
ATOM      2  O   UNL     1       5.704   4.525  19.041  0.00  0.00    +0.000 OA
ENDROOT
BRANCH   1   3
ATOM      3 SE   UNL     1       5.182   6.545  17.240  0.00  0.00    +0.000 Se
BRANCH   3   4
ATOM      4  C   UNL     1       7.009   5.931  16.909  0.00  0.00    +0.000 C 
BRANCH   4   6
ATOM      5  N   UNL     1       6.408   3.716  15.963  0.00  0.00    +0.000 N 
ATOM      6  C   UNL     1       7.007   4.920  15.798  0.00  0.00    +0.000 C 
ATOM      7  O   UNL     1       7.546   5.187  14.734  0.00  0.00    +0.000 OA
ATOM      8  H   UNL     1       6.406   3.022  15.200  0.00  0.00    +0.000 HD
ATOM      9  H   UNL     1       5.946   3.475  16.852  0.00  0.00    +0.000 HD
ENDBRANCH   4   6
ENDBRANCH   3   4
ENDBRANCH   1   3
BRANCH   1  10
ATOM     10  C   UNL     1       3.752   5.683  19.706  0.00  0.00    +0.000 C 
BRANCH  10  11
ATOM     11  C   UNL     1       2.696   4.615  19.560  0.00  0.00    +0.000 A 
ATOM     12  C   UNL     1       2.310   4.167  18.283  0.00  0.00    +0.000 A 
ATOM     13  C   UNL     1       1.334   3.176  18.147  0.00  0.00    +0.000 A 
ATOM     14  C   UNL     1       0.737   2.619  19.281  0.00  0.00    +0.000 A 
ATOM     15  C   UNL     1       1.116   3.054  20.554  0.00  0.00    +0.000 A 
ATOM     16  C   UNL     1       2.091   4.047  20.695  0.00  0.00    +0.000 A 
ENDBRANCH  10  11
ENDBRANCH   1  10
TORSDOF 5
ENDMDL
MODEL 6
REMARK VINA RESULT:      -5.9      1.405      1.943
REMARK  Name = 
REMARK  5 active torsions:
REMARK  status: ('A' for Active; 'I' for Inactive)
REMARK    1  A    between atoms: C_2  and  C_4
REMARK    2  A    between atoms: C_4  and  SE_5
REMARK    3  A    between atoms: SE_5  and  C_6
REMARK    4  A    between atoms: C_6  and  C_8
REMARK    5  A    between atoms: C_8  and  C_9
REMARK                            x       y       z     vdW  Elec       q    Type
REMARK                         _______ _______ _______ _____ _____    ______ ____
ROOT
ATOM      1  C   UNL     1       3.680   5.954  17.797  0.00  0.00    +0.000 C 
ATOM      2  O   UNL     1       4.049   7.114  17.713  0.00  0.00    +0.000 OA
ENDROOT
BRANCH   1   3
ATOM      3 SE   UNL     1       4.968   4.516  17.743  0.00  0.00    +0.000 Se
BRANCH   3   4
ATOM      4  C   UNL     1       6.523   5.698  17.642  0.00  0.00    +0.000 C 
BRANCH   4   6
ATOM      5  N   UNL     1       8.070   5.455  19.569  0.00  0.00    +0.000 N 
ATOM      6  C   UNL     1       7.692   5.053  18.332  0.00  0.00    +0.000 C 
ATOM      7  O   UNL     1       8.304   4.155  17.774  0.00  0.00    +0.000 OA
ATOM      8  H   UNL     1       8.871   5.011  20.042  0.00  0.00    +0.000 HD
ATOM      9  H   UNL     1       7.563   6.209  20.056  0.00  0.00    +0.000 HD
ENDBRANCH   4   6
ENDBRANCH   3   4
ENDBRANCH   1   3
BRANCH   1  10
ATOM     10  C   UNL     1       2.215   5.635  17.913  0.00  0.00    +0.000 C 
BRANCH  10  11
ATOM     11  C   UNL     1       1.959   4.635  19.013  0.00  0.00    +0.000 A 
ATOM     12  C   UNL     1       2.285   4.946  20.346  0.00  0.00    +0.000 A 
ATOM     13  C   UNL     1       2.047   4.021  21.366  0.00  0.00    +0.000 A 
ATOM     14  C   UNL     1       1.477   2.780  21.069  0.00  0.00    +0.000 A 
ATOM     15  C   UNL     1       1.145   2.463  19.749  0.00  0.00    +0.000 A 
ATOM     16  C   UNL     1       1.385   3.384  18.724  0.00  0.00    +0.000 A 
ENDBRANCH  10  11
ENDBRANCH   1  10
TORSDOF 5
ENDMDL
MODEL 7
REMARK VINA RESULT:      -5.8      1.967      2.364
REMARK  Name = 
REMARK  5 active torsions:
REMARK  status: ('A' for Active; 'I' for Inactive)
REMARK    1  A    between atoms: C_2  and  C_4
REMARK    2  A    between atoms: C_4  and  SE_5
REMARK    3  A    between atoms: SE_5  and  C_6
REMARK    4  A    between atoms: C_6  and  C_8
REMARK    5  A    between atoms: C_8  and  C_9
REMARK                            x       y       z     vdW  Elec       q    Type
REMARK                         _______ _______ _______ _____ _____    ______ ____
ROOT
ATOM      1  C   UNL     1       4.275   4.472  17.154  0.00  0.00    +0.000 C 
ATOM      2  O   UNL     1       4.313   3.255  17.242  0.00  0.00    +0.000 OA
ENDROOT
BRANCH   1   3
ATOM      3 SE   UNL     1       5.754   5.438  16.375  0.00  0.00    +0.000 Se
BRANCH   3   4
ATOM      4  C   UNL     1       6.416   6.123  18.084  0.00  0.00    +0.000 C 
BRANCH   4   6
ATOM      5  N   UNL     1       8.171   5.532  19.737  0.00  0.00    +0.000 N 
ATOM      6  C   UNL     1       7.583   5.295  18.540  0.00  0.00    +0.000 C 
ATOM      7  O   UNL     1       8.003   4.394  17.828  0.00  0.00    +0.000 OA
ATOM      8  H   UNL     1       8.971   4.963  20.051  0.00  0.00    +0.000 HD
ATOM      9  H   UNL     1       7.828   6.286  20.352  0.00  0.00    +0.000 HD
ENDBRANCH   4   6
ENDBRANCH   3   4
ENDBRANCH   1   3
BRANCH   1  10
ATOM     10  C   UNL     1       3.088   5.229  17.683  0.00  0.00    +0.000 C 
BRANCH  10  11
ATOM     11  C   UNL     1       2.429   4.485  18.819  0.00  0.00    +0.000 A 
ATOM     12  C   UNL     1       2.854   4.693  20.144  0.00  0.00    +0.000 A 
ATOM     13  C   UNL     1       2.243   4.007  21.198  0.00  0.00    +0.000 A 
ATOM     14  C   UNL     1       1.201   3.112  20.942  0.00  0.00    +0.000 A 
ATOM     15  C   UNL     1       0.768   2.902  19.629  0.00  0.00    +0.000 A 
ATOM     16  C   UNL     1       1.378   3.584  18.572  0.00  0.00    +0.000 A 
ENDBRANCH  10  11
ENDBRANCH   1  10
TORSDOF 5
ENDMDL
MODEL 8
REMARK VINA RESULT:      -5.8      1.478      2.024
REMARK  Name = 
REMARK  5 active torsions:
REMARK  status: ('A' for Active; 'I' for Inactive)
REMARK    1  A    between atoms: C_2  and  C_4
REMARK    2  A    between atoms: C_4  and  SE_5
REMARK    3  A    between atoms: SE_5  and  C_6
REMARK    4  A    between atoms: C_6  and  C_8
REMARK    5  A    between atoms: C_8  and  C_9
REMARK                            x       y       z     vdW  Elec       q    Type
REMARK                         _______ _______ _______ _____ _____    ______ ____
ROOT
ATOM      1  C   UNL     1       3.884   6.635  17.889  0.00  0.00    +0.000 C 
ATOM      2  O   UNL     1       2.933   7.401  17.913  0.00  0.00    +0.000 OA
ENDROOT
BRANCH   1   3
ATOM      3 SE   UNL     1       5.061   6.596  16.358  0.00  0.00    +0.000 Se
BRANCH   3   4
ATOM      4  C   UNL     1       6.692   6.379  17.416  0.00  0.00    +0.000 C 
BRANCH   4   6
ATOM      5  N   UNL     1       7.811   4.252  18.037  0.00  0.00    +0.000 N 
ATOM      6  C   UNL     1       7.350   5.075  17.065  0.00  0.00    +0.000 C 
ATOM      7  O   UNL     1       7.466   4.751  15.893  0.00  0.00    +0.000 OA
ATOM      8  H   UNL     1       8.262   3.357  17.797  0.00  0.00    +0.000 HD
ATOM      9  H   UNL     1       7.720   4.509  19.032  0.00  0.00    +0.000 HD
ENDBRANCH   4   6
ENDBRANCH   3   4
ENDBRANCH   1   3
BRANCH   1  10
ATOM     10  C   UNL     1       4.125   5.696  19.038  0.00  0.00    +0.000 C 
BRANCH  10  11
ATOM     11  C   UNL     1       2.957   4.762  19.232  0.00  0.00    +0.000 A 
ATOM     12  C   UNL     1       2.248   4.755  20.448  0.00  0.00    +0.000 A 
ATOM     13  C   UNL     1       1.163   3.892  20.629  0.00  0.00    +0.000 A 
ATOM     14  C   UNL     1       0.772   3.031  19.600  0.00  0.00    +0.000 A 
ATOM     15  C   UNL     1       1.466   3.033  18.387  0.00  0.00    +0.000 A 
ATOM     16  C   UNL     1       2.554   3.893  18.202  0.00  0.00    +0.000 A 
ENDBRANCH  10  11
ENDBRANCH   1  10
TORSDOF 5
ENDMDL
MODEL 9
REMARK VINA RESULT:      -5.8      1.991      2.313
REMARK  Name = 
REMARK  5 active torsions:
REMARK  status: ('A' for Active; 'I' for Inactive)
REMARK    1  A    between atoms: C_2  and  C_4
REMARK    2  A    between atoms: C_4  and  SE_5
REMARK    3  A    between atoms: SE_5  and  C_6
REMARK    4  A    between atoms: C_6  and  C_8
REMARK    5  A    between atoms: C_8  and  C_9
REMARK                            x       y       z     vdW  Elec       q    Type
REMARK                         _______ _______ _______ _____ _____    ______ ____
ROOT
ATOM      1  C   UNL     1       4.259   4.141  17.109  0.00  0.00    +0.000 C 
ATOM      2  O   UNL     1       5.052   3.526  16.413  0.00  0.00    +0.000 OA
ENDROOT
BRANCH   1   3
ATOM      3 SE   UNL     1       4.808   5.753  18.019  0.00  0.00    +0.000 Se
BRANCH   3   4
ATOM      4  C   UNL     1       6.573   5.819  17.178  0.00  0.00    +0.000 C 
BRANCH   4   6
ATOM      5  N   UNL     1       7.684   5.321  19.342  0.00  0.00    +0.000 N 
ATOM      6  C   UNL     1       7.560   5.059  18.019  0.00  0.00    +0.000 C 
ATOM      7  O   UNL     1       8.253   4.193  17.506  0.00  0.00    +0.000 OA
ATOM      8  H   UNL     1       8.361   4.799  19.919  0.00  0.00    +0.000 HD
ATOM      9  H   UNL     1       7.106   6.046  19.792  0.00  0.00    +0.000 HD
ENDBRANCH   4   6
ENDBRANCH   3   4
ENDBRANCH   1   3
BRANCH   1  10
ATOM     10  C   UNL     1       2.857   3.626  17.288  0.00  0.00    +0.000 C 
BRANCH  10  11
ATOM     11  C   UNL     1       2.516   3.469  18.749  0.00  0.00    +0.000 A 
ATOM     12  C   UNL     1       3.359   2.731  19.600  0.00  0.00    +0.000 A 
ATOM     13  C   UNL     1       3.046   2.587  20.955  0.00  0.00    +0.000 A 
ATOM     14  C   UNL     1       1.893   3.180  21.475  0.00  0.00    +0.000 A 
ATOM     15  C   UNL     1       1.051   3.920  20.639  0.00  0.00    +0.000 A 
ATOM     16  C   UNL     1       1.359   4.064  19.282  0.00  0.00    +0.000 A 
ENDBRANCH  10  11
ENDBRANCH   1  10
TORSDOF 5
ENDMDL
