MODEL 1
REMARK VINA RESULT:      -6.5      0.000      0.000
REMARK  Name = 
REMARK  8 active torsions:
REMARK  status: ('A' for Active; 'I' for Inactive)
REMARK    1  A    between atoms: C_1  and  C_2
REMARK    2  A    between atoms: C_2  and  N_3
REMARK    3  A    between atoms: N_3  and  C_4
REMARK    4  A    between atoms: N_3  and  C_6
REMARK    5  A    between atoms: C_4  and  C_5
REMARK    6  A    between atoms: C_6  and  C_7
REMARK    7  A    between atoms: C_6  and  C_15
REMARK    8  A    between atoms: C_7  and  N_8
REMARK                            x       y       z     vdW  Elec       q    Type
REMARK                         _______ _______ _______ _____ _____    ______ ____
ROOT
ATOM      1  C   UNL     1       6.164   4.814  15.882  0.00  0.00    +0.000 C 
ENDROOT
BRANCH   1   2
ATOM      2  C   UNL     1       6.637   4.654  14.449  0.00  0.00    +0.000 A 
ATOM      3  C   UNL     1       6.236   3.847  13.402  0.00  0.00    +0.000 A 
ATOM      4  C   UNL     1       7.066   4.170  12.299  0.00  0.00    +0.000 A 
ATOM      5  C   UNL     1       7.918   5.155  12.735  0.00  0.00    +0.000 A 
ATOM      6  O   UNL     1       7.667   5.455  14.032  0.00  0.00    +0.000 OA
ENDBRANCH   1   2
BRANCH   1   7
ATOM      7  N   UNL     1       6.140   6.263  16.322  0.00  0.00    +0.000 NA
BRANCH   7   9
ATOM      8  C   UNL     1       4.050   6.999  17.602  0.00  0.00    +0.000 C 
ATOM      9  C   UNL     1       4.771   6.816  16.270  0.00  0.00    +0.000 C 
ENDBRANCH   7   9
BRANCH   7  10
ATOM     10  C   UNL     1       6.802   6.375  17.639  0.00  0.00    +0.000 C 
ATOM     11  C   UNL     1       7.672   5.205  18.085  0.00  0.00    +0.000 C 
ENDBRANCH   7  10
ENDBRANCH   1   7
BRANCH   1  12
ATOM     12  C   UNL     1       4.882   3.942  16.165  0.00  0.00    +0.000 C 
BRANCH  12  13
ATOM     13  N   UNL     1       4.973   3.212  17.426  0.00  0.00    +0.000 N 
ATOM     14  C   UNL     1       3.816   3.038  18.156  0.00  0.00    +0.000 A 
ATOM     15  N   UNL     1       2.639   2.990  17.543  0.00  0.00    +0.000 NA
ATOM     16  C   UNL     1       1.602   2.762  18.346  0.00  0.00    +0.000 A 
ATOM     17  N   UNL     1       1.648   2.584  19.662  0.00  0.00    +0.000 NA
ATOM     18  C   UNL     1       2.878   2.659  20.157  0.00  0.00    +0.000 A 
ATOM     19  N   UNL     1       3.989   2.887  19.464  0.00  0.00    +0.000 NA
ATOM     20  H   UNL     1       5.690   3.566  18.055  0.00  0.00    +0.000 HD
ENDBRANCH  12  13
ENDBRANCH   1  12
TORSDOF 6
ENDMDL
MODEL 2
REMARK VINA RESULT:      -6.5      1.462      1.827
REMARK  Name = 
REMARK  8 active torsions:
REMARK  status: ('A' for Active; 'I' for Inactive)
REMARK    1  A    between atoms: C_1  and  C_2
REMARK    2  A    between atoms: C_2  and  N_3
REMARK    3  A    between atoms: N_3  and  C_4
REMARK    4  A    between atoms: N_3  and  C_6
REMARK    5  A    between atoms: C_4  and  C_5
REMARK    6  A    between atoms: C_6  and  C_7
REMARK    7  A    between atoms: C_6  and  C_15
REMARK    8  A    between atoms: C_7  and  N_8
REMARK                            x       y       z     vdW  Elec       q    Type
REMARK                         _______ _______ _______ _____ _____    ______ ____
ROOT
ATOM      1  C   UNL     1       5.527   4.222  17.285  0.00  0.00    +0.000 C 
ENDROOT
BRANCH   1   2
ATOM      2  C   UNL     1       6.039   4.345  15.863  0.00  0.00    +0.000 A 
ATOM      3  C   UNL     1       7.112   5.004  15.295  0.00  0.00    +0.000 A 
ATOM      4  C   UNL     1       7.069   4.731  13.905  0.00  0.00    +0.000 A 
ATOM      5  C   UNL     1       5.978   3.919  13.707  0.00  0.00    +0.000 A 
ATOM      6  O   UNL     1       5.350   3.679  14.884  0.00  0.00    +0.000 OA
ENDBRANCH   1   2
BRANCH   1   7
ATOM      7  N   UNL     1       5.544   5.546  18.020  0.00  0.00    +0.000 NA
BRANCH   7   9
ATOM      8  C   UNL     1       3.725   7.289  17.570  0.00  0.00    +0.000 C 
ATOM      9  C   UNL     1       4.173   6.024  18.294  0.00  0.00    +0.000 C 
ENDBRANCH   7   9
BRANCH   7  10
ATOM     10  C   UNL     1       6.404   5.421  19.215  0.00  0.00    +0.000 C 
ATOM     11  C   UNL     1       7.836   5.933  19.101  0.00  0.00    +0.000 C 
ENDBRANCH   7  10
ENDBRANCH   1   7
BRANCH   1  12
ATOM     12  C   UNL     1       4.205   3.366  17.350  0.00  0.00    +0.000 C 
BRANCH  12  13
ATOM     13  N   UNL     1       4.129   2.550  18.557  0.00  0.00    +0.000 N 
ATOM     14  C   UNL     1       3.089   2.784  19.432  0.00  0.00    +0.000 A 
ATOM     15  N   UNL     1       1.934   3.265  18.984  0.00  0.00    +0.000 NA
ATOM     16  C   UNL     1       0.989   3.397  19.912  0.00  0.00    +0.000 A 
ATOM     17  N   UNL     1       1.103   3.097  21.202  0.00  0.00    +0.000 NA
ATOM     18  C   UNL     1       2.303   2.631  21.526  0.00  0.00    +0.000 A 
ATOM     19  N   UNL     1       3.328   2.460  20.697  0.00  0.00    +0.000 NA
ATOM     20  H   UNL     1       4.992   2.530  19.095  0.00  0.00    +0.000 HD
ENDBRANCH  12  13
ENDBRANCH   1  12
TORSDOF 6
ENDMDL
MODEL 3
REMARK VINA RESULT:      -6.5      1.170      1.529
REMARK  Name = 
REMARK  8 active torsions:
REMARK  status: ('A' for Active; 'I' for Inactive)
REMARK    1  A    between atoms: C_1  and  C_2
REMARK    2  A    between atoms: C_2  and  N_3
REMARK    3  A    between atoms: N_3  and  C_4
REMARK    4  A    between atoms: N_3  and  C_6
REMARK    5  A    between atoms: C_4  and  C_5
REMARK    6  A    between atoms: C_6  and  C_7
REMARK    7  A    between atoms: C_6  and  C_15
REMARK    8  A    between atoms: C_7  and  N_8
REMARK                            x       y       z     vdW  Elec       q    Type
REMARK                         _______ _______ _______ _____ _____    ______ ____
ROOT
ATOM      1  C   UNL     1       6.400   4.671  16.260  0.00  0.00    +0.000 C 
ENDROOT
BRANCH   1   2
ATOM      2  C   UNL     1       6.714   4.607  14.778  0.00  0.00    +0.000 A 
ATOM      3  C   UNL     1       6.175   3.894  13.724  0.00  0.00    +0.000 A 
ATOM      4  C   UNL     1       6.896   4.274  12.564  0.00  0.00    +0.000 A 
ATOM      5  C   UNL     1       7.826   5.198  12.976  0.00  0.00    +0.000 A 
ATOM      6  O   UNL     1       7.723   5.407  14.311  0.00  0.00    +0.000 OA
ENDBRANCH   1   2
BRANCH   1   7
ATOM      7  N   UNL     1       7.360   5.569  17.014  0.00  0.00    +0.000 NA
BRANCH   7   9
ATOM      8  C   UNL     1       7.701   8.072  17.423  0.00  0.00    +0.000 C 
ATOM      9  C   UNL     1       6.752   6.885  17.299  0.00  0.00    +0.000 C 
ENDBRANCH   7   9
BRANCH   7  10
ATOM     10  C   UNL     1       7.857   4.848  18.204  0.00  0.00    +0.000 C 
ATOM     11  C   UNL     1       7.688   5.532  19.556  0.00  0.00    +0.000 C 
ENDBRANCH   7  10
ENDBRANCH   1   7
BRANCH   1  12
ATOM     12  C   UNL     1       4.858   4.873  16.515  0.00  0.00    +0.000 C 
BRANCH  12  13
ATOM     13  N   UNL     1       4.138   3.607  16.602  0.00  0.00    +0.000 N 
ATOM     14  C   UNL     1       3.173   3.478  17.579  0.00  0.00    +0.000 A 
ATOM     15  N   UNL     1       2.520   4.547  18.019  0.00  0.00    +0.000 NA
ATOM     16  C   UNL     1       1.576   4.290  18.921  0.00  0.00    +0.000 A 
ATOM     17  N   UNL     1       1.246   3.094  19.398  0.00  0.00    +0.000 NA
ATOM     18  C   UNL     1       1.972   2.108  18.885  0.00  0.00    +0.000 A 
ATOM     19  N   UNL     1       2.944   2.236  17.988  0.00  0.00    +0.000 NA
ATOM     20  H   UNL     1       4.744   2.792  16.650  0.00  0.00    +0.000 HD
ENDBRANCH  12  13
ENDBRANCH   1  12
TORSDOF 6
ENDMDL
MODEL 4
REMARK VINA RESULT:      -6.5      0.834      1.128
REMARK  Name = 
REMARK  8 active torsions:
REMARK  status: ('A' for Active; 'I' for Inactive)
REMARK    1  A    between atoms: C_1  and  C_2
REMARK    2  A    between atoms: C_2  and  N_3
REMARK    3  A    between atoms: N_3  and  C_4
REMARK    4  A    between atoms: N_3  and  C_6
REMARK    5  A    between atoms: C_4  and  C_5
REMARK    6  A    between atoms: C_6  and  C_7
REMARK    7  A    between atoms: C_6  and  C_15
REMARK    8  A    between atoms: C_7  and  N_8
REMARK                            x       y       z     vdW  Elec       q    Type
REMARK                         _______ _______ _______ _____ _____    ______ ____
ROOT
ATOM      1  C   UNL     1       6.289   4.763  15.745  0.00  0.00    +0.000 C 
ENDROOT
BRANCH   1   2
ATOM      2  C   UNL     1       6.606   4.526  14.281  0.00  0.00    +0.000 A 
ATOM      3  C   UNL     1       7.517   5.085  13.405  0.00  0.00    +0.000 A 
ATOM      4  C   UNL     1       7.338   4.432  12.160  0.00  0.00    +0.000 A 
ATOM      5  C   UNL     1       6.336   3.512  12.349  0.00  0.00    +0.000 A 
ATOM      6  O   UNL     1       5.888   3.560  13.627  0.00  0.00    +0.000 OA
ENDBRANCH   1   2
BRANCH   1   7
ATOM      7  N   UNL     1       6.267   6.237  16.097  0.00  0.00    +0.000 NA
BRANCH   7   9
ATOM      8  C   UNL     1       4.221   6.993  17.436  0.00  0.00    +0.000 C 
ATOM      9  C   UNL     1       4.889   6.770  16.083  0.00  0.00    +0.000 C 
ENDBRANCH   7   9
BRANCH   7  10
ATOM     10  C   UNL     1       6.992   6.436  17.369  0.00  0.00    +0.000 C 
ATOM     11  C   UNL     1       7.737   7.755  17.548  0.00  0.00    +0.000 C 
ENDBRANCH   7  10
ENDBRANCH   1   7
BRANCH   1  12
ATOM     12  C   UNL     1       5.075   3.879  16.222  0.00  0.00    +0.000 C 
BRANCH  12  13
ATOM     13  N   UNL     1       5.222   3.430  17.603  0.00  0.00    +0.000 N 
ATOM     14  C   UNL     1       4.081   3.084  18.295  0.00  0.00    +0.000 A 
ATOM     15  N   UNL     1       3.020   2.619  17.646  0.00  0.00    +0.000 NA
ATOM     16  C   UNL     1       2.000   2.268  18.425  0.00  0.00    +0.000 A 
ATOM     17  N   UNL     1       1.960   2.341  19.752  0.00  0.00    +0.000 NA
ATOM     18  C   UNL     1       3.077   2.824  20.283  0.00  0.00    +0.000 A 
ATOM     19  N   UNL     1       4.157   3.215  19.615  0.00  0.00    +0.000 NA
ATOM     20  H   UNL     1       5.762   4.065  18.186  0.00  0.00    +0.000 HD
ENDBRANCH  12  13
ENDBRANCH   1  12
TORSDOF 6
ENDMDL
MODEL 5
REMARK VINA RESULT:      -6.4      1.469      2.338
REMARK  Name = 
REMARK  8 active torsions:
REMARK  status: ('A' for Active; 'I' for Inactive)
REMARK    1  A    between atoms: C_1  and  C_2
REMARK    2  A    between atoms: C_2  and  N_3
REMARK    3  A    between atoms: N_3  and  C_4
REMARK    4  A    between atoms: N_3  and  C_6
REMARK    5  A    between atoms: C_4  and  C_5
REMARK    6  A    between atoms: C_6  and  C_7
REMARK    7  A    between atoms: C_6  and  C_15
REMARK    8  A    between atoms: C_7  and  N_8
REMARK                            x       y       z     vdW  Elec       q    Type
REMARK                         _______ _______ _______ _____ _____    ______ ____
ROOT
ATOM      1  C   UNL     1       6.348   4.737  17.638  0.00  0.00    +0.000 C 
ENDROOT
BRANCH   1   2
ATOM      2  C   UNL     1       6.343   4.553  16.133  0.00  0.00    +0.000 A 
ATOM      3  C   UNL     1       5.413   4.053  15.241  0.00  0.00    +0.000 A 
ATOM      4  C   UNL     1       5.993   4.153  13.951  0.00  0.00    +0.000 A 
ATOM      5  C   UNL     1       7.235   4.710  14.130  0.00  0.00    +0.000 A 
ATOM      6  O   UNL     1       7.457   4.956  15.444  0.00  0.00    +0.000 OA
ENDBRANCH   1   2
BRANCH   1   7
ATOM      7  N   UNL     1       6.285   6.196  18.040  0.00  0.00    +0.000 NA
BRANCH   7   9
ATOM      8  C   UNL     1       7.871   8.170  17.669  0.00  0.00    +0.000 C 
ATOM      9  C   UNL     1       7.639   6.763  18.209  0.00  0.00    +0.000 C 
ENDBRANCH   7   9
BRANCH   7  10
ATOM     10  C   UNL     1       5.429   6.922  17.078  0.00  0.00    +0.000 C 
ATOM     11  C   UNL     1       3.967   7.125  17.461  0.00  0.00    +0.000 C 
ENDBRANCH   7  10
ENDBRANCH   1   7
BRANCH   1  12
ATOM     12  C   UNL     1       5.350   3.741  18.343  0.00  0.00    +0.000 C 
BRANCH  12  13
ATOM     13  N   UNL     1       4.668   4.349  19.481  0.00  0.00    +0.000 N 
ATOM     14  C   UNL     1       3.362   3.979  19.725  0.00  0.00    +0.000 A 
ATOM     15  N   UNL     1       2.929   2.776  19.366  0.00  0.00    +0.000 NA
ATOM     16  C   UNL     1       1.668   2.515  19.703  0.00  0.00    +0.000 A 
ATOM     17  N   UNL     1       0.839   3.330  20.346  0.00  0.00    +0.000 NA
ATOM     18  C   UNL     1       1.386   4.502  20.646  0.00  0.00    +0.000 A 
ATOM     19  N   UNL     1       2.626   4.885  20.359  0.00  0.00    +0.000 NA
ATOM     20  H   UNL     1       4.714   5.365  19.492  0.00  0.00    +0.000 HD
ENDBRANCH  12  13
ENDBRANCH   1  12
TORSDOF 6
ENDMDL
MODEL 6
REMARK VINA RESULT:      -6.4      1.186      2.066
REMARK  Name = 
REMARK  8 active torsions:
REMARK  status: ('A' for Active; 'I' for Inactive)
REMARK    1  A    between atoms: C_1  and  C_2
REMARK    2  A    between atoms: C_2  and  N_3
REMARK    3  A    between atoms: N_3  and  C_4
REMARK    4  A    between atoms: N_3  and  C_6
REMARK    5  A    between atoms: C_4  and  C_5
REMARK    6  A    between atoms: C_6  and  C_7
REMARK    7  A    between atoms: C_6  and  C_15
REMARK    8  A    between atoms: C_7  and  N_8
REMARK                            x       y       z     vdW  Elec       q    Type
REMARK                         _______ _______ _______ _____ _____    ______ ____
ROOT
ATOM      1  C   UNL     1       5.653   4.358  17.209  0.00  0.00    +0.000 C 
ENDROOT
BRANCH   1   2
ATOM      2  C   UNL     1       6.079   4.408  15.754  0.00  0.00    +0.000 A 
ATOM      3  C   UNL     1       5.421   4.162  14.564  0.00  0.00    +0.000 A 
ATOM      4  C   UNL     1       6.359   4.390  13.526  0.00  0.00    +0.000 A 
ATOM      5  C   UNL     1       7.529   4.766  14.141  0.00  0.00    +0.000 A 
ATOM      6  O   UNL     1       7.370   4.781  15.486  0.00  0.00    +0.000 OA
ENDBRANCH   1   2
BRANCH   1   7
ATOM      7  N   UNL     1       5.722   5.716  17.876  0.00  0.00    +0.000 NA
BRANCH   7   9
ATOM      8  C   UNL     1       7.618   7.425  17.686  0.00  0.00    +0.000 C 
ATOM      9  C   UNL     1       7.115   6.081  18.205  0.00  0.00    +0.000 C 
ENDBRANCH   7   9
BRANCH   7  10
ATOM     10  C   UNL     1       5.008   6.700  17.035  0.00  0.00    +0.000 C 
ATOM     11  C   UNL     1       3.686   7.242  17.565  0.00  0.00    +0.000 C 
ENDBRANCH   7  10
ENDBRANCH   1   7
BRANCH   1  12
ATOM     12  C   UNL     1       4.333   3.518  17.394  0.00  0.00    +0.000 C 
BRANCH  12  13
ATOM     13  N   UNL     1       4.334   2.744  18.632  0.00  0.00    +0.000 N 
ATOM     14  C   UNL     1       3.243   2.861  19.467  0.00  0.00    +0.000 A 
ATOM     15  N   UNL     1       2.047   3.154  18.969  0.00  0.00    +0.000 NA
ATOM     16  C   UNL     1       1.063   3.185  19.865  0.00  0.00    +0.000 A 
ATOM     17  N   UNL     1       1.176   2.953  21.169  0.00  0.00    +0.000 NA
ATOM     18  C   UNL     1       2.419   2.675  21.544  0.00  0.00    +0.000 A 
ATOM     19  N   UNL     1       3.484   2.621  20.751  0.00  0.00    +0.000 NA
ATOM     20  H   UNL     1       5.173   2.868  19.193  0.00  0.00    +0.000 HD
ENDBRANCH  12  13
ENDBRANCH   1  12
TORSDOF 6
ENDMDL
MODEL 7
REMARK VINA RESULT:      -6.3      3.325      5.176
REMARK  Name = 
REMARK  8 active torsions:
REMARK  status: ('A' for Active; 'I' for Inactive)
REMARK    1  A    between atoms: C_1  and  C_2
REMARK    2  A    between atoms: C_2  and  N_3
REMARK    3  A    between atoms: N_3  and  C_4
REMARK    4  A    between atoms: N_3  and  C_6
REMARK    5  A    between atoms: C_4  and  C_5
REMARK    6  A    between atoms: C_6  and  C_7
REMARK    7  A    between atoms: C_6  and  C_15
REMARK    8  A    between atoms: C_7  and  N_8
REMARK                            x       y       z     vdW  Elec       q    Type
REMARK                         _______ _______ _______ _____ _____    ______ ____
ROOT
ATOM      1  C   UNL     1       5.148   5.254  18.254  0.00  0.00    +0.000 C 
ENDROOT
BRANCH   1   2
ATOM      2  C   UNL     1       4.580   3.867  18.489  0.00  0.00    +0.000 A 
ATOM      3  C   UNL     1       3.747   3.046  17.753  0.00  0.00    +0.000 A 
ATOM      4  C   UNL     1       3.584   1.854  18.503  0.00  0.00    +0.000 A 
ATOM      5  C   UNL     1       4.329   2.015  19.646  0.00  0.00    +0.000 A 
ATOM      6  O   UNL     1       4.935   3.227  19.647  0.00  0.00    +0.000 OA
ENDBRANCH   1   2
BRANCH   1   7
ATOM      7  N   UNL     1       6.441   5.220  17.464  0.00  0.00    +0.000 NA
BRANCH   7   9
ATOM      8  C   UNL     1       6.124   4.347  15.079  0.00  0.00    +0.000 C 
ATOM      9  C   UNL     1       6.205   5.530  16.039  0.00  0.00    +0.000 C 
ENDBRANCH   7   9
BRANCH   7  10
ATOM     10  C   UNL     1       7.432   6.090  18.129  0.00  0.00    +0.000 C 
ATOM     11  C   UNL     1       7.629   7.489  17.556  0.00  0.00    +0.000 C 
ENDBRANCH   7  10
ENDBRANCH   1   7
BRANCH   1  12
ATOM     12  C   UNL     1       4.031   6.262  17.786  0.00  0.00    +0.000 C 
BRANCH  12  13
ATOM     13  N   UNL     1       2.978   6.427  18.782  0.00  0.00    +0.000 N 
ATOM     14  C   UNL     1       2.341   7.648  18.853  0.00  0.00    +0.000 A 
ATOM     15  N   UNL     1       2.240   8.413  17.771  0.00  0.00    +0.000 NA
ATOM     16  C   UNL     1       1.556   9.541  17.950  0.00  0.00    +0.000 A 
ATOM     17  N   UNL     1       0.986   9.948  19.079  0.00  0.00    +0.000 NA
ATOM     18  C   UNL     1       1.160   9.101  20.087  0.00  0.00    +0.000 A 
ATOM     19  N   UNL     1       1.826   7.951  20.039  0.00  0.00    +0.000 NA
ATOM     20  H   UNL     1       3.259   6.166  19.725  0.00  0.00    +0.000 HD
ENDBRANCH  12  13
ENDBRANCH   1  12
TORSDOF 6
ENDMDL
MODEL 8
REMARK VINA RESULT:      -6.3      2.107      3.972
REMARK  Name = 
REMARK  8 active torsions:
REMARK  status: ('A' for Active; 'I' for Inactive)
REMARK    1  A    between atoms: C_1  and  C_2
REMARK    2  A    between atoms: C_2  and  N_3
REMARK    3  A    between atoms: N_3  and  C_4
REMARK    4  A    between atoms: N_3  and  C_6
REMARK    5  A    between atoms: C_4  and  C_5
REMARK    6  A    between atoms: C_6  and  C_7
REMARK    7  A    between atoms: C_6  and  C_15
REMARK    8  A    between atoms: C_7  and  N_8
REMARK                            x       y       z     vdW  Elec       q    Type
REMARK                         _______ _______ _______ _____ _____    ______ ____
ROOT
ATOM      1  C   UNL     1       4.655   5.055  17.028  0.00  0.00    +0.000 C 
ENDROOT
BRANCH   1   2
ATOM      2  C   UNL     1       3.808   6.122  17.696  0.00  0.00    +0.000 A 
ATOM      3  C   UNL     1       3.264   7.313  17.256  0.00  0.00    +0.000 A 
ATOM      4  C   UNL     1       2.557   7.867  18.353  0.00  0.00    +0.000 A 
ATOM      5  C   UNL     1       2.706   6.981  19.392  0.00  0.00    +0.000 A 
ATOM      6  O   UNL     1       3.459   5.923  19.005  0.00  0.00    +0.000 OA
ENDBRANCH   1   2
BRANCH   1   7
ATOM      7  N   UNL     1       6.116   5.152  17.420  0.00  0.00    +0.000 NA
BRANCH   7   9
ATOM      8  C   UNL     1       6.814   4.641  15.011  0.00  0.00    +0.000 C 
ATOM      9  C   UNL     1       6.969   4.367  16.504  0.00  0.00    +0.000 C 
ENDBRANCH   7   9
BRANCH   7  10
ATOM     10  C   UNL     1       6.487   6.578  17.538  0.00  0.00    +0.000 C 
ATOM     11  C   UNL     1       7.812   6.900  18.220  0.00  0.00    +0.000 C 
ENDBRANCH   7  10
ENDBRANCH   1   7
BRANCH   1  12
ATOM     12  C   UNL     1       3.969   3.639  17.110  0.00  0.00    +0.000 C 
BRANCH  12  13
ATOM     13  N   UNL     1       4.216   2.974  18.385  0.00  0.00    +0.000 N 
ATOM     14  C   UNL     1       3.173   2.891  19.284  0.00  0.00    +0.000 A 
ATOM     15  N   UNL     1       1.918   2.864  18.851  0.00  0.00    +0.000 NA
ATOM     16  C   UNL     1       1.002   2.728  19.808  0.00  0.00    +0.000 A 
ATOM     17  N   UNL     1       1.234   2.617  21.111  0.00  0.00    +0.000 NA
ATOM     18  C   UNL     1       2.525   2.662  21.418  0.00  0.00    +0.000 A 
ATOM     19  N   UNL     1       3.530   2.802  20.560  0.00  0.00    +0.000 NA
ATOM     20  H   UNL     1       5.030   3.327  18.882  0.00  0.00    +0.000 HD
ENDBRANCH  12  13
ENDBRANCH   1  12
TORSDOF 6
ENDMDL
MODEL 9
REMARK VINA RESULT:      -6.2      2.528      5.801
REMARK  Name = 
REMARK  8 active torsions:
REMARK  status: ('A' for Active; 'I' for Inactive)
REMARK    1  A    between atoms: C_1  and  C_2
REMARK    2  A    between atoms: C_2  and  N_3
REMARK    3  A    between atoms: N_3  and  C_4
REMARK    4  A    between atoms: N_3  and  C_6
REMARK    5  A    between atoms: C_4  and  C_5
REMARK    6  A    between atoms: C_6  and  C_7
REMARK    7  A    between atoms: C_6  and  C_15
REMARK    8  A    between atoms: C_7  and  N_8
REMARK                            x       y       z     vdW  Elec       q    Type
REMARK                         _______ _______ _______ _____ _____    ______ ____
ROOT
ATOM      1  C   UNL     1       3.958   4.795  17.300  0.00  0.00    +0.000 C 
ENDROOT
BRANCH   1   2
ATOM      2  C   UNL     1       2.981   3.776  17.855  0.00  0.00    +0.000 A 
ATOM      3  C   UNL     1       1.603   3.739  17.953  0.00  0.00    +0.000 A 
ATOM      4  C   UNL     1       1.272   2.504  18.564  0.00  0.00    +0.000 A 
ATOM      5  C   UNL     1       2.462   1.859  18.797  0.00  0.00    +0.000 A 
ATOM      6  O   UNL     1       3.500   2.619  18.371  0.00  0.00    +0.000 OA
ENDBRANCH   1   2
BRANCH   1   7
ATOM      7  N   UNL     1       4.453   5.756  18.362  0.00  0.00    +0.000 NA
BRANCH   7   9
ATOM      8  C   UNL     1       2.553   7.471  18.361  0.00  0.00    +0.000 C 
ATOM      9  C   UNL     1       3.326   6.376  19.089  0.00  0.00    +0.000 C 
ENDBRANCH   7   9
BRANCH   7  10
ATOM     10  C   UNL     1       5.432   5.057  19.220  0.00  0.00    +0.000 C 
ATOM     11  C   UNL     1       6.864   5.581  19.214  0.00  0.00    +0.000 C 
ENDBRANCH   7  10
ENDBRANCH   1   7
BRANCH   1  12
ATOM     12  C   UNL     1       5.033   4.115  16.370  0.00  0.00    +0.000 C 
BRANCH  12  13
ATOM     13  N   UNL     1       5.847   5.092  15.653  0.00  0.00    +0.000 N 
ATOM     14  C   UNL     1       6.343   4.737  14.417  0.00  0.00    +0.000 A 
ATOM     15  N   UNL     1       5.691   3.860  13.661  0.00  0.00    +0.000 NA
ATOM     16  C   UNL     1       6.238   3.639  12.468  0.00  0.00    +0.000 A 
ATOM     17  N   UNL     1       7.341   4.205  11.989  0.00  0.00    +0.000 NA
ATOM     18  C   UNL     1       7.902   5.057  12.838  0.00  0.00    +0.000 A 
ATOM     19  N   UNL     1       7.460   5.357  14.055  0.00  0.00    +0.000 NA
ATOM     20  H   UNL     1       6.616   5.469  16.203  0.00  0.00    +0.000 HD
ENDBRANCH  12  13
ENDBRANCH   1  12
TORSDOF 6
ENDMDL
