MODEL 1
REMARK VINA RESULT:      -7.5      0.000      0.000
REMARK  Name = 
REMARK  3 active torsions:
REMARK  status: ('A' for Active; 'I' for Inactive)
REMARK    1  A    between atoms: C_2  and  C_3
REMARK    2  A    between atoms: N_13  and  S_14
REMARK    3  A    between atoms: S_14  and  C_17
REMARK                            x       y       z     vdW  Elec       q    Type
REMARK                         _______ _______ _______ _____ _____    ______ ____
ROOT
ATOM      1  O   UNL     1       1.678   9.409  17.954  0.00  0.00    +0.000 OA
ATOM      2  C   UNL     1       1.666   8.707  18.968  0.00  0.00    +0.000 C 
ATOM      3  N   UNL     1       2.305   7.475  19.007  0.00  0.00    +0.000 N 
ATOM      4  C   UNL     1       2.538   6.622  20.182  0.00  0.00    +0.000 C 
ATOM      5  C   UNL     1       2.227   5.156  19.847  0.00  0.00    +0.000 C 
ATOM      6  N   UNL     1       3.079   4.687  18.726  0.00  0.00    +0.000 NA
ATOM      7  C   UNL     1       2.816   5.550  17.514  0.00  0.00    +0.000 C 
ATOM      8  C   UNL     1       3.057   7.040  17.809  0.00  0.00    +0.000 C 
ENDROOT
BRANCH   2   9
ATOM      9  C   UNL     1       0.943   9.207  20.188  0.00  0.00    +0.000 A 
ATOM     10  C   UNL     1       0.212   8.369  21.118  0.00  0.00    +0.000 A 
ATOM     11  C   UNL     1      -0.285   8.848  22.265  0.00  0.00    +0.000 A 
ATOM     12  C   UNL     1      -0.299  10.310  22.479  0.00  0.00    +0.000 A 
ATOM     13  O   UNL     1      -0.843  10.793  23.468  0.00  0.00    +0.000 OA
ATOM     14  N   UNL     1       0.271  11.065  21.484  0.00  0.00    +0.000 N 
ATOM     15  C   UNL     1       0.896  10.539  20.379  0.00  0.00    +0.000 A 
ATOM     16  H   UNL     1       0.207  12.069  21.605  0.00  0.00    +0.000 HD
ENDBRANCH   2   9
BRANCH   6  17
ATOM     17  S   UNL     1       4.738   4.446  19.118  0.00  0.00    +0.000 S 
ATOM     18  O   UNL     1       5.172   5.597  19.876  0.00  0.00    +0.000 OA
ATOM     19  O   UNL     1       4.924   3.115  19.621  0.00  0.00    +0.000 OA
BRANCH  17  20
ATOM     20  C   UNL     1       5.560   4.538  17.537  0.00  0.00    +0.000 A 
ATOM     21  C   UNL     1       5.185   3.654  16.526  0.00  0.00    +0.000 A 
ATOM     22  C   UNL     1       5.778   3.759  15.266  0.00  0.00    +0.000 A 
ATOM     23  C   UNL     1       6.724   4.760  15.024  0.00  0.00    +0.000 A 
ATOM     24 BR   UNL     1       7.509   4.912  13.311  0.00  0.00    +0.000 Br
ATOM     25  C   UNL     1       7.087   5.652  16.031  0.00  0.00    +0.000 A 
ATOM     26  C   UNL     1       6.508   5.540  17.300  0.00  0.00    +0.000 A 
ENDBRANCH  17  20
ENDBRANCH   6  17
TORSDOF 3
ENDMDL
MODEL 2
REMARK VINA RESULT:      -7.3      4.085      7.433
REMARK  Name = 
REMARK  3 active torsions:
REMARK  status: ('A' for Active; 'I' for Inactive)
REMARK    1  A    between atoms: C_2  and  C_3
REMARK    2  A    between atoms: N_13  and  S_14
REMARK    3  A    between atoms: S_14  and  C_17
REMARK                            x       y       z     vdW  Elec       q    Type
REMARK                         _______ _______ _______ _____ _____    ______ ____
ROOT
ATOM      1  O   UNL     1       6.886   4.947  18.700  0.00  0.00    +0.000 OA
ATOM      2  C   UNL     1       6.120   4.423  17.886  0.00  0.00    +0.000 C 
ATOM      3  N   UNL     1       4.959   3.780  18.291  0.00  0.00    +0.000 N 
ATOM      4  C   UNL     1       3.867   3.279  17.441  0.00  0.00    +0.000 C 
ATOM      5  C   UNL     1       3.429   1.882  17.902  0.00  0.00    +0.000 C 
ATOM      6  N   UNL     1       2.971   1.920  19.314  0.00  0.00    +0.000 NA
ATOM      7  C   UNL     1       4.105   2.408  20.185  0.00  0.00    +0.000 C 
ATOM      8  C   UNL     1       4.624   3.784  19.732  0.00  0.00    +0.000 C 
ENDROOT
BRANCH   2   9
ATOM      9  C   UNL     1       6.461   4.489  16.423  0.00  0.00    +0.000 A 
ATOM     10  C   UNL     1       5.923   3.606  15.407  0.00  0.00    +0.000 A 
ATOM     11  C   UNL     1       6.145   3.807  14.103  0.00  0.00    +0.000 A 
ATOM     12  C   UNL     1       7.155   4.807  13.698  0.00  0.00    +0.000 A 
ATOM     13  O   UNL     1       7.464   4.943  12.518  0.00  0.00    +0.000 OA
ATOM     14  N   UNL     1       7.746   5.505  14.721  0.00  0.00    +0.000 N 
ATOM     15  C   UNL     1       7.401   5.375  16.044  0.00  0.00    +0.000 A 
ATOM     16  H   UNL     1       8.480   6.148  14.445  0.00  0.00    +0.000 HD
ENDBRANCH   2   9
BRANCH   6  17
ATOM     17  S   UNL     1       1.454   2.691  19.572  0.00  0.00    +0.000 S 
ATOM     18  O   UNL     1       0.551   2.216  18.547  0.00  0.00    +0.000 OA
ATOM     19  O   UNL     1       1.104   2.609  20.961  0.00  0.00    +0.000 OA
BRANCH  17  20
ATOM     20  C   UNL     1       1.786   4.404  19.204  0.00  0.00    +0.000 A 
ATOM     21  C   UNL     1       1.680   4.847  17.886  0.00  0.00    +0.000 A 
ATOM     22  C   UNL     1       1.876   6.200  17.598  0.00  0.00    +0.000 A 
ATOM     23  C   UNL     1       2.157   7.098  18.632  0.00  0.00    +0.000 A 
ATOM     24 BR   UNL     1       2.402   8.931  18.240  0.00  0.00    +0.000 Br
ATOM     25  C   UNL     1       2.248   6.655  19.951  0.00  0.00    +0.000 A 
ATOM     26  C   UNL     1       2.069   5.299  20.243  0.00  0.00    +0.000 A 
ENDBRANCH  17  20
ENDBRANCH   6  17
TORSDOF 3
ENDMDL
MODEL 3
REMARK VINA RESULT:      -6.9      9.312     12.632
REMARK  Name = 
REMARK  3 active torsions:
REMARK  status: ('A' for Active; 'I' for Inactive)
REMARK    1  A    between atoms: C_2  and  C_3
REMARK    2  A    between atoms: N_13  and  S_14
REMARK    3  A    between atoms: S_14  and  C_17
REMARK                            x       y       z     vdW  Elec       q    Type
REMARK                         _______ _______ _______ _____ _____    ______ ____
ROOT
ATOM      1  O   UNL     1      -7.165  10.840  18.660  0.00  0.00    +0.000 OA
ATOM      2  C   UNL     1      -6.028  11.287  18.835  0.00  0.00    +0.000 C 
ATOM      3  N   UNL     1      -5.706  12.030  19.963  0.00  0.00    +0.000 N 
ATOM      4  C   UNL     1      -4.369  12.462  20.400  0.00  0.00    +0.000 C 
ATOM      5  C   UNL     1      -4.406  13.927  20.859  0.00  0.00    +0.000 C 
ATOM      6  N   UNL     1      -5.365  14.096  21.980  0.00  0.00    +0.000 NA
ATOM      7  C   UNL     1      -6.741  13.676  21.516  0.00  0.00    +0.000 C 
ATOM      8  C   UNL     1      -6.751  12.231  20.990  0.00  0.00    +0.000 C 
ENDROOT
BRANCH   2   9
ATOM      9  C   UNL     1      -4.973  11.013  17.800  0.00  0.00    +0.000 A 
ATOM     10  C   UNL     1      -3.954   9.987  17.907  0.00  0.00    +0.000 A 
ATOM     11  C   UNL     1      -3.137   9.690  16.890  0.00  0.00    +0.000 A 
ATOM     12  C   UNL     1      -3.109  10.585  15.715  0.00  0.00    +0.000 A 
ATOM     13  O   UNL     1      -2.297  10.407  14.811  0.00  0.00    +0.000 OA
ATOM     14  N   UNL     1      -3.993  11.634  15.742  0.00  0.00    +0.000 N 
ATOM     15  C   UNL     1      -4.917  11.839  16.737  0.00  0.00    +0.000 A 
ATOM     16  H   UNL     1      -3.931  12.280  14.962  0.00  0.00    +0.000 HD
ENDBRANCH   2   9
BRANCH   6  17
ATOM     17  S   UNL     1      -4.857  13.436  23.486  0.00  0.00    +0.000 S 
ATOM     18  O   UNL     1      -6.043  13.222  24.284  0.00  0.00    +0.000 OA
ATOM     19  O   UNL     1      -3.921  12.373  23.254  0.00  0.00    +0.000 OA
BRANCH  17  20
ATOM     20  C   UNL     1      -3.963  14.777  24.251  0.00  0.00    +0.000 A 
ATOM     21  C   UNL     1      -2.612  14.605  24.552  0.00  0.00    +0.000 A 
ATOM     22  C   UNL     1      -1.888  15.670  25.094  0.00  0.00    +0.000 A 
ATOM     23  C   UNL     1      -2.517  16.901  25.308  0.00  0.00    +0.000 A 
ATOM     24 BR   UNL     1      -1.528  18.345  26.021  0.00  0.00    +0.000 Br
ATOM     25  C   UNL     1      -3.863  17.074  24.992  0.00  0.00    +0.000 A 
ATOM     26  C   UNL     1      -4.597  16.006  24.467  0.00  0.00    +0.000 A 
ENDBRANCH  17  20
ENDBRANCH   6  17
TORSDOF 3
ENDMDL
MODEL 4
REMARK VINA RESULT:      -6.8      4.933      7.507
REMARK  Name = 
REMARK  3 active torsions:
REMARK  status: ('A' for Active; 'I' for Inactive)
REMARK    1  A    between atoms: C_2  and  C_3
REMARK    2  A    between atoms: N_13  and  S_14
REMARK    3  A    between atoms: S_14  and  C_17
REMARK                            x       y       z     vdW  Elec       q    Type
REMARK                         _______ _______ _______ _____ _____    ______ ____
ROOT
ATOM      1  O   UNL     1      -3.473  15.463  20.984  0.00  0.00    +0.000 OA
ATOM      2  C   UNL     1      -3.458  14.235  21.098  0.00  0.00    +0.000 C 
ATOM      3  N   UNL     1      -2.387  13.476  20.645  0.00  0.00    +0.000 N 
ATOM      4  C   UNL     1      -2.140  12.044  20.877  0.00  0.00    +0.000 C 
ATOM      5  C   UNL     1      -1.682  11.365  19.578  0.00  0.00    +0.000 C 
ATOM      6  N   UNL     1      -0.439  12.000  19.071  0.00  0.00    +0.000 NA
ATOM      7  C   UNL     1      -0.707  13.463  18.809  0.00  0.00    +0.000 C 
ATOM      8  C   UNL     1      -1.225  14.184  20.065  0.00  0.00    +0.000 C 
ENDROOT
BRANCH   2   9
ATOM      9  C   UNL     1      -4.630  13.552  21.747  0.00  0.00    +0.000 A 
ATOM     10  C   UNL     1      -5.855  13.184  21.065  0.00  0.00    +0.000 A 
ATOM     11  C   UNL     1      -6.802  12.446  21.657  0.00  0.00    +0.000 A 
ATOM     12  C   UNL     1      -6.708  12.200  23.110  0.00  0.00    +0.000 A 
ATOM     13  O   UNL     1      -7.611  11.620  23.707  0.00  0.00    +0.000 OA
ATOM     14  N   UNL     1      -5.596  12.711  23.732  0.00  0.00    +0.000 N 
ATOM     15  C   UNL     1      -4.571  13.349  23.077  0.00  0.00    +0.000 A 
ATOM     16  H   UNL     1      -5.564  12.592  24.738  0.00  0.00    +0.000 HD
ENDBRANCH   2   9
BRANCH   6  17
ATOM     17  S   UNL     1       0.983  11.656  19.978  0.00  0.00    +0.000 S 
ATOM     18  O   UNL     1       2.028  12.523  19.483  0.00  0.00    +0.000 OA
ATOM     19  O   UNL     1       0.661  11.610  21.376  0.00  0.00    +0.000 OA
BRANCH  17  20
ATOM     20  C   UNL     1       1.412  10.000  19.474  0.00  0.00    +0.000 A 
ATOM     21  C   UNL     1       1.811   9.775  18.157  0.00  0.00    +0.000 A 
ATOM     22  C   UNL     1       2.210   8.494  17.768  0.00  0.00    +0.000 A 
ATOM     23  C   UNL     1       2.223   7.456  18.705  0.00  0.00    +0.000 A 
ATOM     24 BR   UNL     1       2.783   5.728  18.180  0.00  0.00    +0.000 Br
ATOM     25  C   UNL     1       1.838   7.686  20.025  0.00  0.00    +0.000 A 
ATOM     26  C   UNL     1       1.421   8.964  20.415  0.00  0.00    +0.000 A 
ENDBRANCH  17  20
ENDBRANCH   6  17
TORSDOF 3
ENDMDL
MODEL 5
REMARK VINA RESULT:      -6.8      4.989      9.004
REMARK  Name = 
REMARK  3 active torsions:
REMARK  status: ('A' for Active; 'I' for Inactive)
REMARK    1  A    between atoms: C_2  and  C_3
REMARK    2  A    between atoms: N_13  and  S_14
REMARK    3  A    between atoms: S_14  and  C_17
REMARK                            x       y       z     vdW  Elec       q    Type
REMARK                         _______ _______ _______ _____ _____    ______ ____
ROOT
ATOM      1  O   UNL     1       3.321   8.098  17.090  0.00  0.00    +0.000 OA
ATOM      2  C   UNL     1       2.556   7.951  18.046  0.00  0.00    +0.000 C 
ATOM      3  N   UNL     1       1.787   9.001  18.530  0.00  0.00    +0.000 N 
ATOM      4  C   UNL     1       0.704   8.936  19.525  0.00  0.00    +0.000 C 
ATOM      5  C   UNL     1       0.837  10.087  20.532  0.00  0.00    +0.000 C 
ATOM      6  N   UNL     1       0.782  11.396  19.835  0.00  0.00    +0.000 NA
ATOM      7  C   UNL     1       1.912  11.468  18.835  0.00  0.00    +0.000 C 
ATOM      8  C   UNL     1       1.863  10.302  17.832  0.00  0.00    +0.000 C 
ENDROOT
BRANCH   2   9
ATOM      9  C   UNL     1       2.458   6.598  18.695  0.00  0.00    +0.000 A 
ATOM     10  C   UNL     1       2.055   5.382  18.016  0.00  0.00    +0.000 A 
ATOM     11  C   UNL     1       2.131   4.183  18.606  0.00  0.00    +0.000 A 
ATOM     12  C   UNL     1       2.403   4.118  20.056  0.00  0.00    +0.000 A 
ATOM     13  O   UNL     1       2.373   3.046  20.653  0.00  0.00    +0.000 OA
ATOM     14  N   UNL     1       2.623   5.323  20.677  0.00  0.00    +0.000 N 
ATOM     15  C   UNL     1       2.674   6.530  20.022  0.00  0.00    +0.000 A 
ATOM     16  H   UNL     1       2.750   5.281  21.682  0.00  0.00    +0.000 HD
ENDBRANCH   2   9
BRANCH   6  17
ATOM     17  S   UNL     1      -0.768  11.844  19.236  0.00  0.00    +0.000 S 
ATOM     18  O   UNL     1      -0.624  13.127  18.587  0.00  0.00    +0.000 OA
ATOM     19  O   UNL     1      -1.358  10.730  18.549  0.00  0.00    +0.000 OA
BRANCH  17  20
ATOM     20  C   UNL     1      -1.724  12.126  20.715  0.00  0.00    +0.000 A 
ATOM     21  C   UNL     1      -3.021  12.624  20.599  0.00  0.00    +0.000 A 
ATOM     22  C   UNL     1      -3.800  12.789  21.747  0.00  0.00    +0.000 A 
ATOM     23  C   UNL     1      -3.280  12.435  22.996  0.00  0.00    +0.000 A 
ATOM     24 BR   UNL     1      -4.345  12.639  24.545  0.00  0.00    +0.000 Br
ATOM     25  C   UNL     1      -1.989  11.923  23.109  0.00  0.00    +0.000 A 
ATOM     26  C   UNL     1      -1.199  11.773  21.964  0.00  0.00    +0.000 A 
ENDBRANCH  17  20
ENDBRANCH   6  17
TORSDOF 3
ENDMDL
MODEL 6
REMARK VINA RESULT:      -6.6      4.627      9.247
REMARK  Name = 
REMARK  3 active torsions:
REMARK  status: ('A' for Active; 'I' for Inactive)
REMARK    1  A    between atoms: C_2  and  C_3
REMARK    2  A    between atoms: N_13  and  S_14
REMARK    3  A    between atoms: S_14  and  C_17
REMARK                            x       y       z     vdW  Elec       q    Type
REMARK                         _______ _______ _______ _____ _____    ______ ____
ROOT
ATOM      1  O   UNL     1       2.332   5.719  20.701  0.00  0.00    +0.000 OA
ATOM      2  C   UNL     1       2.421   6.532  19.777  0.00  0.00    +0.000 C 
ATOM      3  N   UNL     1       1.806   7.775  19.841  0.00  0.00    +0.000 N 
ATOM      4  C   UNL     1       1.973   8.907  18.917  0.00  0.00    +0.000 C 
ATOM      5  C   UNL     1       0.610   9.532  18.587  0.00  0.00    +0.000 C 
ATOM      6  N   UNL     1      -0.058  10.006  19.825  0.00  0.00    +0.000 NA
ATOM      7  C   UNL     1      -0.252   8.834  20.758  0.00  0.00    +0.000 C 
ATOM      8  C   UNL     1       1.079   8.131  21.079  0.00  0.00    +0.000 C 
ENDROOT
BRANCH   2   9
ATOM      9  C   UNL     1       3.218   6.160  18.558  0.00  0.00    +0.000 A 
ATOM     10  C   UNL     1       3.987   7.091  17.756  0.00  0.00    +0.000 A 
ATOM     11  C   UNL     1       4.796   6.680  16.773  0.00  0.00    +0.000 A 
ATOM     12  C   UNL     1       4.724   5.271  16.334  0.00  0.00    +0.000 A 
ATOM     13  O   UNL     1       5.370   4.882  15.365  0.00  0.00    +0.000 OA
ATOM     14  N   UNL     1       3.857   4.470  17.034  0.00  0.00    +0.000 N 
ATOM     15  C   UNL     1       3.137   4.885  18.129  0.00  0.00    +0.000 A 
ATOM     16  H   UNL     1       3.765   3.520  16.694  0.00  0.00    +0.000 HD
ENDBRANCH   2   9
BRANCH   6  17
ATOM     17  S   UNL     1       0.631  11.414  20.537  0.00  0.00    +0.000 S 
ATOM     18  O   UNL     1       1.455  10.978  21.642  0.00  0.00    +0.000 OA
ATOM     19  O   UNL     1       1.161  12.262  19.508  0.00  0.00    +0.000 OA
BRANCH  17  20
ATOM     20  C   UNL     1      -0.773  12.253  21.249  0.00  0.00    +0.000 A 
ATOM     21  C   UNL     1      -1.659  12.925  20.408  0.00  0.00    +0.000 A 
ATOM     22  C   UNL     1      -2.795  13.532  20.948  0.00  0.00    +0.000 A 
ATOM     23  C   UNL     1      -3.044  13.443  22.322  0.00  0.00    +0.000 A 
ATOM     24 BR   UNL     1      -4.593  14.248  23.047  0.00  0.00    +0.000 Br
ATOM     25  C   UNL     1      -2.165  12.758  23.159  0.00  0.00    +0.000 A 
ATOM     26  C   UNL     1      -1.017  12.163  22.625  0.00  0.00    +0.000 A 
ENDBRANCH  17  20
ENDBRANCH   6  17
TORSDOF 3
ENDMDL
MODEL 7
REMARK VINA RESULT:      -6.6      5.060      9.117
REMARK  Name = 
REMARK  3 active torsions:
REMARK  status: ('A' for Active; 'I' for Inactive)
REMARK    1  A    between atoms: C_2  and  C_3
REMARK    2  A    between atoms: N_13  and  S_14
REMARK    3  A    between atoms: S_14  and  C_17
REMARK                            x       y       z     vdW  Elec       q    Type
REMARK                         _______ _______ _______ _____ _____    ______ ____
ROOT
ATOM      1  O   UNL     1       3.423   8.048  17.452  0.00  0.00    +0.000 OA
ATOM      2  C   UNL     1       2.485   7.905  18.241  0.00  0.00    +0.000 C 
ATOM      3  N   UNL     1       1.643   8.959  18.567  0.00  0.00    +0.000 N 
ATOM      4  C   UNL     1       0.388   8.901  19.332  0.00  0.00    +0.000 C 
ATOM      5  C   UNL     1       0.329  10.051  20.349  0.00  0.00    +0.000 C 
ATOM      6  N   UNL     1       0.420  11.361  19.657  0.00  0.00    +0.000 NA
ATOM      7  C   UNL     1       1.723  11.425  18.896  0.00  0.00    +0.000 C 
ATOM      8  C   UNL     1       1.863  10.261  17.900  0.00  0.00    +0.000 C 
ENDROOT
BRANCH   2   9
ATOM      9  C   UNL     1       2.254   6.552  18.855  0.00  0.00    +0.000 A 
ATOM     10  C   UNL     1       2.201   6.289  20.280  0.00  0.00    +0.000 A 
ATOM     11  C   UNL     1       1.844   5.095  20.767  0.00  0.00    +0.000 A 
ATOM     12  C   UNL     1       1.732   3.951  19.839  0.00  0.00    +0.000 A 
ATOM     13  O   UNL     1       1.513   2.820  20.262  0.00  0.00    +0.000 OA
ATOM     14  N   UNL     1       1.948   4.235  18.513  0.00  0.00    +0.000 N 
ATOM     15  C   UNL     1       2.180   5.497  18.022  0.00  0.00    +0.000 A 
ATOM     16  H   UNL     1       1.930   3.438  17.886  0.00  0.00    +0.000 HD
ENDBRANCH   2   9
BRANCH   6  17
ATOM     17  S   UNL     1      -0.981  11.820  18.768  0.00  0.00    +0.000 S 
ATOM     18  O   UNL     1      -0.646  13.011  18.022  0.00  0.00    +0.000 OA
ATOM     19  O   UNL     1      -1.533  10.668  18.112  0.00  0.00    +0.000 OA
BRANCH  17  20
ATOM     20  C   UNL     1      -2.136  12.318  20.033  0.00  0.00    +0.000 A 
ATOM     21  C   UNL     1      -3.495  12.376  19.725  0.00  0.00    +0.000 A 
ATOM     22  C   UNL     1      -4.413  12.704  20.725  0.00  0.00    +0.000 A 
ATOM     23  C   UNL     1      -3.965  12.952  22.026  0.00  0.00    +0.000 A 
ATOM     24 BR   UNL     1      -5.213  13.376  23.381  0.00  0.00    +0.000 Br
ATOM     25  C   UNL     1      -2.607  12.879  22.335  0.00  0.00    +0.000 A 
ATOM     26  C   UNL     1      -1.682  12.568  21.333  0.00  0.00    +0.000 A 
ENDBRANCH  17  20
ENDBRANCH   6  17
TORSDOF 3
ENDMDL
MODEL 8
REMARK VINA RESULT:      -6.6      5.052      9.215
REMARK  Name = 
REMARK  3 active torsions:
REMARK  status: ('A' for Active; 'I' for Inactive)
REMARK    1  A    between atoms: C_2  and  C_3
REMARK    2  A    between atoms: N_13  and  S_14
REMARK    3  A    between atoms: S_14  and  C_17
REMARK                            x       y       z     vdW  Elec       q    Type
REMARK                         _______ _______ _______ _____ _____    ______ ____
ROOT
ATOM      1  O   UNL     1       3.086   8.181  17.057  0.00  0.00    +0.000 OA
ATOM      2  C   UNL     1       2.400   8.017  18.070  0.00  0.00    +0.000 C 
ATOM      3  N   UNL     1       1.675   9.059  18.633  0.00  0.00    +0.000 N 
ATOM      4  C   UNL     1       0.677   8.977  19.712  0.00  0.00    +0.000 C 
ATOM      5  C   UNL     1       0.894  10.110  20.725  0.00  0.00    +0.000 C 
ATOM      6  N   UNL     1       0.784  11.431  20.058  0.00  0.00    +0.000 NA
ATOM      7  C   UNL     1       1.829  11.520  18.970  0.00  0.00    +0.000 C 
ATOM      8  C   UNL     1       1.697  10.372  17.954  0.00  0.00    +0.000 C 
ENDROOT
BRANCH   2   9
ATOM      9  C   UNL     1       2.354   6.653  18.701  0.00  0.00    +0.000 A 
ATOM     10  C   UNL     1       1.975   5.435  18.012  0.00  0.00    +0.000 A 
ATOM     11  C   UNL     1       2.096   4.231  18.583  0.00  0.00    +0.000 A 
ATOM     12  C   UNL     1       2.395   4.155  20.028  0.00  0.00    +0.000 A 
ATOM     13  O   UNL     1       2.407   3.073  20.609  0.00  0.00    +0.000 OA
ATOM     14  N   UNL     1       2.590   5.356  20.662  0.00  0.00    +0.000 N 
ATOM     15  C   UNL     1       2.595   6.573  20.024  0.00  0.00    +0.000 A 
ATOM     16  H   UNL     1       2.736   5.304  21.663  0.00  0.00    +0.000 HD
ENDBRANCH   2   9
BRANCH   6  17
ATOM     17  S   UNL     1      -0.809  11.890  19.595  0.00  0.00    +0.000 S 
ATOM     18  O   UNL     1      -0.685  12.963  18.635  0.00  0.00    +0.000 OA
ATOM     19  O   UNL     1      -1.579  10.716  19.296  0.00  0.00    +0.000 OA
BRANCH  17  20
ATOM     20  C   UNL     1      -1.486  12.609  21.080  0.00  0.00    +0.000 A 
ATOM     21  C   UNL     1      -0.616  13.064  22.070  0.00  0.00    +0.000 A 
ATOM     22  C   UNL     1      -1.134  13.685  23.208  0.00  0.00    +0.000 A 
ATOM     23  C   UNL     1      -2.516  13.863  23.336  0.00  0.00    +0.000 A 
ATOM     24 BR   UNL     1      -3.212  14.723  24.868  0.00  0.00    +0.000 Br
ATOM     25  C   UNL     1      -3.383  13.420  22.338  0.00  0.00    +0.000 A 
ATOM     26  C   UNL     1      -2.870  12.781  21.204  0.00  0.00    +0.000 A 
ENDBRANCH  17  20
ENDBRANCH   6  17
TORSDOF 3
ENDMDL
MODEL 9
REMARK VINA RESULT:      -6.5      4.524      9.148
REMARK  Name = 
REMARK  3 active torsions:
REMARK  status: ('A' for Active; 'I' for Inactive)
REMARK    1  A    between atoms: C_2  and  C_3
REMARK    2  A    between atoms: N_13  and  S_14
REMARK    3  A    between atoms: S_14  and  C_17
REMARK                            x       y       z     vdW  Elec       q    Type
REMARK                         _______ _______ _______ _____ _____    ______ ____
ROOT
ATOM      1  O   UNL     1       2.804   5.354  20.366  0.00  0.00    +0.000 OA
ATOM      2  C   UNL     1       2.808   6.248  19.516  0.00  0.00    +0.000 C 
ATOM      3  N   UNL     1       2.122   7.439  19.713  0.00  0.00    +0.000 N 
ATOM      4  C   UNL     1       2.185   8.658  18.890  0.00  0.00    +0.000 C 
ATOM      5  C   UNL     1       0.775   9.221  18.663  0.00  0.00    +0.000 C 
ATOM      6  N   UNL     1       0.128   9.541  19.960  0.00  0.00    +0.000 NA
ATOM      7  C   UNL     1       0.041   8.281  20.789  0.00  0.00    +0.000 C 
ATOM      8  C   UNL     1       1.423   7.639  21.001  0.00  0.00    +0.000 C 
ENDROOT
BRANCH   2   9
ATOM      9  C   UNL     1       3.578   6.037  18.243  0.00  0.00    +0.000 A 
ATOM     10  C   UNL     1       4.196   7.092  17.464  0.00  0.00    +0.000 A 
ATOM     11  C   UNL     1       4.995   6.830  16.423  0.00  0.00    +0.000 A 
ATOM     12  C   UNL     1       5.059   5.448  15.905  0.00  0.00    +0.000 A 
ATOM     13  O   UNL     1       5.695   5.189  14.887  0.00  0.00    +0.000 OA
ATOM     14  N   UNL     1       4.324   4.516  16.595  0.00  0.00    +0.000 N 
ATOM     15  C   UNL     1       3.620   4.787  17.743  0.00  0.00    +0.000 A 
ATOM     16  H   UNL     1       4.323   3.581  16.203  0.00  0.00    +0.000 HD
ENDBRANCH   2   9
BRANCH   6  17
ATOM     17  S   UNL     1       0.757  10.921  20.773  0.00  0.00    +0.000 S 
ATOM     18  O   UNL     1       1.415  10.452  21.971  0.00  0.00    +0.000 OA
ATOM     19  O   UNL     1       1.444  11.761  19.833  0.00  0.00    +0.000 OA
BRANCH  17  20
ATOM     20  C   UNL     1      -0.703  11.797  21.303  0.00  0.00    +0.000 A 
ATOM     21  C   UNL     1      -1.017  11.831  22.661  0.00  0.00    +0.000 A 
ATOM     22  C   UNL     1      -2.124  12.567  23.093  0.00  0.00    +0.000 A 
ATOM     23  C   UNL     1      -2.892  13.277  22.165  0.00  0.00    +0.000 A 
ATOM     24 BR   UNL     1      -4.376  14.288  22.756  0.00  0.00    +0.000 Br
ATOM     25  C   UNL     1      -2.568  13.253  20.809  0.00  0.00    +0.000 A 
ATOM     26  C   UNL     1      -1.471  12.504  20.370  0.00  0.00    +0.000 A 
ENDBRANCH  17  20
ENDBRANCH   6  17
TORSDOF 3
ENDMDL
