MODEL 1
REMARK VINA RESULT:      -8.1      0.000      0.000
REMARK  Name = 
REMARK  7 active torsions:
REMARK  status: ('A' for Active; 'I' for Inactive)
REMARK    1  A    between atoms: C_1  and  C_2
REMARK    2  A    between atoms: C_2  and  O_3
REMARK    3  A    between atoms: O_3  and  C_4
REMARK    4  A    between atoms: C_7  and  C_8
REMARK    5  A    between atoms: C_14  and  C_15
REMARK    6  A    between atoms: C_20  and  O_21
REMARK    7  A    between atoms: O_21  and  C_22
REMARK                            x       y       z     vdW  Elec       q    Type
REMARK                         _______ _______ _______ _____ _____    ______ ____
ROOT
ATOM      1  C   UNL     1       2.269   6.036  19.520  0.00  0.00    +0.000 C 
ATOM      2  N   UNL     1       3.282   5.536  18.870  0.00  0.00    +0.000 NA
ATOM      3  N   UNL     1       3.715   4.277  19.192  0.00  0.00    +0.000 N 
ATOM      4  C   UNL     1       3.375   3.512  20.279  0.00  0.00    +0.000 A 
ATOM      5  N   UNL     1       4.073   2.407  20.315  0.00  0.00    +0.000 NA
ATOM      6  N   UNL     1       4.938   2.447  19.251  0.00  0.00    +0.000 NA
ATOM      7  C   UNL     1       4.744   3.565  18.565  0.00  0.00    +0.000 A 
ATOM      8  S   UNL     1       2.267   4.080  21.468  0.00  0.00    +0.000 S 
ATOM      9  C   UNL     1       1.353   5.256  20.450  0.00  0.00    +0.000 C 
ENDROOT
BRANCH   1  13
ATOM     10  C   UNL     1       1.254  10.192  18.955  0.00  0.00    +0.000 A 
ATOM     11  C   UNL     1       1.874   9.484  17.921  0.00  0.00    +0.000 A 
ATOM     12  C   UNL     1       2.234   8.139  18.083  0.00  0.00    +0.000 A 
ATOM     13  C   UNL     1       1.976   7.493  19.292  0.00  0.00    +0.000 A 
ATOM     14  C   UNL     1       1.387   8.224  20.339  0.00  0.00    +0.000 A 
ATOM     15  C   UNL     1       1.026   9.565  20.172  0.00  0.00    +0.000 A 
BRANCH  10  16
ATOM     16  O   UNL     1       0.948  11.494  18.669  0.00  0.00    +0.000 OA
BRANCH  16  18
ATOM     17  C   UNL     1      -1.338  12.159  18.602  0.00  0.00    +0.000 C 
ATOM     18  C   UNL     1      -0.087  12.082  19.459  0.00  0.00    +0.000 C 
ENDBRANCH  16  18
ENDBRANCH  10  16
ENDBRANCH   1  13
BRANCH   7  19
ATOM     19  C   UNL     1       5.515   4.021  17.389  0.00  0.00    +0.000 A 
ATOM     20  C   UNL     1       4.839   4.128  16.148  0.00  0.00    +0.000 A 
ATOM     21  C   UNL     1       5.456   4.571  14.979  0.00  0.00    +0.000 A 
ATOM     22  C   UNL     1       6.778   4.963  15.018  0.00  0.00    +0.000 A 
ATOM     23  C   UNL     1       7.466   4.915  16.229  0.00  0.00    +0.000 A 
ATOM     24  C   UNL     1       6.858   4.446  17.413  0.00  0.00    +0.000 A 
BRANCH  24  25
ATOM     25  O   UNL     1       7.687   4.592  18.494  0.00  0.00    +0.000 OA
ATOM     26  C   UNL     1       7.728   5.850  19.149  0.00  0.00    +0.000 C 
ENDBRANCH  24  25
ENDBRANCH   7  19
TORSDOF 5
ENDMDL
MODEL 2
REMARK VINA RESULT:      -7.9      0.662      1.270
REMARK  Name = 
REMARK  7 active torsions:
REMARK  status: ('A' for Active; 'I' for Inactive)
REMARK    1  A    between atoms: C_1  and  C_2
REMARK    2  A    between atoms: C_2  and  O_3
REMARK    3  A    between atoms: O_3  and  C_4
REMARK    4  A    between atoms: C_7  and  C_8
REMARK    5  A    between atoms: C_14  and  C_15
REMARK    6  A    between atoms: C_20  and  O_21
REMARK    7  A    between atoms: O_21  and  C_22
REMARK                            x       y       z     vdW  Elec       q    Type
REMARK                         _______ _______ _______ _____ _____    ______ ____
ROOT
ATOM      1  C   UNL     1       2.219   5.962  19.584  0.00  0.00    +0.000 C 
ATOM      2  N   UNL     1       3.239   5.486  18.927  0.00  0.00    +0.000 NA
ATOM      3  N   UNL     1       3.690   4.228  19.232  0.00  0.00    +0.000 N 
ATOM      4  C   UNL     1       3.362   3.445  20.310  0.00  0.00    +0.000 A 
ATOM      5  N   UNL     1       4.077   2.351  20.331  0.00  0.00    +0.000 NA
ATOM      6  N   UNL     1       4.941   2.417  19.267  0.00  0.00    +0.000 NA
ATOM      7  C   UNL     1       4.729   3.540  18.596  0.00  0.00    +0.000 A 
ATOM      8  S   UNL     1       2.247   3.982  21.507  0.00  0.00    +0.000 S 
ATOM      9  C   UNL     1       1.316   5.157  20.505  0.00  0.00    +0.000 C 
ENDROOT
BRANCH   1  13
ATOM     10  C   UNL     1       1.486  10.159  18.893  0.00  0.00    +0.000 A 
ATOM     11  C   UNL     1       1.157   9.592  20.128  0.00  0.00    +0.000 A 
ATOM     12  C   UNL     1       1.365   8.228  20.375  0.00  0.00    +0.000 A 
ATOM     13  C   UNL     1       1.904   7.417  19.375  0.00  0.00    +0.000 A 
ATOM     14  C   UNL     1       2.195   7.987  18.124  0.00  0.00    +0.000 A 
ATOM     15  C   UNL     1       1.990   9.350  17.884  0.00  0.00    +0.000 A 
BRANCH  10  16
ATOM     16  O   UNL     1       1.241  11.499  18.782  0.00  0.00    +0.000 OA
BRANCH  16  18
ATOM     17  C   UNL     1       2.307  13.355  19.827  0.00  0.00    +0.000 C 
ATOM     18  C   UNL     1       1.283  12.247  19.998  0.00  0.00    +0.000 C 
ENDBRANCH  16  18
ENDBRANCH  10  16
ENDBRANCH   1  13
BRANCH   7  19
ATOM     19  C   UNL     1       5.492   4.023  17.425  0.00  0.00    +0.000 A 
ATOM     20  C   UNL     1       4.819   4.116  16.182  0.00  0.00    +0.000 A 
ATOM     21  C   UNL     1       5.428   4.580  15.017  0.00  0.00    +0.000 A 
ATOM     22  C   UNL     1       6.739   5.010  15.063  0.00  0.00    +0.000 A 
ATOM     23  C   UNL     1       7.423   4.976  16.277  0.00  0.00    +0.000 A 
ATOM     24  C   UNL     1       6.823   4.485  17.456  0.00  0.00    +0.000 A 
BRANCH  24  25
ATOM     25  O   UNL     1       7.642   4.650  18.542  0.00  0.00    +0.000 OA
ATOM     26  C   UNL     1       7.778   5.950  19.095  0.00  0.00    +0.000 C 
ENDBRANCH  24  25
ENDBRANCH   7  19
TORSDOF 5
ENDMDL
MODEL 3
REMARK VINA RESULT:      -7.5      1.189      2.241
REMARK  Name = 
REMARK  7 active torsions:
REMARK  status: ('A' for Active; 'I' for Inactive)
REMARK    1  A    between atoms: C_1  and  C_2
REMARK    2  A    between atoms: C_2  and  O_3
REMARK    3  A    between atoms: O_3  and  C_4
REMARK    4  A    between atoms: C_7  and  C_8
REMARK    5  A    between atoms: C_14  and  C_15
REMARK    6  A    between atoms: C_20  and  O_21
REMARK    7  A    between atoms: O_21  and  C_22
REMARK                            x       y       z     vdW  Elec       q    Type
REMARK                         _______ _______ _______ _____ _____    ______ ____
ROOT
ATOM      1  C   UNL     1       1.974   5.828  20.173  0.00  0.00    +0.000 C 
ATOM      2  N   UNL     1       3.165   5.649  19.675  0.00  0.00    +0.000 NA
ATOM      3  N   UNL     1       3.712   4.393  19.713  0.00  0.00    +0.000 N 
ATOM      4  C   UNL     1       3.277   3.296  20.412  0.00  0.00    +0.000 A 
ATOM      5  N   UNL     1       4.116   2.300  20.295  0.00  0.00    +0.000 NA
ATOM      6  N   UNL     1       5.167   2.750  19.535  0.00  0.00    +0.000 NA
ATOM      7  C   UNL     1       4.947   4.008  19.179  0.00  0.00    +0.000 A 
ATOM      8  S   UNL     1       1.873   3.360  21.404  0.00  0.00    +0.000 S 
ATOM      9  C   UNL     1       1.018   4.718  20.581  0.00  0.00    +0.000 C 
ENDROOT
BRANCH   1  13
ATOM     10  C   UNL     1       0.810   9.972  20.493  0.00  0.00    +0.000 A 
ATOM     11  C   UNL     1       0.576   9.102  21.562  0.00  0.00    +0.000 A 
ATOM     12  C   UNL     1       0.925   7.747  21.480  0.00  0.00    +0.000 A 
ATOM     13  C   UNL     1       1.510   7.251  20.314  0.00  0.00    +0.000 A 
ATOM     14  C   UNL     1       1.706   8.125  19.230  0.00  0.00    +0.000 A 
ATOM     15  C   UNL     1       1.361   9.478  19.319  0.00  0.00    +0.000 A 
BRANCH  10  16
ATOM     16  O   UNL     1       0.431  11.268  20.702  0.00  0.00    +0.000 OA
BRANCH  16  18
ATOM     17  C   UNL     1      -1.146  12.275  19.228  0.00  0.00    +0.000 C 
ATOM     18  C   UNL     1       0.328  12.087  19.535  0.00  0.00    +0.000 C 
ENDBRANCH  16  18
ENDBRANCH  10  16
ENDBRANCH   1  13
BRANCH   7  19
ATOM     19  C   UNL     1       5.864   4.879  18.413  0.00  0.00    +0.000 A 
ATOM     20  C   UNL     1       6.824   5.633  19.131  0.00  0.00    +0.000 A 
ATOM     21  C   UNL     1       7.756   6.467  18.515  0.00  0.00    +0.000 A 
ATOM     22  C   UNL     1       7.785   6.549  17.137  0.00  0.00    +0.000 A 
ATOM     23  C   UNL     1       6.885   5.789  16.392  0.00  0.00    +0.000 A 
ATOM     24  C   UNL     1       5.922   4.960  17.007  0.00  0.00    +0.000 A 
BRANCH  24  25
ATOM     25  O   UNL     1       5.225   4.230  16.082  0.00  0.00    +0.000 OA
ATOM     26  C   UNL     1       5.614   4.317  14.720  0.00  0.00    +0.000 C 
ENDBRANCH  24  25
ENDBRANCH   7  19
TORSDOF 5
ENDMDL
MODEL 4
REMARK VINA RESULT:      -7.5      1.609      2.599
REMARK  Name = 
REMARK  7 active torsions:
REMARK  status: ('A' for Active; 'I' for Inactive)
REMARK    1  A    between atoms: C_1  and  C_2
REMARK    2  A    between atoms: C_2  and  O_3
REMARK    3  A    between atoms: O_3  and  C_4
REMARK    4  A    between atoms: C_7  and  C_8
REMARK    5  A    between atoms: C_14  and  C_15
REMARK    6  A    between atoms: C_20  and  O_21
REMARK    7  A    between atoms: O_21  and  C_22
REMARK                            x       y       z     vdW  Elec       q    Type
REMARK                         _______ _______ _______ _____ _____    ______ ____
ROOT
ATOM      1  C   UNL     1       1.909   5.947  20.221  0.00  0.00    +0.000 C 
ATOM      2  N   UNL     1       3.128   5.842  19.773  0.00  0.00    +0.000 NA
ATOM      3  N   UNL     1       3.707   4.601  19.722  0.00  0.00    +0.000 N 
ATOM      4  C   UNL     1       3.268   3.433  20.293  0.00  0.00    +0.000 A 
ATOM      5  N   UNL     1       4.139   2.472  20.129  0.00  0.00    +0.000 NA
ATOM      6  N   UNL     1       5.214   3.015  19.470  0.00  0.00    +0.000 NA
ATOM      7  C   UNL     1       4.978   4.296  19.221  0.00  0.00    +0.000 A 
ATOM      8  S   UNL     1       1.814   3.372  21.212  0.00  0.00    +0.000 S 
ATOM      9  C   UNL     1       0.965   4.782  20.474  0.00  0.00    +0.000 C 
ENDROOT
BRANCH   1  13
ATOM     10  C   UNL     1       0.616  10.014  20.860  0.00  0.00    +0.000 A 
ATOM     11  C   UNL     1       0.370   9.047  21.839  0.00  0.00    +0.000 A 
ATOM     12  C   UNL     1       0.760   7.714  21.651  0.00  0.00    +0.000 A 
ATOM     13  C   UNL     1       1.401   7.339  20.469  0.00  0.00    +0.000 A 
ATOM     14  C   UNL     1       1.609   8.310  19.474  0.00  0.00    +0.000 A 
ATOM     15  C   UNL     1       1.222   9.641  19.669  0.00  0.00    +0.000 A 
BRANCH  10  16
ATOM     16  O   UNL     1       0.193  11.277  21.167  0.00  0.00    +0.000 OA
BRANCH  16  18
ATOM     17  C   UNL     1      -0.955  12.673  22.718  0.00  0.00    +0.000 C 
ATOM     18  C   UNL     1      -1.001  11.366  21.947  0.00  0.00    +0.000 C 
ENDBRANCH  16  18
ENDBRANCH  10  16
ENDBRANCH   1  13
BRANCH   7  19
ATOM     19  C   UNL     1       5.908   5.255  18.588  0.00  0.00    +0.000 A 
ATOM     20  C   UNL     1       7.046   5.666  19.324  0.00  0.00    +0.000 A 
ATOM     21  C   UNL     1       8.004   6.545  18.821  0.00  0.00    +0.000 A 
ATOM     22  C   UNL     1       7.874   7.023  17.533  0.00  0.00    +0.000 A 
ATOM     23  C   UNL     1       6.791   6.608  16.760  0.00  0.00    +0.000 A 
ATOM     24  C   UNL     1       5.803   5.738  17.268  0.00  0.00    +0.000 A 
BRANCH  24  25
ATOM     25  O   UNL     1       4.901   5.384  16.300  0.00  0.00    +0.000 OA
ATOM     26  C   UNL     1       5.285   4.415  15.338  0.00  0.00    +0.000 C 
ENDBRANCH  24  25
ENDBRANCH   7  19
TORSDOF 5
ENDMDL
MODEL 5
REMARK VINA RESULT:      -7.4      1.263      2.090
REMARK  Name = 
REMARK  7 active torsions:
REMARK  status: ('A' for Active; 'I' for Inactive)
REMARK    1  A    between atoms: C_1  and  C_2
REMARK    2  A    between atoms: C_2  and  O_3
REMARK    3  A    between atoms: O_3  and  C_4
REMARK    4  A    between atoms: C_7  and  C_8
REMARK    5  A    between atoms: C_14  and  C_15
REMARK    6  A    between atoms: C_20  and  O_21
REMARK    7  A    between atoms: O_21  and  C_22
REMARK                            x       y       z     vdW  Elec       q    Type
REMARK                         _______ _______ _______ _____ _____    ______ ____
ROOT
ATOM      1  C   UNL     1       1.973   5.929  20.146  0.00  0.00    +0.000 C 
ATOM      2  N   UNL     1       3.171   5.742  19.670  0.00  0.00    +0.000 NA
ATOM      3  N   UNL     1       3.700   4.477  19.694  0.00  0.00    +0.000 N 
ATOM      4  C   UNL     1       3.235   3.374  20.363  0.00  0.00    +0.000 A 
ATOM      5  N   UNL     1       4.061   2.368  20.244  0.00  0.00    +0.000 NA
ATOM      6  N   UNL     1       5.133   2.816  19.514  0.00  0.00    +0.000 NA
ATOM      7  C   UNL     1       4.939   4.084  19.178  0.00  0.00    +0.000 A 
ATOM      8  S   UNL     1       1.811   3.440  21.328  0.00  0.00    +0.000 S 
ATOM      9  C   UNL     1       0.993   4.826  20.514  0.00  0.00    +0.000 C 
ENDROOT
BRANCH   1  13
ATOM     10  C   UNL     1       0.528   9.960  20.681  0.00  0.00    +0.000 A 
ATOM     11  C   UNL     1       1.186   9.612  19.499  0.00  0.00    +0.000 A 
ATOM     12  C   UNL     1       1.684   8.316  19.304  0.00  0.00    +0.000 A 
ATOM     13  C   UNL     1       1.528   7.356  20.305  0.00  0.00    +0.000 A 
ATOM     14  C   UNL     1       0.899   7.726  21.507  0.00  0.00    +0.000 A 
ATOM     15  C   UNL     1       0.399   9.020  21.694  0.00  0.00    +0.000 A 
BRANCH  10  16
ATOM     16  O   UNL     1       0.084  11.252  20.744  0.00  0.00    +0.000 OA
BRANCH  16  18
ATOM     17  C   UNL     1      -0.994  12.599  19.103  0.00  0.00    +0.000 C 
ATOM     18  C   UNL     1      -1.186  11.509  20.141  0.00  0.00    +0.000 C 
ENDBRANCH  16  18
ENDBRANCH  10  16
ENDBRANCH   1  13
BRANCH   7  19
ATOM     19  C   UNL     1       5.884   4.955  18.447  0.00  0.00    +0.000 A 
ATOM     20  C   UNL     1       6.856   5.663  19.197  0.00  0.00    +0.000 A 
ATOM     21  C   UNL     1       7.813   6.493  18.615  0.00  0.00    +0.000 A 
ATOM     22  C   UNL     1       7.857   6.617  17.241  0.00  0.00    +0.000 A 
ATOM     23  C   UNL     1       6.946   5.901  16.465  0.00  0.00    +0.000 A 
ATOM     24  C   UNL     1       5.958   5.078  17.045  0.00  0.00    +0.000 A 
BRANCH  24  25
ATOM     25  O   UNL     1       5.252   4.394  16.091  0.00  0.00    +0.000 OA
ATOM     26  C   UNL     1       5.955   3.875  14.973  0.00  0.00    +0.000 C 
ENDBRANCH  24  25
ENDBRANCH   7  19
TORSDOF 5
ENDMDL
MODEL 6
REMARK VINA RESULT:      -6.9      2.017      7.168
REMARK  Name = 
REMARK  7 active torsions:
REMARK  status: ('A' for Active; 'I' for Inactive)
REMARK    1  A    between atoms: C_1  and  C_2
REMARK    2  A    between atoms: C_2  and  O_3
REMARK    3  A    between atoms: O_3  and  C_4
REMARK    4  A    between atoms: C_7  and  C_8
REMARK    5  A    between atoms: C_14  and  C_15
REMARK    6  A    between atoms: C_20  and  O_21
REMARK    7  A    between atoms: O_21  and  C_22
REMARK                            x       y       z     vdW  Elec       q    Type
REMARK                         _______ _______ _______ _____ _____    ______ ____
ROOT
ATOM      1  C   UNL     1       4.777   4.461  18.228  0.00  0.00    +0.000 C 
ATOM      2  N   UNL     1       3.925   5.403  18.520  0.00  0.00    +0.000 NA
ATOM      3  N   UNL     1       3.095   5.230  19.597  0.00  0.00    +0.000 N 
ATOM      4  C   UNL     1       2.861   4.085  20.316  0.00  0.00    +0.000 A 
ATOM      5  N   UNL     1       1.921   4.271  21.204  0.00  0.00    +0.000 NA
ATOM      6  N   UNL     1       1.476   5.561  21.052  0.00  0.00    +0.000 NA
ATOM      7  C   UNL     1       2.165   6.154  20.087  0.00  0.00    +0.000 A 
ATOM      8  S   UNL     1       3.648   2.604  19.930  0.00  0.00    +0.000 S 
ATOM      9  C   UNL     1       5.112   3.276  19.119  0.00  0.00    +0.000 C 
ENDROOT
BRANCH   1  13
ATOM     10  C   UNL     1       6.770   4.674  14.406  0.00  0.00    +0.000 A 
ATOM     11  C   UNL     1       7.482   4.957  15.576  0.00  0.00    +0.000 A 
ATOM     12  C   UNL     1       6.857   4.916  16.829  0.00  0.00    +0.000 A 
ATOM     13  C   UNL     1       5.502   4.592  16.918  0.00  0.00    +0.000 A 
ATOM     14  C   UNL     1       4.785   4.347  15.734  0.00  0.00    +0.000 A 
ATOM     15  C   UNL     1       5.415   4.385  14.485  0.00  0.00    +0.000 A 
BRANCH  10  16
ATOM     16  O   UNL     1       7.496   4.741  13.250  0.00  0.00    +0.000 OA
BRANCH  16  18
ATOM     17  C   UNL     1       7.096   2.930  11.755  0.00  0.00    +0.000 C 
ATOM     18  C   UNL     1       6.800   4.390  12.052  0.00  0.00    +0.000 C 
ENDBRANCH  16  18
ENDBRANCH  10  16
ENDBRANCH   1  13
BRANCH   7  19
ATOM     19  C   UNL     1       1.953   7.522  19.568  0.00  0.00    +0.000 A 
ATOM     20  C   UNL     1       2.200   7.760  18.193  0.00  0.00    +0.000 A 
ATOM     21  C   UNL     1       2.010   9.001  17.587  0.00  0.00    +0.000 A 
ATOM     22  C   UNL     1       1.526  10.053  18.337  0.00  0.00    +0.000 A 
ATOM     23  C   UNL     1       1.228   9.849  19.683  0.00  0.00    +0.000 A 
ATOM     24  C   UNL     1       1.440   8.603  20.312  0.00  0.00    +0.000 A 
BRANCH  24  25
ATOM     25  O   UNL     1       0.976   8.607  21.601  0.00  0.00    +0.000 OA
ATOM     26  C   UNL     1      -0.420   8.738  21.817  0.00  0.00    +0.000 C 
ENDBRANCH  24  25
ENDBRANCH   7  19
TORSDOF 5
ENDMDL
MODEL 7
REMARK VINA RESULT:      -6.8      1.591      1.935
REMARK  Name = 
REMARK  7 active torsions:
REMARK  status: ('A' for Active; 'I' for Inactive)
REMARK    1  A    between atoms: C_1  and  C_2
REMARK    2  A    between atoms: C_2  and  O_3
REMARK    3  A    between atoms: O_3  and  C_4
REMARK    4  A    between atoms: C_7  and  C_8
REMARK    5  A    between atoms: C_14  and  C_15
REMARK    6  A    between atoms: C_20  and  O_21
REMARK    7  A    between atoms: O_21  and  C_22
REMARK                            x       y       z     vdW  Elec       q    Type
REMARK                         _______ _______ _______ _____ _____    ______ ____
ROOT
ATOM      1  C   UNL     1       1.912   6.105  20.182  0.00  0.00    +0.000 C 
ATOM      2  N   UNL     1       3.117   5.931  19.717  0.00  0.00    +0.000 NA
ATOM      3  N   UNL     1       3.626   4.660  19.663  0.00  0.00    +0.000 N 
ATOM      4  C   UNL     1       3.130   3.520  20.245  0.00  0.00    +0.000 A 
ATOM      5  N   UNL     1       3.944   2.512  20.072  0.00  0.00    +0.000 NA
ATOM      6  N   UNL     1       5.038   2.992  19.397  0.00  0.00    +0.000 NA
ATOM      7  C   UNL     1       4.870   4.283  19.146  0.00  0.00    +0.000 A 
ATOM      8  S   UNL     1       1.688   3.542  21.183  0.00  0.00    +0.000 S 
ATOM      9  C   UNL     1       0.908   4.995  20.452  0.00  0.00    +0.000 C 
ENDROOT
BRANCH   1  13
ATOM     10  C   UNL     1       0.526  10.112  20.987  0.00  0.00    +0.000 A 
ATOM     11  C   UNL     1       1.083   9.809  19.741  0.00  0.00    +0.000 A 
ATOM     12  C   UNL     1       1.560   8.522  19.457  0.00  0.00    +0.000 A 
ATOM     13  C   UNL     1       1.485   7.524  20.431  0.00  0.00    +0.000 A 
ATOM     14  C   UNL     1       0.960   7.848  21.694  0.00  0.00    +0.000 A 
ATOM     15  C   UNL     1       0.480   9.134  21.971  0.00  0.00    +0.000 A 
BRANCH  10  16
ATOM     16  O   UNL     1       0.093  11.400  21.136  0.00  0.00    +0.000 OA
BRANCH  16  18
ATOM     17  C   UNL     1      -1.099  12.553  22.845  0.00  0.00    +0.000 C 
ATOM     18  C   UNL     1      -1.210  11.561  21.701  0.00  0.00    +0.000 C 
ENDBRANCH  16  18
ENDBRANCH  10  16
ENDBRANCH   1  13
BRANCH   7  19
ATOM     19  C   UNL     1       5.843   5.187  18.497  0.00  0.00    +0.000 A 
ATOM     20  C   UNL     1       5.530   5.693  17.211  0.00  0.00    +0.000 A 
ATOM     21  C   UNL     1       6.359   6.571  16.514  0.00  0.00    +0.000 A 
ATOM     22  C   UNL     1       7.527   7.011  17.103  0.00  0.00    +0.000 A 
ATOM     23  C   UNL     1       7.849   6.571  18.386  0.00  0.00    +0.000 A 
ATOM     24  C   UNL     1       7.030   5.663  19.089  0.00  0.00    +0.000 A 
BRANCH  24  25
ATOM     25  O   UNL     1       7.487   5.460  20.365  0.00  0.00    +0.000 OA
ATOM     26  C   UNL     1       8.845   5.091  20.546  0.00  0.00    +0.000 C 
ENDBRANCH  24  25
ENDBRANCH   7  19
TORSDOF 5
ENDMDL
MODEL 8
REMARK VINA RESULT:      -6.8      1.989      2.665
REMARK  Name = 
REMARK  7 active torsions:
REMARK  status: ('A' for Active; 'I' for Inactive)
REMARK    1  A    between atoms: C_1  and  C_2
REMARK    2  A    between atoms: C_2  and  O_3
REMARK    3  A    between atoms: O_3  and  C_4
REMARK    4  A    between atoms: C_7  and  C_8
REMARK    5  A    between atoms: C_14  and  C_15
REMARK    6  A    between atoms: C_20  and  O_21
REMARK    7  A    between atoms: O_21  and  C_22
REMARK                            x       y       z     vdW  Elec       q    Type
REMARK                         _______ _______ _______ _____ _____    ______ ____
ROOT
ATOM      1  C   UNL     1       1.867   6.369  20.304  0.00  0.00    +0.000 C 
ATOM      2  N   UNL     1       3.090   6.221  19.878  0.00  0.00    +0.000 NA
ATOM      3  N   UNL     1       3.584   4.952  19.722  0.00  0.00    +0.000 N 
ATOM      4  C   UNL     1       3.047   3.770  20.166  0.00  0.00    +0.000 A 
ATOM      5  N   UNL     1       3.855   2.769  19.931  0.00  0.00    +0.000 NA
ATOM      6  N   UNL     1       4.985   3.294  19.355  0.00  0.00    +0.000 NA
ATOM      7  C   UNL     1       4.845   4.606  19.225  0.00  0.00    +0.000 A 
ATOM      8  S   UNL     1       1.564   3.725  21.037  0.00  0.00    +0.000 S 
ATOM      9  C   UNL     1       0.838   5.256  20.419  0.00  0.00    +0.000 C 
ENDROOT
BRANCH   1  13
ATOM     10  C   UNL     1       0.527  10.299  21.480  0.00  0.00    +0.000 A 
ATOM     11  C   UNL     1       0.839  10.046  20.142  0.00  0.00    +0.000 A 
ATOM     12  C   UNL     1       1.296   8.785  19.733  0.00  0.00    +0.000 A 
ATOM     13  C   UNL     1       1.448   7.765  20.673  0.00  0.00    +0.000 A 
ATOM     14  C   UNL     1       1.168   8.040  22.023  0.00  0.00    +0.000 A 
ATOM     15  C   UNL     1       0.708   9.298  22.425  0.00  0.00    +0.000 A 
BRANCH  10  16
ATOM     16  O   UNL     1       0.086  11.565  21.748  0.00  0.00    +0.000 OA
BRANCH  16  18
ATOM     17  C   UNL     1      -1.954  11.821  22.951  0.00  0.00    +0.000 C 
ATOM     18  C   UNL     1      -1.315  11.791  21.574  0.00  0.00    +0.000 C 
ENDBRANCH  16  18
ENDBRANCH  10  16
ENDBRANCH   1  13
BRANCH   7  19
ATOM     19  C   UNL     1       5.859   5.552  18.712  0.00  0.00    +0.000 A 
ATOM     20  C   UNL     1       7.137   5.558  19.324  0.00  0.00    +0.000 A 
ATOM     21  C   UNL     1       8.177   6.388  18.909  0.00  0.00    +0.000 A 
ATOM     22  C   UNL     1       7.986   7.225  17.829  0.00  0.00    +0.000 A 
ATOM     23  C   UNL     1       6.757   7.217  17.171  0.00  0.00    +0.000 A 
ATOM     24  C   UNL     1       5.689   6.399  17.599  0.00  0.00    +0.000 A 
BRANCH  24  25
ATOM     25  O   UNL     1       4.624   6.477  16.741  0.00  0.00    +0.000 OA
ATOM     26  C   UNL     1       3.676   7.515  16.932  0.00  0.00    +0.000 C 
ENDBRANCH  24  25
ENDBRANCH   7  19
TORSDOF 5
ENDMDL
MODEL 9
REMARK VINA RESULT:      -6.8      1.848      2.680
REMARK  Name = 
REMARK  7 active torsions:
REMARK  status: ('A' for Active; 'I' for Inactive)
REMARK    1  A    between atoms: C_1  and  C_2
REMARK    2  A    between atoms: C_2  and  O_3
REMARK    3  A    between atoms: O_3  and  C_4
REMARK    4  A    between atoms: C_7  and  C_8
REMARK    5  A    between atoms: C_14  and  C_15
REMARK    6  A    between atoms: C_20  and  O_21
REMARK    7  A    between atoms: O_21  and  C_22
REMARK                            x       y       z     vdW  Elec       q    Type
REMARK                         _______ _______ _______ _____ _____    ______ ____
ROOT
ATOM      1  C   UNL     1       1.869   6.144  20.262  0.00  0.00    +0.000 C 
ATOM      2  N   UNL     1       3.103   6.056  19.855  0.00  0.00    +0.000 NA
ATOM      3  N   UNL     1       3.678   4.815  19.758  0.00  0.00    +0.000 N 
ATOM      4  C   UNL     1       3.211   3.621  20.247  0.00  0.00    +0.000 A 
ATOM      5  N   UNL     1       4.082   2.664  20.063  0.00  0.00    +0.000 NA
ATOM      6  N   UNL     1       5.184   3.235  19.476  0.00  0.00    +0.000 NA
ATOM      7  C   UNL     1       4.965   4.529  19.289  0.00  0.00    +0.000 A 
ATOM      8  S   UNL     1       1.723   3.520  21.105  0.00  0.00    +0.000 S 
ATOM      9  C   UNL     1       0.910   4.974  20.415  0.00  0.00    +0.000 C 
ENDROOT
BRANCH   1  13
ATOM     10  C   UNL     1       0.558  10.181  21.044  0.00  0.00    +0.000 A 
ATOM     11  C   UNL     1       0.459   9.214  22.048  0.00  0.00    +0.000 A 
ATOM     12  C   UNL     1       0.858   7.890  21.817  0.00  0.00    +0.000 A 
ATOM     13  C   UNL     1       1.358   7.525  20.567  0.00  0.00    +0.000 A 
ATOM     14  C   UNL     1       1.418   8.495  19.551  0.00  0.00    +0.000 A 
ATOM     15  C   UNL     1       1.023   9.816  19.787  0.00  0.00    +0.000 A 
BRANCH  10  16
ATOM     16  O   UNL     1       0.143  11.435  21.397  0.00  0.00    +0.000 OA
BRANCH  16  18
ATOM     17  C   UNL     1       1.560  13.268  20.843  0.00  0.00    +0.000 C 
ATOM     18  C   UNL     1       0.346  12.460  20.422  0.00  0.00    +0.000 C 
ENDBRANCH  16  18
ENDBRANCH  10  16
ENDBRANCH   1  13
BRANCH   7  19
ATOM     19  C   UNL     1       5.923   5.514  18.746  0.00  0.00    +0.000 A 
ATOM     20  C   UNL     1       7.198   5.612  19.355  0.00  0.00    +0.000 A 
ATOM     21  C   UNL     1       8.191   6.486  18.913  0.00  0.00    +0.000 A 
ATOM     22  C   UNL     1       7.952   7.278  17.808  0.00  0.00    +0.000 A 
ATOM     23  C   UNL     1       6.725   7.180  17.153  0.00  0.00    +0.000 A 
ATOM     24  C   UNL     1       5.706   6.316  17.608  0.00  0.00    +0.000 A 
BRANCH  24  25
ATOM     25  O   UNL     1       4.638   6.307  16.749  0.00  0.00    +0.000 OA
ATOM     26  C   UNL     1       3.688   7.358  16.841  0.00  0.00    +0.000 C 
ENDBRANCH  24  25
ENDBRANCH   7  19
TORSDOF 5
ENDMDL
