MODEL 1
REMARK VINA RESULT:      -9.0      0.000      0.000
REMARK  Name = 
REMARK  7 active torsions:
REMARK  status: ('A' for Active; 'I' for Inactive)
REMARK    1  A    between atoms: C_2  and  C_18
REMARK    2  A    between atoms: N_3  and  C_4
REMARK    3  A    between atoms: C_4  and  C_5
REMARK    4  A    between atoms: C_4  and  C_12
REMARK    5  A    between atoms: C_5  and  C_6
REMARK    6  A    between atoms: C_18  and  C_19
REMARK    7  A    between atoms: C_18  and  C_25
REMARK                            x       y       z     vdW  Elec       q    Type
REMARK                         _______ _______ _______ _____ _____    ______ ____
ROOT
ATOM      1  O   UNL     1       3.483   7.930  17.536  0.00  0.00    +0.000 OA
ATOM      2  C   UNL     1       3.115   7.311  18.532  0.00  0.00    +0.000 C 
ATOM      3  N   UNL     1       2.129   7.782  19.384  0.00  0.00    +0.000 N 
ATOM      4  H   UNL     1       2.170   7.406  20.319  0.00  0.00    +0.000 HD
ENDROOT
BRANCH   3   5
ATOM      5  C   UNL     1       1.508   9.099  19.258  0.00  0.00    +0.000 C 
BRANCH   5   6
ATOM      6  C   UNL     1       0.784   9.506  20.544  0.00  0.00    +0.000 A 
ATOM      7  C   UNL     1       0.097   8.533  21.292  0.00  0.00    +0.000 A 
ATOM      8  C   UNL     1      -0.624   8.885  22.438  0.00  0.00    +0.000 A 
ATOM      9  C   UNL     1      -0.679  10.213  22.850  0.00  0.00    +0.000 A 
ATOM     10  C   UNL     1       0.019  11.186  22.143  0.00  0.00    +0.000 A 
ATOM     11  C   UNL     1       0.759  10.833  21.013  0.00  0.00    +0.000 A 
ENDBRANCH   5   6
BRANCH   5  12
ATOM     12  C   UNL     1       0.672   9.302  17.968  0.00  0.00    +0.000 C 
BRANCH  12  13
ATOM     13  C   UNL     1      -0.556  10.191  17.983  0.00  0.00    +0.000 A 
ATOM     14  C   UNL     1      -1.853   9.670  17.884  0.00  0.00    +0.000 A 
ATOM     15  C   UNL     1      -2.970  10.485  18.092  0.00  0.00    +0.000 A 
ATOM     16  C   UNL     1      -2.807  11.828  18.418  0.00  0.00    +0.000 A 
ATOM     17  C   UNL     1      -1.527  12.369  18.498  0.00  0.00    +0.000 A 
ATOM     18  C   UNL     1      -0.411  11.559  18.274  0.00  0.00    +0.000 A 
ENDBRANCH  12  13
ENDBRANCH   5  12
ENDBRANCH   3   5
BRANCH   2  19
ATOM     19  C   UNL     1       3.704   5.946  18.988  0.00  0.00    +0.000 C 
BRANCH  19  20
ATOM     20  C   UNL     1       2.625   4.902  19.257  0.00  0.00    +0.000 A 
ATOM     21  C   UNL     1       2.302   4.480  20.554  0.00  0.00    +0.000 A 
ATOM     22  C   UNL     1       1.391   3.440  20.762  0.00  0.00    +0.000 A 
ATOM     23  C   UNL     1       0.781   2.815  19.677  0.00  0.00    +0.000 A 
ATOM     24  C   UNL     1       1.062   3.245  18.383  0.00  0.00    +0.000 A 
ATOM     25  C   UNL     1       1.970   4.285  18.175  0.00  0.00    +0.000 A 
ENDBRANCH  19  20
BRANCH  19  26
ATOM     26  C   UNL     1       4.872   5.491  18.117  0.00  0.00    +0.000 A 
ATOM     27  C   UNL     1       4.633   5.052  16.800  0.00  0.00    +0.000 A 
ATOM     28  C   UNL     1       5.672   4.573  15.999  0.00  0.00    +0.000 A 
ATOM     29  C   UNL     1       6.971   4.533  16.494  0.00  0.00    +0.000 A 
ATOM     30  C   UNL     1       7.229   4.975  17.789  0.00  0.00    +0.000 A 
ATOM     31  C   UNL     1       6.190   5.450  18.595  0.00  0.00    +0.000 A 
ENDBRANCH  19  26
ENDBRANCH   2  19
TORSDOF 7
ENDMDL
MODEL 2
REMARK VINA RESULT:      -8.9      1.634      8.047
REMARK  Name = 
REMARK  7 active torsions:
REMARK  status: ('A' for Active; 'I' for Inactive)
REMARK    1  A    between atoms: C_2  and  C_18
REMARK    2  A    between atoms: N_3  and  C_4
REMARK    3  A    between atoms: C_4  and  C_5
REMARK    4  A    between atoms: C_4  and  C_12
REMARK    5  A    between atoms: C_5  and  C_6
REMARK    6  A    between atoms: C_18  and  C_19
REMARK    7  A    between atoms: C_18  and  C_25
REMARK                            x       y       z     vdW  Elec       q    Type
REMARK                         _______ _______ _______ _____ _____    ______ ____
ROOT
ATOM      1  O   UNL     1       2.180   9.512  17.127  0.00  0.00    +0.000 OA
ATOM      2  C   UNL     1       1.714   9.277  18.241  0.00  0.00    +0.000 C 
ATOM      3  N   UNL     1       1.886   8.061  18.882  0.00  0.00    +0.000 N 
ATOM      4  H   UNL     1       1.185   7.854  19.577  0.00  0.00    +0.000 HD
ENDROOT
BRANCH   3   5
ATOM      5  C   UNL     1       2.531   6.903  18.269  0.00  0.00    +0.000 C 
BRANCH   5   6
ATOM      6  C   UNL     1       2.039   5.591  18.885  0.00  0.00    +0.000 A 
ATOM      7  C   UNL     1       1.651   4.531  18.045  0.00  0.00    +0.000 A 
ATOM      8  C   UNL     1       1.140   3.343  18.577  0.00  0.00    +0.000 A 
ATOM      9  C   UNL     1       0.999   3.196  19.954  0.00  0.00    +0.000 A 
ATOM     10  C   UNL     1       1.406   4.219  20.803  0.00  0.00    +0.000 A 
ATOM     11  C   UNL     1       1.939   5.396  20.276  0.00  0.00    +0.000 A 
ENDBRANCH   5   6
BRANCH   5  12
ATOM     12  C   UNL     1       4.074   7.008  18.149  0.00  0.00    +0.000 C 
BRANCH  12  13
ATOM     13  C   UNL     1       4.835   6.077  17.224  0.00  0.00    +0.000 A 
ATOM     14  C   UNL     1       5.152   4.763  17.590  0.00  0.00    +0.000 A 
ATOM     15  C   UNL     1       5.681   3.867  16.655  0.00  0.00    +0.000 A 
ATOM     16  C   UNL     1       5.887   4.269  15.338  0.00  0.00    +0.000 A 
ATOM     17  C   UNL     1       5.599   5.577  14.963  0.00  0.00    +0.000 A 
ATOM     18  C   UNL     1       5.086   6.477  15.900  0.00  0.00    +0.000 A 
ENDBRANCH  12  13
ENDBRANCH   5  12
ENDBRANCH   3   5
BRANCH   2  19
ATOM     19  C   UNL     1       0.862  10.281  19.067  0.00  0.00    +0.000 C 
BRANCH  19  20
ATOM     20  C   UNL     1       1.592  11.594  19.330  0.00  0.00    +0.000 A 
ATOM     21  C   UNL     1       1.587  12.213  20.587  0.00  0.00    +0.000 A 
ATOM     22  C   UNL     1       2.168  13.471  20.768  0.00  0.00    +0.000 A 
ATOM     23  C   UNL     1       2.774  14.124  19.698  0.00  0.00    +0.000 A 
ATOM     24  C   UNL     1       2.822  13.509  18.450  0.00  0.00    +0.000 A 
ATOM     25  C   UNL     1       2.243  12.251  18.269  0.00  0.00    +0.000 A 
ENDBRANCH  19  20
BRANCH  19  26
ATOM     26  C   UNL     1      -0.568  10.404  18.547  0.00  0.00    +0.000 A 
ATOM     27  C   UNL     1      -0.972   9.654  17.425  0.00  0.00    +0.000 A 
ATOM     28  C   UNL     1      -2.254   9.789  16.889  0.00  0.00    +0.000 A 
ATOM     29  C   UNL     1      -3.162  10.668  17.470  0.00  0.00    +0.000 A 
ATOM     30  C   UNL     1      -2.786  11.408  18.588  0.00  0.00    +0.000 A 
ATOM     31  C   UNL     1      -1.501  11.279  19.123  0.00  0.00    +0.000 A 
ENDBRANCH  19  26
ENDBRANCH   2  19
TORSDOF 7
ENDMDL
MODEL 3
REMARK VINA RESULT:      -8.9      0.557      1.575
REMARK  Name = 
REMARK  7 active torsions:
REMARK  status: ('A' for Active; 'I' for Inactive)
REMARK    1  A    between atoms: C_2  and  C_18
REMARK    2  A    between atoms: N_3  and  C_4
REMARK    3  A    between atoms: C_4  and  C_5
REMARK    4  A    between atoms: C_4  and  C_12
REMARK    5  A    between atoms: C_5  and  C_6
REMARK    6  A    between atoms: C_18  and  C_19
REMARK    7  A    between atoms: C_18  and  C_25
REMARK                            x       y       z     vdW  Elec       q    Type
REMARK                         _______ _______ _______ _____ _____    ______ ____
ROOT
ATOM      1  O   UNL     1       2.989   8.075  17.195  0.00  0.00    +0.000 OA
ATOM      2  C   UNL     1       2.880   7.519  18.286  0.00  0.00    +0.000 C 
ATOM      3  N   UNL     1       2.080   8.016  19.302  0.00  0.00    +0.000 N 
ATOM      4  H   UNL     1       2.344   7.713  20.227  0.00  0.00    +0.000 HD
ENDROOT
BRANCH   3   5
ATOM      5  C   UNL     1       1.377   9.295  19.232  0.00  0.00    +0.000 C 
BRANCH   5   6
ATOM      6  C   UNL     1       0.689   9.634  20.556  0.00  0.00    +0.000 A 
ATOM      7  C   UNL     1       0.133   8.602  21.334  0.00  0.00    +0.000 A 
ATOM      8  C   UNL     1      -0.556   8.886  22.518  0.00  0.00    +0.000 A 
ATOM      9  C   UNL     1      -0.708  10.204  22.940  0.00  0.00    +0.000 A 
ATOM     10  C   UNL     1      -0.139  11.236  22.203  0.00  0.00    +0.000 A 
ATOM     11  C   UNL     1       0.569  10.953  21.034  0.00  0.00    +0.000 A 
ENDBRANCH   5   6
BRANCH   5  12
ATOM     12  C   UNL     1       0.473   9.471  17.984  0.00  0.00    +0.000 C 
BRANCH  12  13
ATOM     13  C   UNL     1      -0.852  10.199  18.095  0.00  0.00    +0.000 A 
ATOM     14  C   UNL     1      -0.924  11.585  18.288  0.00  0.00    +0.000 A 
ATOM     15  C   UNL     1      -2.146  12.258  18.195  0.00  0.00    +0.000 A 
ATOM     16  C   UNL     1      -3.311  11.558  17.893  0.00  0.00    +0.000 A 
ATOM     17  C   UNL     1      -3.262  10.178  17.721  0.00  0.00    +0.000 A 
ATOM     18  C   UNL     1      -2.044   9.503  17.830  0.00  0.00    +0.000 A 
ENDBRANCH  12  13
ENDBRANCH   5  12
ENDBRANCH   3   5
BRANCH   2  19
ATOM     19  C   UNL     1       3.627   6.216  18.688  0.00  0.00    +0.000 C 
BRANCH  19  20
ATOM     20  C   UNL     1       2.674   5.089  19.074  0.00  0.00    +0.000 A 
ATOM     21  C   UNL     1       1.884   4.422  18.127  0.00  0.00    +0.000 A 
ATOM     22  C   UNL     1       0.938   3.473  18.526  0.00  0.00    +0.000 A 
ATOM     23  C   UNL     1       0.777   3.168  19.875  0.00  0.00    +0.000 A 
ATOM     24  C   UNL     1       1.578   3.793  20.826  0.00  0.00    +0.000 A 
ATOM     25  C   UNL     1       2.524   4.740  20.429  0.00  0.00    +0.000 A 
ENDBRANCH  19  20
BRANCH  19  26
ATOM     26  C   UNL     1       4.735   5.847  17.705  0.00  0.00    +0.000 A 
ATOM     27  C   UNL     1       5.979   6.506  17.773  0.00  0.00    +0.000 A 
ATOM     28  C   UNL     1       6.992   6.234  16.852  0.00  0.00    +0.000 A 
ATOM     29  C   UNL     1       6.786   5.291  15.850  0.00  0.00    +0.000 A 
ATOM     30  C   UNL     1       5.569   4.620  15.774  0.00  0.00    +0.000 A 
ATOM     31  C   UNL     1       4.551   4.895  16.692  0.00  0.00    +0.000 A 
ENDBRANCH  19  26
ENDBRANCH   2  19
TORSDOF 7
ENDMDL
MODEL 4
REMARK VINA RESULT:      -8.9      0.557      1.326
REMARK  Name = 
REMARK  7 active torsions:
REMARK  status: ('A' for Active; 'I' for Inactive)
REMARK    1  A    between atoms: C_2  and  C_18
REMARK    2  A    between atoms: N_3  and  C_4
REMARK    3  A    between atoms: C_4  and  C_5
REMARK    4  A    between atoms: C_4  and  C_12
REMARK    5  A    between atoms: C_5  and  C_6
REMARK    6  A    between atoms: C_18  and  C_19
REMARK    7  A    between atoms: C_18  and  C_25
REMARK                            x       y       z     vdW  Elec       q    Type
REMARK                         _______ _______ _______ _____ _____    ______ ____
ROOT
ATOM      1  O   UNL     1       2.750   8.024  17.353  0.00  0.00    +0.000 OA
ATOM      2  C   UNL     1       2.678   7.549  18.484  0.00  0.00    +0.000 C 
ATOM      3  N   UNL     1       1.961   8.153  19.505  0.00  0.00    +0.000 N 
ATOM      4  H   UNL     1       2.263   7.900  20.433  0.00  0.00    +0.000 HD
ENDROOT
BRANCH   3   5
ATOM      5  C   UNL     1       1.317   9.458  19.383  0.00  0.00    +0.000 C 
BRANCH   5   6
ATOM      6  C   UNL     1       0.593   9.852  20.673  0.00  0.00    +0.000 A 
ATOM      7  C   UNL     1       0.041   8.852  21.494  0.00  0.00    +0.000 A 
ATOM      8  C   UNL     1      -0.678   9.184  22.646  0.00  0.00    +0.000 A 
ATOM      9  C   UNL     1      -0.865  10.519  22.995  0.00  0.00    +0.000 A 
ATOM     10  C   UNL     1      -0.300  11.523  22.215  0.00  0.00    +0.000 A 
ATOM     11  C   UNL     1       0.438  11.192  21.077  0.00  0.00    +0.000 A 
ENDBRANCH   5   6
BRANCH   5  12
ATOM     12  C   UNL     1       0.469   9.646  18.098  0.00  0.00    +0.000 C 
BRANCH  12  13
ATOM     13  C   UNL     1      -0.908  10.276  18.174  0.00  0.00    +0.000 A 
ATOM     14  C   UNL     1      -1.086  11.649  18.388  0.00  0.00    +0.000 A 
ATOM     15  C   UNL     1      -2.350  12.236  18.263  0.00  0.00    +0.000 A 
ATOM     16  C   UNL     1      -3.450  11.460  17.909  0.00  0.00    +0.000 A 
ATOM     17  C   UNL     1      -3.297  10.090  17.716  0.00  0.00    +0.000 A 
ATOM     18  C   UNL     1      -2.037   9.502  17.856  0.00  0.00    +0.000 A 
ENDBRANCH  12  13
ENDBRANCH   5  12
ENDBRANCH   3   5
BRANCH   2  19
ATOM     19  C   UNL     1       3.384   6.240  18.935  0.00  0.00    +0.000 C 
BRANCH  19  20
ATOM     20  C   UNL     1       2.403   5.097  19.176  0.00  0.00    +0.000 A 
ATOM     21  C   UNL     1       1.968   4.744  20.461  0.00  0.00    +0.000 A 
ATOM     22  C   UNL     1       1.159   3.622  20.660  0.00  0.00    +0.000 A 
ATOM     23  C   UNL     1       0.764   2.842  19.576  0.00  0.00    +0.000 A 
ATOM     24  C   UNL     1       1.155   3.197  18.289  0.00  0.00    +0.000 A 
ATOM     25  C   UNL     1       1.961   4.320  18.089  0.00  0.00    +0.000 A 
ENDBRANCH  19  20
BRANCH  19  26
ATOM     26  C   UNL     1       4.602   5.905  18.079  0.00  0.00    +0.000 A 
ATOM     27  C   UNL     1       5.781   5.434  18.692  0.00  0.00    +0.000 A 
ATOM     28  C   UNL     1       6.931   5.176  17.944  0.00  0.00    +0.000 A 
ATOM     29  C   UNL     1       6.924   5.372  16.567  0.00  0.00    +0.000 A 
ATOM     30  C   UNL     1       5.765   5.824  15.941  0.00  0.00    +0.000 A 
ATOM     31  C   UNL     1       4.614   6.089  16.689  0.00  0.00    +0.000 A 
ENDBRANCH  19  26
ENDBRANCH   2  19
TORSDOF 7
ENDMDL
MODEL 5
REMARK VINA RESULT:      -8.9      0.119      1.249
REMARK  Name = 
REMARK  7 active torsions:
REMARK  status: ('A' for Active; 'I' for Inactive)
REMARK    1  A    between atoms: C_2  and  C_18
REMARK    2  A    between atoms: N_3  and  C_4
REMARK    3  A    between atoms: C_4  and  C_5
REMARK    4  A    between atoms: C_4  and  C_12
REMARK    5  A    between atoms: C_5  and  C_6
REMARK    6  A    between atoms: C_18  and  C_19
REMARK    7  A    between atoms: C_18  and  C_25
REMARK                            x       y       z     vdW  Elec       q    Type
REMARK                         _______ _______ _______ _____ _____    ______ ____
ROOT
ATOM      1  O   UNL     1       3.476   7.889  17.625  0.00  0.00    +0.000 OA
ATOM      2  C   UNL     1       3.090   7.277  18.619  0.00  0.00    +0.000 C 
ATOM      3  N   UNL     1       2.102   7.763  19.459  0.00  0.00    +0.000 N 
ATOM      4  H   UNL     1       2.129   7.388  20.395  0.00  0.00    +0.000 HD
ENDROOT
BRANCH   3   5
ATOM      5  C   UNL     1       1.500   9.087  19.325  0.00  0.00    +0.000 C 
BRANCH   5   6
ATOM      6  C   UNL     1       0.702   9.473  20.573  0.00  0.00    +0.000 A 
ATOM      7  C   UNL     1       0.666  10.817  20.987  0.00  0.00    +0.000 A 
ATOM      8  C   UNL     1      -0.003  11.191  22.157  0.00  0.00    +0.000 A 
ATOM      9  C   UNL     1      -0.641  10.230  22.937  0.00  0.00    +0.000 A 
ATOM     10  C   UNL     1      -0.645   8.901  22.528  0.00  0.00    +0.000 A 
ATOM     11  C   UNL     1       0.002   8.529  21.349  0.00  0.00    +0.000 A 
ENDBRANCH   5   6
BRANCH   5  12
ATOM     12  C   UNL     1       0.745   9.324  17.991  0.00  0.00    +0.000 C 
BRANCH  12  13
ATOM     13  C   UNL     1      -0.513  10.172  17.963  0.00  0.00    +0.000 A 
ATOM     14  C   UNL     1      -1.785   9.609  17.801  0.00  0.00    +0.000 A 
ATOM     15  C   UNL     1      -2.938  10.383  17.970  0.00  0.00    +0.000 A 
ATOM     16  C   UNL     1      -2.834  11.727  18.317  0.00  0.00    +0.000 A 
ATOM     17  C   UNL     1      -1.578  12.309  18.460  0.00  0.00    +0.000 A 
ATOM     18  C   UNL     1      -0.427  11.540  18.275  0.00  0.00    +0.000 A 
ENDBRANCH  12  13
ENDBRANCH   5  12
ENDBRANCH   3   5
BRANCH   2  19
ATOM     19  C   UNL     1       3.657   5.906  19.083  0.00  0.00    +0.000 C 
BRANCH  19  20
ATOM     20  C   UNL     1       2.563   4.878  19.349  0.00  0.00    +0.000 A 
ATOM     21  C   UNL     1       2.234   4.456  20.645  0.00  0.00    +0.000 A 
ATOM     22  C   UNL     1       1.307   3.430  20.849  0.00  0.00    +0.000 A 
ATOM     23  C   UNL     1       0.686   2.819  19.763  0.00  0.00    +0.000 A 
ATOM     24  C   UNL     1       0.972   3.250  18.471  0.00  0.00    +0.000 A 
ATOM     25  C   UNL     1       1.897   4.276  18.265  0.00  0.00    +0.000 A 
ENDBRANCH  19  20
BRANCH  19  26
ATOM     26  C   UNL     1       4.824   5.431  18.221  0.00  0.00    +0.000 A 
ATOM     27  C   UNL     1       6.132   5.441  18.747  0.00  0.00    +0.000 A 
ATOM     28  C   UNL     1       7.227   5.070  17.965  0.00  0.00    +0.000 A 
ATOM     29  C   UNL     1       7.038   4.671  16.646  0.00  0.00    +0.000 A 
ATOM     30  C   UNL     1       5.752   4.641  16.113  0.00  0.00    +0.000 A 
ATOM     31  C   UNL     1       4.654   5.018  16.892  0.00  0.00    +0.000 A 
ENDBRANCH  19  26
ENDBRANCH   2  19
TORSDOF 7
ENDMDL
MODEL 6
REMARK VINA RESULT:      -8.9      1.599      8.160
REMARK  Name = 
REMARK  7 active torsions:
REMARK  status: ('A' for Active; 'I' for Inactive)
REMARK    1  A    between atoms: C_2  and  C_18
REMARK    2  A    between atoms: N_3  and  C_4
REMARK    3  A    between atoms: C_4  and  C_5
REMARK    4  A    between atoms: C_4  and  C_12
REMARK    5  A    between atoms: C_5  and  C_6
REMARK    6  A    between atoms: C_18  and  C_19
REMARK    7  A    between atoms: C_18  and  C_25
REMARK                            x       y       z     vdW  Elec       q    Type
REMARK                         _______ _______ _______ _____ _____    ______ ____
ROOT
ATOM      1  O   UNL     1       2.154   9.620  17.088  0.00  0.00    +0.000 OA
ATOM      2  C   UNL     1       1.697   9.362  18.199  0.00  0.00    +0.000 C 
ATOM      3  N   UNL     1       1.905   8.146  18.830  0.00  0.00    +0.000 N 
ATOM      4  H   UNL     1       1.212   7.912  19.524  0.00  0.00    +0.000 HD
ENDROOT
BRANCH   3   5
ATOM      5  C   UNL     1       2.583   7.013  18.206  0.00  0.00    +0.000 C 
BRANCH   5   6
ATOM      6  C   UNL     1       2.121   5.681  18.802  0.00  0.00    +0.000 A 
ATOM      7  C   UNL     1       2.035   5.537  20.199  0.00  0.00    +0.000 A 
ATOM      8  C   UNL     1       1.675   4.315  20.775  0.00  0.00    +0.000 A 
ATOM      9  C   UNL     1       1.403   3.213  19.967  0.00  0.00    +0.000 A 
ATOM     10  C   UNL     1       1.451   3.342  18.583  0.00  0.00    +0.000 A 
ATOM     11  C   UNL     1       1.786   4.568  18.007  0.00  0.00    +0.000 A 
ENDBRANCH   5   6
BRANCH   5  12
ATOM     12  C   UNL     1       4.123   7.158  18.096  0.00  0.00    +0.000 C 
BRANCH  12  13
ATOM     13  C   UNL     1       4.943   6.102  17.379  0.00  0.00    +0.000 A 
ATOM     14  C   UNL     1       5.030   6.052  15.982  0.00  0.00    +0.000 A 
ATOM     15  C   UNL     1       5.939   5.197  15.351  0.00  0.00    +0.000 A 
ATOM     16  C   UNL     1       6.784   4.390  16.109  0.00  0.00    +0.000 A 
ATOM     17  C   UNL     1       6.695   4.410  17.497  0.00  0.00    +0.000 A 
ATOM     18  C   UNL     1       5.776   5.252  18.127  0.00  0.00    +0.000 A 
ENDBRANCH  12  13
ENDBRANCH   5  12
ENDBRANCH   3   5
BRANCH   2  19
ATOM     19  C   UNL     1       0.817  10.333  19.036  0.00  0.00    +0.000 C 
BRANCH  19  20
ATOM     20  C   UNL     1       1.520  11.654  19.333  0.00  0.00    +0.000 A 
ATOM     21  C   UNL     1       1.495  12.244  20.604  0.00  0.00    +0.000 A 
ATOM     22  C   UNL     1       2.050  13.509  20.816  0.00  0.00    +0.000 A 
ATOM     23  C   UNL     1       2.648  14.198  19.764  0.00  0.00    +0.000 A 
ATOM     24  C   UNL     1       2.715  13.612  18.504  0.00  0.00    +0.000 A 
ATOM     25  C   UNL     1       2.163  12.348  18.290  0.00  0.00    +0.000 A 
ENDBRANCH  19  20
BRANCH  19  26
ATOM     26  C   UNL     1      -0.609  10.440  18.502  0.00  0.00    +0.000 A 
ATOM     27  C   UNL     1      -1.016   9.629  17.424  0.00  0.00    +0.000 A 
ATOM     28  C   UNL     1      -2.294   9.745  16.874  0.00  0.00    +0.000 A 
ATOM     29  C   UNL     1      -3.196  10.666  17.398  0.00  0.00    +0.000 A 
ATOM     30  C   UNL     1      -2.817  11.467  18.473  0.00  0.00    +0.000 A 
ATOM     31  C   UNL     1      -1.536  11.356  19.021  0.00  0.00    +0.000 A 
ENDBRANCH  19  26
ENDBRANCH   2  19
TORSDOF 7
ENDMDL
MODEL 7
REMARK VINA RESULT:      -8.9      0.445      1.314
REMARK  Name = 
REMARK  7 active torsions:
REMARK  status: ('A' for Active; 'I' for Inactive)
REMARK    1  A    between atoms: C_2  and  C_18
REMARK    2  A    between atoms: N_3  and  C_4
REMARK    3  A    between atoms: C_4  and  C_5
REMARK    4  A    between atoms: C_4  and  C_12
REMARK    5  A    between atoms: C_5  and  C_6
REMARK    6  A    between atoms: C_18  and  C_19
REMARK    7  A    between atoms: C_18  and  C_25
REMARK                            x       y       z     vdW  Elec       q    Type
REMARK                         _______ _______ _______ _____ _____    ______ ____
ROOT
ATOM      1  O   UNL     1       3.134   8.122  17.505  0.00  0.00    +0.000 OA
ATOM      2  C   UNL     1       2.866   7.520  18.543  0.00  0.00    +0.000 C 
ATOM      3  N   UNL     1       1.956   7.999  19.471  0.00  0.00    +0.000 N 
ATOM      4  H   UNL     1       2.086   7.643  20.405  0.00  0.00    +0.000 HD
ENDROOT
BRANCH   3   5
ATOM      5  C   UNL     1       1.309   9.306  19.376  0.00  0.00    +0.000 C 
BRANCH   5   6
ATOM      6  C   UNL     1       0.541   9.649  20.655  0.00  0.00    +0.000 A 
ATOM      7  C   UNL     1       0.412  10.993  21.049  0.00  0.00    +0.000 A 
ATOM      8  C   UNL     1      -0.231  11.333  22.243  0.00  0.00    +0.000 A 
ATOM      9  C   UNL     1      -0.748  10.338  23.068  0.00  0.00    +0.000 A 
ATOM     10  C   UNL     1      -0.660   9.005  22.682  0.00  0.00    +0.000 A 
ATOM     11  C   UNL     1      -0.040   8.665  21.479  0.00  0.00    +0.000 A 
ENDBRANCH   5   6
BRANCH   5  12
ATOM     12  C   UNL     1       0.505   9.539  18.071  0.00  0.00    +0.000 C 
BRANCH  12  13
ATOM     13  C   UNL     1      -0.851  10.217  18.118  0.00  0.00    +0.000 A 
ATOM     14  C   UNL     1      -0.984  11.601  18.292  0.00  0.00    +0.000 A 
ATOM     15  C   UNL     1      -2.226  12.225  18.140  0.00  0.00    +0.000 A 
ATOM     16  C   UNL     1      -3.349  11.477  17.798  0.00  0.00    +0.000 A 
ATOM     17  C   UNL     1      -3.240  10.098  17.645  0.00  0.00    +0.000 A 
ATOM     18  C   UNL     1      -2.003   9.472  17.812  0.00  0.00    +0.000 A 
ENDBRANCH  12  13
ENDBRANCH   5  12
ENDBRANCH   3   5
BRANCH   2  19
ATOM     19  C   UNL     1       3.511   6.172  18.969  0.00  0.00    +0.000 C 
BRANCH  19  20
ATOM     20  C   UNL     1       2.480   5.068  19.177  0.00  0.00    +0.000 A 
ATOM     21  C   UNL     1       1.985   4.737  20.446  0.00  0.00    +0.000 A 
ATOM     22  C   UNL     1       1.129   3.646  20.618  0.00  0.00    +0.000 A 
ATOM     23  C   UNL     1       0.745   2.877  19.522  0.00  0.00    +0.000 A 
ATOM     24  C   UNL     1       1.196   3.212  18.249  0.00  0.00    +0.000 A 
ATOM     25  C   UNL     1       2.050   4.303  18.076  0.00  0.00    +0.000 A 
ENDBRANCH  19  20
BRANCH  19  26
ATOM     26  C   UNL     1       4.721   5.804  18.115  0.00  0.00    +0.000 A 
ATOM     27  C   UNL     1       4.631   5.862  16.710  0.00  0.00    +0.000 A 
ATOM     28  C   UNL     1       5.700   5.475  15.900  0.00  0.00    +0.000 A 
ATOM     29  C   UNL     1       6.886   5.032  16.478  0.00  0.00    +0.000 A 
ATOM     30  C   UNL     1       7.000   4.981  17.865  0.00  0.00    +0.000 A 
ATOM     31  C   UNL     1       5.928   5.363  18.678  0.00  0.00    +0.000 A 
ENDBRANCH  19  26
ENDBRANCH   2  19
TORSDOF 7
ENDMDL
MODEL 8
REMARK VINA RESULT:      -8.9      1.663      8.134
REMARK  Name = 
REMARK  7 active torsions:
REMARK  status: ('A' for Active; 'I' for Inactive)
REMARK    1  A    between atoms: C_2  and  C_18
REMARK    2  A    between atoms: N_3  and  C_4
REMARK    3  A    between atoms: C_4  and  C_5
REMARK    4  A    between atoms: C_4  and  C_12
REMARK    5  A    between atoms: C_5  and  C_6
REMARK    6  A    between atoms: C_18  and  C_19
REMARK    7  A    between atoms: C_18  and  C_25
REMARK                            x       y       z     vdW  Elec       q    Type
REMARK                         _______ _______ _______ _____ _____    ______ ____
ROOT
ATOM      1  O   UNL     1       2.129   9.662  17.109  0.00  0.00    +0.000 OA
ATOM      2  C   UNL     1       1.683   9.422  18.229  0.00  0.00    +0.000 C 
ATOM      3  N   UNL     1       1.888   8.211  18.871  0.00  0.00    +0.000 N 
ATOM      4  H   UNL     1       1.201   7.992  19.577  0.00  0.00    +0.000 HD
ENDROOT
BRANCH   3   5
ATOM      5  C   UNL     1       2.547   7.064  18.252  0.00  0.00    +0.000 C 
BRANCH   5   6
ATOM      6  C   UNL     1       2.031   5.741  18.822  0.00  0.00    +0.000 A 
ATOM      7  C   UNL     1       1.906   5.586  20.215  0.00  0.00    +0.000 A 
ATOM      8  C   UNL     1       1.496   4.369  20.768  0.00  0.00    +0.000 A 
ATOM      9  C   UNL     1       1.212   3.285  19.943  0.00  0.00    +0.000 A 
ATOM     10  C   UNL     1       1.298   3.426  18.562  0.00  0.00    +0.000 A 
ATOM     11  C   UNL     1       1.684   4.647  18.007  0.00  0.00    +0.000 A 
ENDBRANCH   5   6
BRANCH   5  12
ATOM     12  C   UNL     1       4.093   7.164  18.181  0.00  0.00    +0.000 C 
BRANCH  12  13
ATOM     13  C   UNL     1       4.885   6.200  17.319  0.00  0.00    +0.000 A 
ATOM     14  C   UNL     1       5.325   4.961  17.802  0.00  0.00    +0.000 A 
ATOM     15  C   UNL     1       5.883   4.013  16.939  0.00  0.00    +0.000 A 
ATOM     16  C   UNL     1       5.994   4.284  15.578  0.00  0.00    +0.000 A 
ATOM     17  C   UNL     1       5.583   5.519  15.084  0.00  0.00    +0.000 A 
ATOM     18  C   UNL     1       5.041   6.473  15.949  0.00  0.00    +0.000 A 
ENDBRANCH  12  13
ENDBRANCH   5  12
ENDBRANCH   3   5
BRANCH   2  19
ATOM     19  C   UNL     1       0.823  10.410  19.065  0.00  0.00    +0.000 C 
BRANCH  19  20
ATOM     20  C   UNL     1       1.522  11.746  19.297  0.00  0.00    +0.000 A 
ATOM     21  C   UNL     1       2.146  12.453  18.260  0.00  0.00    +0.000 A 
ATOM     22  C   UNL     1       2.876  13.615  18.524  0.00  0.00    +0.000 A 
ATOM     23  C   UNL     1       2.983  14.095  19.826  0.00  0.00    +0.000 A 
ATOM     24  C   UNL     1       2.340  13.427  20.864  0.00  0.00    +0.000 A 
ATOM     25  C   UNL     1       1.609  12.267  20.602  0.00  0.00    +0.000 A 
ENDBRANCH  19  20
BRANCH  19  26
ATOM     26  C   UNL     1      -0.622  10.488  18.578  0.00  0.00    +0.000 A 
ATOM     27  C   UNL     1      -1.035   9.702  17.485  0.00  0.00    +0.000 A 
ATOM     28  C   UNL     1      -2.333   9.795  16.977  0.00  0.00    +0.000 A 
ATOM     29  C   UNL     1      -3.247  10.667  17.560  0.00  0.00    +0.000 A 
ATOM     30  C   UNL     1      -2.861  11.443  18.650  0.00  0.00    +0.000 A 
ATOM     31  C   UNL     1      -1.561  11.356  19.156  0.00  0.00    +0.000 A 
ENDBRANCH  19  26
ENDBRANCH   2  19
TORSDOF 7
ENDMDL
MODEL 9
REMARK VINA RESULT:      -8.9      1.644      8.228
REMARK  Name = 
REMARK  7 active torsions:
REMARK  status: ('A' for Active; 'I' for Inactive)
REMARK    1  A    between atoms: C_2  and  C_18
REMARK    2  A    between atoms: N_3  and  C_4
REMARK    3  A    between atoms: C_4  and  C_5
REMARK    4  A    between atoms: C_4  and  C_12
REMARK    5  A    between atoms: C_5  and  C_6
REMARK    6  A    between atoms: C_18  and  C_19
REMARK    7  A    between atoms: C_18  and  C_25
REMARK                            x       y       z     vdW  Elec       q    Type
REMARK                         _______ _______ _______ _____ _____    ______ ____
ROOT
ATOM      1  O   UNL     1       2.209   9.885  17.138  0.00  0.00    +0.000 OA
ATOM      2  C   UNL     1       1.664   9.584  18.198  0.00  0.00    +0.000 C 
ATOM      3  N   UNL     1       1.795   8.332  18.776  0.00  0.00    +0.000 N 
ATOM      4  H   UNL     1       1.047   8.083  19.405  0.00  0.00    +0.000 HD
ENDROOT
BRANCH   3   5
ATOM      5  C   UNL     1       2.489   7.213  18.144  0.00  0.00    +0.000 C 
BRANCH   5   6
ATOM      6  C   UNL     1       2.117   5.878  18.794  0.00  0.00    +0.000 A 
ATOM      7  C   UNL     1       1.774   4.781  17.983  0.00  0.00    +0.000 A 
ATOM      8  C   UNL     1       1.371   3.567  18.549  0.00  0.00    +0.000 A 
ATOM      9  C   UNL     1       1.296   3.430  19.933  0.00  0.00    +0.000 A 
ATOM     10  C   UNL     1       1.661   4.492  20.753  0.00  0.00    +0.000 A 
ATOM     11  C   UNL     1       2.086   5.697  20.190  0.00  0.00    +0.000 A 
ENDBRANCH   5   6
BRANCH   5  12
ATOM     12  C   UNL     1       4.013   7.420  17.949  0.00  0.00    +0.000 C 
BRANCH  12  13
ATOM     13  C   UNL     1       4.871   6.306  17.381  0.00  0.00    +0.000 A 
ATOM     14  C   UNL     1       5.112   6.181  16.007  0.00  0.00    +0.000 A 
ATOM     15  C   UNL     1       6.056   5.269  15.525  0.00  0.00    +0.000 A 
ATOM     16  C   UNL     1       6.783   4.479  16.412  0.00  0.00    +0.000 A 
ATOM     17  C   UNL     1       6.541   4.574  17.779  0.00  0.00    +0.000 A 
ATOM     18  C   UNL     1       5.587   5.474  18.259  0.00  0.00    +0.000 A 
ENDBRANCH  12  13
ENDBRANCH   5  12
ENDBRANCH   3   5
BRANCH   2  19
ATOM     19  C   UNL     1       0.750  10.535  19.019  0.00  0.00    +0.000 C 
BRANCH  19  20
ATOM     20  C   UNL     1       1.412  11.878  19.312  0.00  0.00    +0.000 A 
ATOM     21  C   UNL     1       1.988  12.663  18.303  0.00  0.00    +0.000 A 
ATOM     22  C   UNL     1       2.687  13.832  18.618  0.00  0.00    +0.000 A 
ATOM     23  C   UNL     1       2.810  14.240  19.943  0.00  0.00    +0.000 A 
ATOM     24  C   UNL     1       2.213  13.493  20.955  0.00  0.00    +0.000 A 
ATOM     25  C   UNL     1       1.513  12.326  20.642  0.00  0.00    +0.000 A 
ENDBRANCH  19  20
BRANCH  19  26
ATOM     26  C   UNL     1      -0.674  10.598  18.472  0.00  0.00    +0.000 A 
ATOM     27  C   UNL     1      -1.592  11.521  19.013  0.00  0.00    +0.000 A 
ATOM     28  C   UNL     1      -2.917  11.562  18.576  0.00  0.00    +0.000 A 
ATOM     29  C   UNL     1      -3.350  10.690  17.582  0.00  0.00    +0.000 A 
ATOM     30  C   UNL     1      -2.455   9.780  17.026  0.00  0.00    +0.000 A 
ATOM     31  C   UNL     1      -1.128   9.733  17.465  0.00  0.00    +0.000 A 
ENDBRANCH  19  26
ENDBRANCH   2  19
TORSDOF 7
ENDMDL
