MODEL 1
REMARK VINA RESULT:      -8.5      0.000      0.000
REMARK  Name = 
REMARK  7 active torsions:
REMARK  status: ('A' for Active; 'I' for Inactive)
REMARK    1  A    between atoms: C_2  and  C_4
REMARK    2  A    between atoms: C_7  and  C_8
REMARK    3  A    between atoms: C_8  and  N_9
REMARK    4  A    between atoms: C_10  and  C_12
REMARK    5  A    between atoms: C_18  and  O_19
REMARK    6  A    between atoms: C_18  and  C_20
REMARK    7  A    between atoms: C_20  and  C_21
REMARK                            x       y       z     vdW  Elec       q    Type
REMARK                         _______ _______ _______ _____ _____    ______ ____
ROOT
ATOM      1  C   UNL     1       2.873   6.554  17.707  0.00  0.00    +0.000 C 
ATOM      2  C   UNL     1       2.223   5.675  18.777  0.00  0.00    +0.000 C 
ATOM      3  C   UNL     1       3.281   5.487  19.872  0.00  0.00    +0.000 C 
ATOM      4  C   UNL     1       4.608   5.879  19.198  0.00  0.00    +0.000 C 
ATOM      5  C   UNL     1       5.753   4.866  19.275  0.00  0.00    +0.000 C 
ATOM      6  C   UNL     1       6.917   5.483  18.491  0.00  0.00    +0.000 C 
ATOM      7  C   UNL     1       6.578   5.630  16.975  0.00  0.00    +0.000 C 
ATOM      8  C   UNL     1       5.144   6.136  16.788  0.00  0.00    +0.000 C 
ATOM      9  O   UNL     1       4.758   6.400  15.658  0.00  0.00    +0.000 OA
ATOM     10  N   UNL     1       4.275   6.244  17.841  0.00  0.00    +0.000 N 
ENDROOT
BRANCH   1  12
ATOM     11  N   UNL     1       1.596   8.460  18.666  0.00  0.00    +0.000 N 
ATOM     12  C   UNL     1       2.652   8.038  17.916  0.00  0.00    +0.000 C 
ATOM     13  O   UNL     1       3.416   8.843  17.402  0.00  0.00    +0.000 OA
ATOM     14  H   UNL     1       0.967   7.763  19.098  0.00  0.00    +0.000 HD
BRANCH  11  15
ATOM     15  C   UNL     1       1.320   9.857  18.948  0.00  0.00    +0.000 C 
BRANCH  15  19
ATOM     16  C   UNL     1      -2.727  11.006  17.875  0.00  0.00    +0.000 A 
ATOM     17  C   UNL     1      -2.073  11.591  18.980  0.00  0.00    +0.000 A 
ATOM     18  C   UNL     1      -0.780  11.200  19.339  0.00  0.00    +0.000 A 
ATOM     19  C   UNL     1      -0.103  10.217  18.604  0.00  0.00    +0.000 A 
ATOM     20  C   UNL     1      -0.754   9.606  17.523  0.00  0.00    +0.000 A 
ATOM     21  C   UNL     1      -2.050   9.993  17.163  0.00  0.00    +0.000 A 
BRANCH  16  23
ATOM     22  N   UNL     1      -4.621  11.044  16.391  0.00  0.00    +0.000 NA
ATOM     23  C   UNL     1      -4.089  11.493  17.475  0.00  0.00    +0.000 C 
ATOM     24  N   UNL     1      -4.834  12.404  18.277  0.00  0.00    +0.000 N 
ATOM     25  H   UNL     1      -5.563  11.331  16.087  0.00  0.00    +0.000 HD
ATOM     26  H   UNL     1      -5.784  12.686  17.993  0.00  0.00    +0.000 HD
ATOM     27  H   UNL     1      -4.464  12.814  19.143  0.00  0.00    +0.000 HD
ENDBRANCH  16  23
ENDBRANCH  15  19
ENDBRANCH  11  15
ENDBRANCH   1  12
BRANCH   7  28
ATOM     28  O   UNL     1       7.449   6.571  16.391  0.00  0.00    +0.000 OA
ATOM     29  H   UNL     1       7.438   7.392  16.947  0.00  0.00    +0.000 HD
ENDBRANCH   7  28
BRANCH   7  30
ATOM     30  C   UNL     1       6.674   4.277  16.208  0.00  0.00    +0.000 C 
BRANCH  30  31
ATOM     31  C   UNL     1       6.830   4.409  14.705  0.00  0.00    +0.000 A 
ATOM     32  C   UNL     1       7.805   5.265  14.164  0.00  0.00    +0.000 A 
ATOM     33  C   UNL     1       7.966   5.363  12.779  0.00  0.00    +0.000 A 
ATOM     34  C   UNL     1       7.162   4.607  11.924  0.00  0.00    +0.000 A 
ATOM     35  C   UNL     1       6.192   3.749  12.453  0.00  0.00    +0.000 A 
ATOM     36  C   UNL     1       6.026   3.649  13.838  0.00  0.00    +0.000 A 
ENDBRANCH  30  31
ENDBRANCH   7  30
TORSDOF 7
ENDMDL
MODEL 2
REMARK VINA RESULT:      -8.5      3.464     10.131
REMARK  Name = 
REMARK  7 active torsions:
REMARK  status: ('A' for Active; 'I' for Inactive)
REMARK    1  A    between atoms: C_2  and  C_4
REMARK    2  A    between atoms: C_7  and  C_8
REMARK    3  A    between atoms: C_8  and  N_9
REMARK    4  A    between atoms: C_10  and  C_12
REMARK    5  A    between atoms: C_18  and  O_19
REMARK    6  A    between atoms: C_18  and  C_20
REMARK    7  A    between atoms: C_20  and  C_21
REMARK                            x       y       z     vdW  Elec       q    Type
REMARK                         _______ _______ _______ _____ _____    ______ ____
ROOT
ATOM      1  C   UNL     1       1.568   9.884  20.928  0.00  0.00    +0.000 C 
ATOM      2  C   UNL     1       1.098   9.561  22.348  0.00  0.00    +0.000 C 
ATOM      3  C   UNL     1      -0.418   9.799  22.359  0.00  0.00    +0.000 C 
ATOM      4  C   UNL     1      -0.684  10.655  21.107  0.00  0.00    +0.000 C 
ATOM      5  C   UNL     1      -1.458  11.959  21.308  0.00  0.00    +0.000 C 
ATOM      6  C   UNL     1      -1.533  12.623  19.929  0.00  0.00    +0.000 C 
ATOM      7  C   UNL     1      -0.121  13.041  19.411  0.00  0.00    +0.000 C 
ATOM      8  C   UNL     1       0.908  11.945  19.705  0.00  0.00    +0.000 C 
ATOM      9  O   UNL     1       2.044  12.076  19.272  0.00  0.00    +0.000 OA
ATOM     10  N   UNL     1       0.603  10.859  20.482  0.00  0.00    +0.000 N 
ENDROOT
BRANCH   1  12
ATOM     11  N   UNL     1       2.036   7.492  20.436  0.00  0.00    +0.000 N 
ATOM     12  C   UNL     1       1.562   8.691  19.995  0.00  0.00    +0.000 C 
ATOM     13  O   UNL     1       1.142   8.815  18.854  0.00  0.00    +0.000 OA
ATOM     14  H   UNL     1       2.379   7.406  21.407  0.00  0.00    +0.000 HD
BRANCH  11  15
ATOM     15  C   UNL     1       2.044   6.286  19.628  0.00  0.00    +0.000 C 
BRANCH  15  19
ATOM     16  C   UNL     1       5.867   5.515  17.722  0.00  0.00    +0.000 A 
ATOM     17  C   UNL     1       5.554   4.955  18.978  0.00  0.00    +0.000 A 
ATOM     18  C   UNL     1       4.333   5.226  19.602  0.00  0.00    +0.000 A 
ATOM     19  C   UNL     1       3.390   6.061  18.987  0.00  0.00    +0.000 A 
ATOM     20  C   UNL     1       3.701   6.649  17.753  0.00  0.00    +0.000 A 
ATOM     21  C   UNL     1       4.924   6.382  17.128  0.00  0.00    +0.000 A 
BRANCH  16  23
ATOM     22  N   UNL     1       7.907   4.246  17.573  0.00  0.00    +0.000 NA
ATOM     23  C   UNL     1       7.158   5.153  17.047  0.00  0.00    +0.000 C 
ATOM     24  N   UNL     1       7.564   5.749  15.819  0.00  0.00    +0.000 N 
ATOM     25  H   UNL     1       8.790   3.948  17.134  0.00  0.00    +0.000 HD
ATOM     26  H   UNL     1       8.437   5.448  15.361  0.00  0.00    +0.000 HD
ATOM     27  H   UNL     1       7.025   6.490  15.355  0.00  0.00    +0.000 HD
ENDBRANCH  16  23
ENDBRANCH  15  19
ENDBRANCH  11  15
ENDBRANCH   1  12
BRANCH   7  28
ATOM     28  O   UNL     1      -0.171  13.226  18.015  0.00  0.00    +0.000 OA
ATOM     29  H   UNL     1       0.590  12.735  17.609  0.00  0.00    +0.000 HD
ENDBRANCH   7  28
BRANCH   7  30
ATOM     30  C   UNL     1       0.405  14.337  20.095  0.00  0.00    +0.000 C 
BRANCH  30  31
ATOM     31  C   UNL     1       0.585  15.519  19.162  0.00  0.00    +0.000 A 
ATOM     32  C   UNL     1      -0.519  16.304  18.787  0.00  0.00    +0.000 A 
ATOM     33  C   UNL     1      -0.347  17.410  17.950  0.00  0.00    +0.000 A 
ATOM     34  C   UNL     1       0.926  17.746  17.485  0.00  0.00    +0.000 A 
ATOM     35  C   UNL     1       2.032  16.974  17.856  0.00  0.00    +0.000 A 
ATOM     36  C   UNL     1       1.864  15.866  18.692  0.00  0.00    +0.000 A 
ENDBRANCH  30  31
ENDBRANCH   7  30
TORSDOF 7
ENDMDL
MODEL 3
REMARK VINA RESULT:      -8.4      0.077      1.055
REMARK  Name = 
REMARK  7 active torsions:
REMARK  status: ('A' for Active; 'I' for Inactive)
REMARK    1  A    between atoms: C_2  and  C_4
REMARK    2  A    between atoms: C_7  and  C_8
REMARK    3  A    between atoms: C_8  and  N_9
REMARK    4  A    between atoms: C_10  and  C_12
REMARK    5  A    between atoms: C_18  and  O_19
REMARK    6  A    between atoms: C_18  and  C_20
REMARK    7  A    between atoms: C_20  and  C_21
REMARK                            x       y       z     vdW  Elec       q    Type
REMARK                         _______ _______ _______ _____ _____    ______ ____
ROOT
ATOM      1  C   UNL     1       2.859   6.531  17.728  0.00  0.00    +0.000 C 
ATOM      2  C   UNL     1       2.225   5.653  18.809  0.00  0.00    +0.000 C 
ATOM      3  C   UNL     1       3.298   5.467  19.889  0.00  0.00    +0.000 C 
ATOM      4  C   UNL     1       4.616   5.860  19.197  0.00  0.00    +0.000 C 
ATOM      5  C   UNL     1       5.763   4.850  19.259  0.00  0.00    +0.000 C 
ATOM      6  C   UNL     1       6.915   5.466  18.458  0.00  0.00    +0.000 C 
ATOM      7  C   UNL     1       6.555   5.610  16.947  0.00  0.00    +0.000 C 
ATOM      8  C   UNL     1       5.118   6.113  16.779  0.00  0.00    +0.000 C 
ATOM      9  O   UNL     1       4.716   6.375  15.653  0.00  0.00    +0.000 OA
ATOM     10  N   UNL     1       4.263   6.222  17.843  0.00  0.00    +0.000 N 
ENDROOT
BRANCH   1  12
ATOM     11  N   UNL     1       1.621   8.435  18.739  0.00  0.00    +0.000 N 
ATOM     12  C   UNL     1       2.639   8.014  17.937  0.00  0.00    +0.000 C 
ATOM     13  O   UNL     1       3.368   8.820  17.378  0.00  0.00    +0.000 OA
ATOM     14  H   UNL     1       1.021   7.737  19.209  0.00  0.00    +0.000 HD
BRANCH  11  15
ATOM     15  C   UNL     1       1.350   9.832  19.025  0.00  0.00    +0.000 C 
BRANCH  15  19
ATOM     16  C   UNL     1      -2.696  11.001  17.970  0.00  0.00    +0.000 A 
ATOM     17  C   UNL     1      -2.054  11.543  19.102  0.00  0.00    +0.000 A 
ATOM     18  C   UNL     1      -0.761  11.146  19.455  0.00  0.00    +0.000 A 
ATOM     19  C   UNL     1      -0.073  10.197  18.685  0.00  0.00    +0.000 A 
ATOM     20  C   UNL     1      -0.711   9.628  17.575  0.00  0.00    +0.000 A 
ATOM     21  C   UNL     1      -2.007  10.021  17.221  0.00  0.00    +0.000 A 
BRANCH  16  23
ATOM     22  N   UNL     1      -4.659  12.342  18.342  0.00  0.00    +0.000 NA
ATOM     23  C   UNL     1      -4.058  11.495  17.580  0.00  0.00    +0.000 C 
ATOM     24  N   UNL     1      -4.693  11.092  16.370  0.00  0.00    +0.000 N 
ATOM     25  H   UNL     1      -5.585  12.727  18.104  0.00  0.00    +0.000 HD
ATOM     26  H   UNL     1      -5.611  11.482  16.112  0.00  0.00    +0.000 HD
ATOM     27  H   UNL     1      -4.278  10.407  15.726  0.00  0.00    +0.000 HD
ENDBRANCH  16  23
ENDBRANCH  15  19
ENDBRANCH  11  15
ENDBRANCH   1  12
BRANCH   7  28
ATOM     28  O   UNL     1       7.417   6.551  16.349  0.00  0.00    +0.000 OA
ATOM     29  H   UNL     1       8.346   6.341  16.624  0.00  0.00    +0.000 HD
ENDBRANCH   7  28
BRANCH   7  30
ATOM     30  C   UNL     1       6.642   4.256  16.181  0.00  0.00    +0.000 C 
BRANCH  30  31
ATOM     31  C   UNL     1       6.858   4.385  14.686  0.00  0.00    +0.000 A 
ATOM     32  C   UNL     1       6.059   3.658  13.787  0.00  0.00    +0.000 A 
ATOM     33  C   UNL     1       6.239   3.800  12.408  0.00  0.00    +0.000 A 
ATOM     34  C   UNL     1       7.213   4.670  11.914  0.00  0.00    +0.000 A 
ATOM     35  C   UNL     1       8.011   5.402  12.801  0.00  0.00    +0.000 A 
ATOM     36  C   UNL     1       7.834   5.261  14.181  0.00  0.00    +0.000 A 
ENDBRANCH  30  31
ENDBRANCH   7  30
TORSDOF 7
ENDMDL
MODEL 4
REMARK VINA RESULT:      -8.4      3.861     11.480
REMARK  Name = 
REMARK  7 active torsions:
REMARK  status: ('A' for Active; 'I' for Inactive)
REMARK    1  A    between atoms: C_2  and  C_4
REMARK    2  A    between atoms: C_7  and  C_8
REMARK    3  A    between atoms: C_8  and  N_9
REMARK    4  A    between atoms: C_10  and  C_12
REMARK    5  A    between atoms: C_18  and  O_19
REMARK    6  A    between atoms: C_18  and  C_20
REMARK    7  A    between atoms: C_20  and  C_21
REMARK                            x       y       z     vdW  Elec       q    Type
REMARK                         _______ _______ _______ _____ _____    ______ ____
ROOT
ATOM      1  C   UNL     1      -0.789  10.143  19.449  0.00  0.00    +0.000 C 
ATOM      2  C   UNL     1      -1.829  10.239  18.331  0.00  0.00    +0.000 C 
ATOM      3  C   UNL     1      -2.088  11.737  18.120  0.00  0.00    +0.000 C 
ATOM      4  C   UNL     1      -1.540  12.407  19.392  0.00  0.00    +0.000 C 
ATOM      5  C   UNL     1      -2.485  13.343  20.149  0.00  0.00    +0.000 C 
ATOM      6  C   UNL     1      -1.711  13.822  21.381  0.00  0.00    +0.000 C 
ATOM      7  C   UNL     1      -1.399  12.648  22.360  0.00  0.00    +0.000 C 
ATOM      8  C   UNL     1      -0.959  11.401  21.586  0.00  0.00    +0.000 C 
ATOM      9  O   UNL     1      -0.582  10.423  22.216  0.00  0.00    +0.000 OA
ATOM     10  N   UNL     1      -1.032  11.338  20.220  0.00  0.00    +0.000 N 
ENDROOT
BRANCH   1  12
ATOM     11  N   UNL     1       1.123   9.028  18.317  0.00  0.00    +0.000 N 
ATOM     12  C   UNL     1       0.643  10.131  18.955  0.00  0.00    +0.000 C 
ATOM     13  O   UNL     1       1.356  11.106  19.142  0.00  0.00    +0.000 OA
ATOM     14  H   UNL     1       0.500   8.217  18.162  0.00  0.00    +0.000 HD
BRANCH  11  15
ATOM     15  C   UNL     1       2.469   8.933  17.782  0.00  0.00    +0.000 C 
BRANCH  15  19
ATOM     16  C   UNL     1       4.060   4.937  18.370  0.00  0.00    +0.000 A 
ATOM     17  C   UNL     1       3.036   5.441  19.197  0.00  0.00    +0.000 A 
ATOM     18  C   UNL     1       2.543   6.737  19.023  0.00  0.00    +0.000 A 
ATOM     19  C   UNL     1       3.059   7.565  18.016  0.00  0.00    +0.000 A 
ATOM     20  C   UNL     1       4.099   7.087  17.206  0.00  0.00    +0.000 A 
ATOM     21  C   UNL     1       4.596   5.790  17.381  0.00  0.00    +0.000 A 
BRANCH  16  23
ATOM     22  N   UNL     1       5.362   3.241  19.476  0.00  0.00    +0.000 NA
ATOM     23  C   UNL     1       4.523   3.519  18.539  0.00  0.00    +0.000 C 
ATOM     24  N   UNL     1       4.032   2.459  17.723  0.00  0.00    +0.000 N 
ATOM     25  H   UNL     1       5.690   2.279  19.646  0.00  0.00    +0.000 HD
ATOM     26  H   UNL     1       4.339   1.490  17.893  0.00  0.00    +0.000 HD
ATOM     27  H   UNL     1       3.376   2.612  16.948  0.00  0.00    +0.000 HD
ENDBRANCH  16  23
ENDBRANCH  15  19
ENDBRANCH  11  15
ENDBRANCH   1  12
BRANCH   7  28
ATOM     28  O   UNL     1      -0.345  13.021  23.217  0.00  0.00    +0.000 OA
ATOM     29  H   UNL     1       0.489  13.067  22.682  0.00  0.00    +0.000 HD
ENDBRANCH   7  28
BRANCH   7  30
ATOM     30  C   UNL     1      -2.640  12.230  23.204  0.00  0.00    +0.000 C 
BRANCH  30  31
ATOM     31  C   UNL     1      -3.625  13.349  23.482  0.00  0.00    +0.000 A 
ATOM     32  C   UNL     1      -3.238  14.464  24.245  0.00  0.00    +0.000 A 
ATOM     33  C   UNL     1      -4.138  15.508  24.475  0.00  0.00    +0.000 A 
ATOM     34  C   UNL     1      -5.428  15.453  23.944  0.00  0.00    +0.000 A 
ATOM     35  C   UNL     1      -5.822  14.349  23.180  0.00  0.00    +0.000 A 
ATOM     36  C   UNL     1      -4.925  13.301  22.948  0.00  0.00    +0.000 A 
ENDBRANCH  30  31
ENDBRANCH   7  30
TORSDOF 7
ENDMDL
MODEL 5
REMARK VINA RESULT:      -8.3      3.871     11.479
REMARK  Name = 
REMARK  7 active torsions:
REMARK  status: ('A' for Active; 'I' for Inactive)
REMARK    1  A    between atoms: C_2  and  C_4
REMARK    2  A    between atoms: C_7  and  C_8
REMARK    3  A    between atoms: C_8  and  N_9
REMARK    4  A    between atoms: C_10  and  C_12
REMARK    5  A    between atoms: C_18  and  O_19
REMARK    6  A    between atoms: C_18  and  C_20
REMARK    7  A    between atoms: C_20  and  C_21
REMARK                            x       y       z     vdW  Elec       q    Type
REMARK                         _______ _______ _______ _____ _____    ______ ____
ROOT
ATOM      1  C   UNL     1      -0.727  10.167  19.337  0.00  0.00    +0.000 C 
ATOM      2  C   UNL     1      -1.757  10.303  18.213  0.00  0.00    +0.000 C 
ATOM      3  C   UNL     1      -1.957  11.809  18.000  0.00  0.00    +0.000 C 
ATOM      4  C   UNL     1      -1.388  12.459  19.274  0.00  0.00    +0.000 C 
ATOM      5  C   UNL     1      -2.301  13.431  20.026  0.00  0.00    +0.000 C 
ATOM      6  C   UNL     1      -1.514  13.882  21.261  0.00  0.00    +0.000 C 
ATOM      7  C   UNL     1      -1.253  12.696  22.243  0.00  0.00    +0.000 C 
ATOM      8  C   UNL     1      -0.859  11.433  21.472  0.00  0.00    +0.000 C 
ATOM      9  O   UNL     1      -0.523  10.441  22.104  0.00  0.00    +0.000 OA
ATOM     10  N   UNL     1      -0.927  11.371  20.106  0.00  0.00    +0.000 N 
ENDROOT
BRANCH   1  12
ATOM     11  N   UNL     1       1.168   8.948  18.288  0.00  0.00    +0.000 N 
ATOM     12  C   UNL     1       0.705  10.099  18.850  0.00  0.00    +0.000 C 
ATOM     13  O   UNL     1       1.435  11.072  18.974  0.00  0.00    +0.000 OA
ATOM     14  H   UNL     1       0.533   8.139  18.185  0.00  0.00    +0.000 HD
BRANCH  11  15
ATOM     15  C   UNL     1       2.514   8.795  17.765  0.00  0.00    +0.000 C 
BRANCH  15  19
ATOM     16  C   UNL     1       3.960   4.749  18.385  0.00  0.00    +0.000 A 
ATOM     17  C   UNL     1       2.814   5.222  19.055  0.00  0.00    +0.000 A 
ATOM     18  C   UNL     1       2.365   6.534  18.874  0.00  0.00    +0.000 A 
ATOM     19  C   UNL     1       3.048   7.408  18.017  0.00  0.00    +0.000 A 
ATOM     20  C   UNL     1       4.207   6.959  17.368  0.00  0.00    +0.000 A 
ATOM     21  C   UNL     1       4.660   5.648  17.550  0.00  0.00    +0.000 A 
BRANCH  16  23
ATOM     22  N   UNL     1       4.028   2.456  17.657  0.00  0.00    +0.000 NA
ATOM     23  C   UNL     1       4.379   3.317  18.548  0.00  0.00    +0.000 C 
ATOM     24  N   UNL     1       5.191   2.885  19.637  0.00  0.00    +0.000 N 
ATOM     25  H   UNL     1       4.312   1.467  17.715  0.00  0.00    +0.000 HD
ATOM     26  H   UNL     1       5.495   1.902  19.697  0.00  0.00    +0.000 HD
ATOM     27  H   UNL     1       5.491   3.514  20.391  0.00  0.00    +0.000 HD
ENDBRANCH  16  23
ENDBRANCH  15  19
ENDBRANCH  11  15
ENDBRANCH   1  12
BRANCH   7  28
ATOM     28  O   UNL     1      -0.189  13.029  23.104  0.00  0.00    +0.000 OA
ATOM     29  H   UNL     1       0.378  13.705  22.651  0.00  0.00    +0.000 HD
ENDBRANCH   7  28
BRANCH   7  30
ATOM     30  C   UNL     1      -2.514  12.328  23.081  0.00  0.00    +0.000 C 
BRANCH  30  31
ATOM     31  C   UNL     1      -3.377  13.509  23.482  0.00  0.00    +0.000 A 
ATOM     32  C   UNL     1      -4.657  13.676  22.925  0.00  0.00    +0.000 A 
ATOM     33  C   UNL     1      -5.462  14.749  23.317  0.00  0.00    +0.000 A 
ATOM     34  C   UNL     1      -5.002  15.660  24.270  0.00  0.00    +0.000 A 
ATOM     35  C   UNL     1      -3.731  15.500  24.834  0.00  0.00    +0.000 A 
ATOM     36  C   UNL     1      -2.921  14.429  24.443  0.00  0.00    +0.000 A 
ENDBRANCH  30  31
ENDBRANCH   7  30
TORSDOF 7
ENDMDL
MODEL 6
REMARK VINA RESULT:      -8.3      3.780     11.431
REMARK  Name = 
REMARK  7 active torsions:
REMARK  status: ('A' for Active; 'I' for Inactive)
REMARK    1  A    between atoms: C_2  and  C_4
REMARK    2  A    between atoms: C_7  and  C_8
REMARK    3  A    between atoms: C_8  and  N_9
REMARK    4  A    between atoms: C_10  and  C_12
REMARK    5  A    between atoms: C_18  and  O_19
REMARK    6  A    between atoms: C_18  and  C_20
REMARK    7  A    between atoms: C_20  and  C_21
REMARK                            x       y       z     vdW  Elec       q    Type
REMARK                         _______ _______ _______ _____ _____    ______ ____
ROOT
ATOM      1  C   UNL     1      -0.760  10.113  19.115  0.00  0.00    +0.000 C 
ATOM      2  C   UNL     1      -1.787  10.298  17.996  0.00  0.00    +0.000 C 
ATOM      3  C   UNL     1      -1.960  11.813  17.825  0.00  0.00    +0.000 C 
ATOM      4  C   UNL     1      -1.380  12.417  19.117  0.00  0.00    +0.000 C 
ATOM      5  C   UNL     1      -2.275  13.383  19.896  0.00  0.00    +0.000 C 
ATOM      6  C   UNL     1      -1.480  13.785  21.143  0.00  0.00    +0.000 C 
ATOM      7  C   UNL     1      -1.240  12.569  22.091  0.00  0.00    +0.000 C 
ATOM      8  C   UNL     1      -0.868  11.321  21.285  0.00  0.00    +0.000 C 
ATOM      9  O   UNL     1      -0.549  10.306  21.889  0.00  0.00    +0.000 OA
ATOM     10  N   UNL     1      -0.937  11.298  19.917  0.00  0.00    +0.000 N 
ENDROOT
BRANCH   1  12
ATOM     11  N   UNL     1       1.167   8.840  18.193  0.00  0.00    +0.000 N 
ATOM     12  C   UNL     1       0.671  10.033  18.625  0.00  0.00    +0.000 C 
ATOM     13  O   UNL     1       1.371  11.035  18.631  0.00  0.00    +0.000 OA
ATOM     14  H   UNL     1       0.556   8.006  18.187  0.00  0.00    +0.000 HD
BRANCH  11  15
ATOM     15  C   UNL     1       2.513   8.669  17.677  0.00  0.00    +0.000 C 
BRANCH  15  19
ATOM     16  C   UNL     1       3.900   4.590  18.208  0.00  0.00    +0.000 A 
ATOM     17  C   UNL     1       4.768   5.599  17.744  0.00  0.00    +0.000 A 
ATOM     18  C   UNL     1       4.313   6.906  17.548  0.00  0.00    +0.000 A 
ATOM     19  C   UNL     1       2.978   7.242  17.814  0.00  0.00    +0.000 A 
ATOM     20  C   UNL     1       2.097   6.241  18.247  0.00  0.00    +0.000 A 
ATOM     21  C   UNL     1       2.549   4.931  18.440  0.00  0.00    +0.000 A 
BRANCH  16  23
ATOM     22  N   UNL     1       5.370   3.058  19.343  0.00  0.00    +0.000 NA
ATOM     23  C   UNL     1       4.434   3.212  18.471  0.00  0.00    +0.000 C 
ATOM     24  N   UNL     1       3.909   2.059  17.819  0.00  0.00    +0.000 N 
ATOM     25  H   UNL     1       5.752   2.130  19.573  0.00  0.00    +0.000 HD
ATOM     26  H   UNL     1       4.271   1.123  18.052  0.00  0.00    +0.000 HD
ATOM     27  H   UNL     1       3.176   2.111  17.101  0.00  0.00    +0.000 HD
ENDBRANCH  16  23
ENDBRANCH  15  19
ENDBRANCH  11  15
ENDBRANCH   1  12
BRANCH   7  28
ATOM     28  O   UNL     1      -0.170  12.858  22.961  0.00  0.00    +0.000 OA
ATOM     29  H   UNL     1      -0.527  12.921  23.883  0.00  0.00    +0.000 HD
ENDBRANCH   7  28
BRANCH   7  30
ATOM     30  C   UNL     1      -2.506  12.199  22.919  0.00  0.00    +0.000 C 
BRANCH  30  31
ATOM     31  C   UNL     1      -3.352  13.383  23.348  0.00  0.00    +0.000 A 
ATOM     32  C   UNL     1      -4.623  13.590  22.785  0.00  0.00    +0.000 A 
ATOM     33  C   UNL     1      -5.413  14.665  23.202  0.00  0.00    +0.000 A 
ATOM     34  C   UNL     1      -4.946  15.538  24.187  0.00  0.00    +0.000 A 
ATOM     35  C   UNL     1      -3.684  15.339  24.756  0.00  0.00    +0.000 A 
ATOM     36  C   UNL     1      -2.889  14.265  24.341  0.00  0.00    +0.000 A 
ENDBRANCH  30  31
ENDBRANCH   7  30
TORSDOF 7
ENDMDL
MODEL 7
REMARK VINA RESULT:      -8.2      3.950     11.534
REMARK  Name = 
REMARK  7 active torsions:
REMARK  status: ('A' for Active; 'I' for Inactive)
REMARK    1  A    between atoms: C_2  and  C_4
REMARK    2  A    between atoms: C_7  and  C_8
REMARK    3  A    between atoms: C_8  and  N_9
REMARK    4  A    between atoms: C_10  and  C_12
REMARK    5  A    between atoms: C_18  and  O_19
REMARK    6  A    between atoms: C_18  and  C_20
REMARK    7  A    between atoms: C_20  and  C_21
REMARK                            x       y       z     vdW  Elec       q    Type
REMARK                         _______ _______ _______ _____ _____    ______ ____
ROOT
ATOM      1  C   UNL     1      -0.749  10.250  19.464  0.00  0.00    +0.000 C 
ATOM      2  C   UNL     1      -1.769  10.378  18.331  0.00  0.00    +0.000 C 
ATOM      3  C   UNL     1      -1.967  11.883  18.105  0.00  0.00    +0.000 C 
ATOM      4  C   UNL     1      -1.409  12.542  19.380  0.00  0.00    +0.000 C 
ATOM      5  C   UNL     1      -2.326  13.519  20.117  0.00  0.00    +0.000 C 
ATOM      6  C   UNL     1      -1.549  13.978  21.355  0.00  0.00    +0.000 C 
ATOM      7  C   UNL     1      -1.297  12.800  22.347  0.00  0.00    +0.000 C 
ATOM      8  C   UNL     1      -0.897  11.531  21.589  0.00  0.00    +0.000 C 
ATOM      9  O   UNL     1      -0.566  10.544  22.231  0.00  0.00    +0.000 OA
ATOM     10  N   UNL     1      -0.954  11.460  20.223  0.00  0.00    +0.000 N 
ENDROOT
BRANCH   1  12
ATOM     11  N   UNL     1       1.148   9.031  18.417  0.00  0.00    +0.000 N 
ATOM     12  C   UNL     1       0.688  10.178  18.989  0.00  0.00    +0.000 C 
ATOM     13  O   UNL     1       1.423  11.144  19.132  0.00  0.00    +0.000 OA
ATOM     14  H   UNL     1       0.508   8.228  18.297  0.00  0.00    +0.000 HD
BRANCH  11  15
ATOM     15  C   UNL     1       2.497   8.875  17.903  0.00  0.00    +0.000 C 
BRANCH  15  19
ATOM     16  C   UNL     1       3.905   4.782  18.240  0.00  0.00    +0.000 A 
ATOM     17  C   UNL     1       4.581   5.720  17.433  0.00  0.00    +0.000 A 
ATOM     18  C   UNL     1       4.111   7.030  17.305  0.00  0.00    +0.000 A 
ATOM     19  C   UNL     1       2.954   7.441  17.982  0.00  0.00    +0.000 A 
ATOM     20  C   UNL     1       2.255   6.510  18.762  0.00  0.00    +0.000 A 
ATOM     21  C   UNL     1       2.721   5.196  18.890  0.00  0.00    +0.000 A 
BRANCH  16  23
ATOM     22  N   UNL     1       4.380   2.564  17.435  0.00  0.00    +0.000 NA
ATOM     23  C   UNL     1       4.470   3.402  18.409  0.00  0.00    +0.000 C 
ATOM     24  N   UNL     1       5.143   3.000  19.598  0.00  0.00    +0.000 N 
ATOM     25  H   UNL     1       4.773   1.614  17.496  0.00  0.00    +0.000 HD
ATOM     26  H   UNL     1       5.556   2.058  19.666  0.00  0.00    +0.000 HD
ATOM     27  H   UNL     1       5.235   3.610  20.419  0.00  0.00    +0.000 HD
ENDBRANCH  16  23
ENDBRANCH  15  19
ENDBRANCH  11  15
ENDBRANCH   1  12
BRANCH   7  28
ATOM     28  O   UNL     1      -0.240  13.139  23.215  0.00  0.00    +0.000 OA
ATOM     29  H   UNL     1       0.299  13.853  22.785  0.00  0.00    +0.000 HD
ENDBRANCH   7  28
BRANCH   7  30
ATOM     30  C   UNL     1      -2.564  12.438  23.178  0.00  0.00    +0.000 C 
BRANCH  30  31
ATOM     31  C   UNL     1      -3.409  13.626  23.597  0.00  0.00    +0.000 A 
ATOM     32  C   UNL     1      -2.918  14.553  24.533  0.00  0.00    +0.000 A 
ATOM     33  C   UNL     1      -3.686  15.663  24.896  0.00  0.00    +0.000 A 
ATOM     34  C   UNL     1      -4.946  15.860  24.327  0.00  0.00    +0.000 A 
ATOM     35  C   UNL     1      -5.442  14.946  23.392  0.00  0.00    +0.000 A 
ATOM     36  C   UNL     1      -4.677  13.833  23.027  0.00  0.00    +0.000 A 
ENDBRANCH  30  31
ENDBRANCH   7  30
TORSDOF 7
ENDMDL
MODEL 8
REMARK VINA RESULT:      -8.2      3.804     10.118
REMARK  Name = 
REMARK  7 active torsions:
REMARK  status: ('A' for Active; 'I' for Inactive)
REMARK    1  A    between atoms: C_2  and  C_4
REMARK    2  A    between atoms: C_7  and  C_8
REMARK    3  A    between atoms: C_8  and  N_9
REMARK    4  A    between atoms: C_10  and  C_12
REMARK    5  A    between atoms: C_18  and  O_19
REMARK    6  A    between atoms: C_18  and  C_20
REMARK    7  A    between atoms: C_20  and  C_21
REMARK                            x       y       z     vdW  Elec       q    Type
REMARK                         _______ _______ _______ _____ _____    ______ ____
ROOT
ATOM      1  C   UNL     1       1.440   9.710  21.291  0.00  0.00    +0.000 C 
ATOM      2  C   UNL     1       0.868   9.468  22.689  0.00  0.00    +0.000 C 
ATOM      3  C   UNL     1      -0.633   9.772  22.593  0.00  0.00    +0.000 C 
ATOM      4  C   UNL     1      -0.781  10.585  21.294  0.00  0.00    +0.000 C 
ATOM      5  C   UNL     1      -1.505  11.929  21.393  0.00  0.00    +0.000 C 
ATOM      6  C   UNL     1      -1.464  12.537  19.987  0.00  0.00    +0.000 C 
ATOM      7  C   UNL     1      -0.004  12.871  19.546  0.00  0.00    +0.000 C 
ATOM      8  C   UNL     1       0.953  11.745  19.948  0.00  0.00    +0.000 C 
ATOM      9  O   UNL     1       2.119  11.809  19.584  0.00  0.00    +0.000 OA
ATOM     10  N   UNL     1       0.551  10.707  20.746  0.00  0.00    +0.000 N 
ENDROOT
BRANCH   1  12
ATOM     11  N   UNL     1       1.921   8.567  19.136  0.00  0.00    +0.000 N 
ATOM     12  C   UNL     1       1.437   8.480  20.407  0.00  0.00    +0.000 C 
ATOM     13  O   UNL     1       0.993   7.426  20.836  0.00  0.00    +0.000 OA
ATOM     14  H   UNL     1       2.301   9.466  18.795  0.00  0.00    +0.000 HD
BRANCH  11  15
ATOM     15  C   UNL     1       1.989   7.438  18.225  0.00  0.00    +0.000 C 
BRANCH  15  19
ATOM     16  C   UNL     1       5.937   5.644  18.438  0.00  0.00    +0.000 A 
ATOM     17  C   UNL     1       5.627   6.605  17.453  0.00  0.00    +0.000 A 
ATOM     18  C   UNL     1       4.347   7.162  17.371  0.00  0.00    +0.000 A 
ATOM     19  C   UNL     1       3.343   6.776  18.270  0.00  0.00    +0.000 A 
ATOM     20  C   UNL     1       3.629   5.799  19.233  0.00  0.00    +0.000 A 
ATOM     21  C   UNL     1       4.909   5.237  19.316  0.00  0.00    +0.000 A 
BRANCH  16  23
ATOM     22  N   UNL     1       7.775   4.317  17.630  0.00  0.00    +0.000 NA
ATOM     23  C   UNL     1       7.336   5.113  18.543  0.00  0.00    +0.000 C 
ATOM     24  N   UNL     1       8.214   5.493  19.599  0.00  0.00    +0.000 N 
ATOM     25  H   UNL     1       8.736   3.946  17.647  0.00  0.00    +0.000 HD
ATOM     26  H   UNL     1       9.182   5.142  19.619  0.00  0.00    +0.000 HD
ATOM     27  H   UNL     1       7.924   6.108  20.369  0.00  0.00    +0.000 HD
ENDBRANCH  16  23
ENDBRANCH  15  19
ENDBRANCH  11  15
ENDBRANCH   1  12
BRANCH   7  28
ATOM     28  O   UNL     1       0.041  12.999  18.143  0.00  0.00    +0.000 OA
ATOM     29  H   UNL     1       0.991  12.957  17.858  0.00  0.00    +0.000 HD
ENDBRANCH   7  28
BRANCH   7  30
ATOM     30  C   UNL     1       0.537  14.171  20.211  0.00  0.00    +0.000 C 
BRANCH  30  31
ATOM     31  C   UNL     1       0.616  15.372  19.287  0.00  0.00    +0.000 A 
ATOM     32  C   UNL     1      -0.544  16.100  18.967  0.00  0.00    +0.000 A 
ATOM     33  C   UNL     1      -0.465  17.223  18.140  0.00  0.00    +0.000 A 
ATOM     34  C   UNL     1       0.768  17.633  17.628  0.00  0.00    +0.000 A 
ATOM     35  C   UNL     1       1.928  16.918  17.944  0.00  0.00    +0.000 A 
ATOM     36  C   UNL     1       1.854  15.792  18.771  0.00  0.00    +0.000 A 
ENDBRANCH  30  31
ENDBRANCH   7  30
TORSDOF 7
ENDMDL
MODEL 9
REMARK VINA RESULT:      -8.2      3.908      5.822
REMARK  Name = 
REMARK  7 active torsions:
REMARK  status: ('A' for Active; 'I' for Inactive)
REMARK    1  A    between atoms: C_2  and  C_4
REMARK    2  A    between atoms: C_7  and  C_8
REMARK    3  A    between atoms: C_8  and  N_9
REMARK    4  A    between atoms: C_10  and  C_12
REMARK    5  A    between atoms: C_18  and  O_19
REMARK    6  A    between atoms: C_18  and  C_20
REMARK    7  A    between atoms: C_20  and  C_21
REMARK                            x       y       z     vdW  Elec       q    Type
REMARK                         _______ _______ _______ _____ _____    ______ ____
ROOT
ATOM      1  C   UNL     1       0.745  10.259  18.854  0.00  0.00    +0.000 C 
ATOM      2  C   UNL     1      -0.466  10.200  19.788  0.00  0.00    +0.000 C 
ATOM      3  C   UNL     1      -0.023   9.382  21.008  0.00  0.00    +0.000 C 
ATOM      4  C   UNL     1       1.244   8.644  20.539  0.00  0.00    +0.000 C 
ATOM      5  C   UNL     1       1.275   7.126  20.728  0.00  0.00    +0.000 C 
ATOM      6  C   UNL     1       2.608   6.653  20.138  0.00  0.00    +0.000 C 
ATOM      7  C   UNL     1       2.674   6.893  18.597  0.00  0.00    +0.000 C 
ATOM      8  C   UNL     1       2.093   8.264  18.238  0.00  0.00    +0.000 C 
ATOM      9  O   UNL     1       2.165   8.645  17.078  0.00  0.00    +0.000 OA
ATOM     10  N   UNL     1       1.452   9.041  19.165  0.00  0.00    +0.000 N 
ENDROOT
BRANCH   1  12
ATOM     11  N   UNL     1       1.444  12.235  20.191  0.00  0.00    +0.000 N 
ATOM     12  C   UNL     1       1.646  11.452  19.094  0.00  0.00    +0.000 C 
ATOM     13  O   UNL     1       2.538  11.708  18.299  0.00  0.00    +0.000 OA
ATOM     14  H   UNL     1       0.690  11.997  20.856  0.00  0.00    +0.000 HD
BRANCH  11  15
ATOM     15  C   UNL     1       2.273  13.380  20.522  0.00  0.00    +0.000 C 
BRANCH  15  19
ATOM     16  C   UNL     1       0.936  16.858  18.294  0.00  0.00    +0.000 A 
ATOM     17  C   UNL     1       2.261  16.387  18.181  0.00  0.00    +0.000 A 
ATOM     18  C   UNL     1       2.696  15.283  18.920  0.00  0.00    +0.000 A 
ATOM     19  C   UNL     1       1.820  14.618  19.789  0.00  0.00    +0.000 A 
ATOM     20  C   UNL     1       0.510  15.095  19.934  0.00  0.00    +0.000 A 
ATOM     21  C   UNL     1       0.072  16.202  19.198  0.00  0.00    +0.000 A 
BRANCH  16  23
ATOM     22  N   UNL     1       1.344  18.631  16.717  0.00  0.00    +0.000 NA
ATOM     23  C   UNL     1       0.480  18.004  17.439  0.00  0.00    +0.000 C 
ATOM     24  N   UNL     1      -0.887  18.398  17.366  0.00  0.00    +0.000 N 
ATOM     25  H   UNL     1       1.074  19.408  16.097  0.00  0.00    +0.000 HD
ATOM     26  H   UNL     1      -1.173  19.163  16.737  0.00  0.00    +0.000 HD
ATOM     27  H   UNL     1      -1.624  17.954  17.927  0.00  0.00    +0.000 HD
ENDBRANCH  16  23
ENDBRANCH  15  19
ENDBRANCH  11  15
ENDBRANCH   1  12
BRANCH   7  28
ATOM     28  O   UNL     1       4.019   6.868  18.178  0.00  0.00    +0.000 OA
ATOM     29  H   UNL     1       4.130   6.125  17.530  0.00  0.00    +0.000 HD
ENDBRANCH   7  28
BRANCH   7  30
ATOM     30  C   UNL     1       1.853   5.840  17.794  0.00  0.00    +0.000 C 
BRANCH  30  31
ATOM     31  C   UNL     1       2.229   4.397  18.071  0.00  0.00    +0.000 A 
ATOM     32  C   UNL     1       3.376   3.835  17.484  0.00  0.00    +0.000 A 
ATOM     33  C   UNL     1       3.736   2.514  17.763  0.00  0.00    +0.000 A 
ATOM     34  C   UNL     1       2.961   1.744  18.632  0.00  0.00    +0.000 A 
ATOM     35  C   UNL     1       1.819   2.295  19.224  0.00  0.00    +0.000 A 
ATOM     36  C   UNL     1       1.454   3.616  18.947  0.00  0.00    +0.000 A 
ENDBRANCH  30  31
ENDBRANCH   7  30
TORSDOF 7
ENDMDL
