MODEL 1
REMARK VINA RESULT:      -6.8      0.000      0.000
REMARK  Name = 
REMARK  3 active torsions:
REMARK  status: ('A' for Active; 'I' for Inactive)
REMARK    1  A    between atoms: C_2  and  C_11
REMARK    2  A    between atoms: N_3  and  C_4
REMARK    3  A    between atoms: C_9  and  O_10
REMARK                            x       y       z     vdW  Elec       q    Type
REMARK                         _______ _______ _______ _____ _____    ______ ____
ROOT
ATOM      1  O   UNL     1       7.445   4.577  16.823  0.00  0.00    +0.000 OA
ATOM      2  C   UNL     1       6.541   4.491  16.000  0.00  0.00    +0.000 C 
ATOM      3  N   UNL     1       5.210   4.367  16.368  0.00  0.00    +0.000 N 
ATOM      4  H   UNL     1       4.558   4.190  15.607  0.00  0.00    +0.000 HD
ENDROOT
BRANCH   3   5
ATOM      5  C   UNL     1       4.798   4.250  17.765  0.00  0.00    +0.000 C 
ATOM      6  C   UNL     1       4.296   5.601  18.277  0.00  0.00    +0.000 C 
ATOM      7  C   UNL     1       3.753   5.475  19.691  0.00  0.00    +0.000 C 
ATOM      8  O   UNL     1       2.706   4.509  19.733  0.00  0.00    +0.000 OA
ATOM      9  C   UNL     1       3.173   3.203  19.402  0.00  0.00    +0.000 C 
ATOM     10  C   UNL     1       3.740   3.138  17.981  0.00  0.00    +0.000 C 
BRANCH  10  11
ATOM     11  O   UNL     1       4.267   1.828  17.761  0.00  0.00    +0.000 OA
ATOM     12  H   UNL     1       5.126   1.760  18.219  0.00  0.00    +0.000 HD
ENDBRANCH  10  11
ENDBRANCH   3   5
BRANCH   2  13
ATOM     13  C   UNL     1       6.808   4.525  14.528  0.00  0.00    +0.000 A 
ATOM     14  C   UNL     1       6.112   3.646  13.703  0.00  0.00    +0.000 A 
ATOM     15  C   UNL     1       6.383   3.660  12.339  0.00  0.00    +0.000 A 
ATOM     16  C   UNL     1       7.340   4.540  11.847  0.00  0.00    +0.000 A 
ATOM     17  C   UNL     1       7.989   5.379  12.744  0.00  0.00    +0.000 A 
ATOM     18  N   UNL     1       7.747   5.402  14.077  0.00  0.00    +0.000 NA
ENDBRANCH   2  13
TORSDOF 3
ENDMDL
MODEL 2
REMARK VINA RESULT:      -6.7      1.754      2.214
REMARK  Name = 
REMARK  3 active torsions:
REMARK  status: ('A' for Active; 'I' for Inactive)
REMARK    1  A    between atoms: C_2  and  C_11
REMARK    2  A    between atoms: N_3  and  C_4
REMARK    3  A    between atoms: C_9  and  O_10
REMARK                            x       y       z     vdW  Elec       q    Type
REMARK                         _______ _______ _______ _____ _____    ______ ____
ROOT
ATOM      1  O   UNL     1       6.515   4.398  18.857  0.00  0.00    +0.000 OA
ATOM      2  C   UNL     1       5.678   4.400  17.961  0.00  0.00    +0.000 C 
ATOM      3  N   UNL     1       4.317   4.318  18.216  0.00  0.00    +0.000 N 
ATOM      4  H   UNL     1       3.722   4.216  17.397  0.00  0.00    +0.000 HD
ENDROOT
BRANCH   3   5
ATOM      5  C   UNL     1       3.789   4.141  19.568  0.00  0.00    +0.000 C 
ATOM      6  C   UNL     1       2.437   4.844  19.696  0.00  0.00    +0.000 C 
ATOM      7  C   UNL     1       1.816   4.574  21.056  0.00  0.00    +0.000 C 
ATOM      8  O   UNL     1       1.666   3.171  21.261  0.00  0.00    +0.000 OA
ATOM      9  C   UNL     1       2.925   2.502  21.294  0.00  0.00    +0.000 C 
ATOM     10  C   UNL     1       3.689   2.650  19.975  0.00  0.00    +0.000 C 
BRANCH  10  11
ATOM     11  O   UNL     1       4.970   2.032  20.121  0.00  0.00    +0.000 OA
ATOM     12  H   UNL     1       5.226   1.647  19.261  0.00  0.00    +0.000 HD
ENDBRANCH  10  11
ENDBRANCH   3   5
BRANCH   2  13
ATOM     13  C   UNL     1       6.064   4.505  16.520  0.00  0.00    +0.000 A 
ATOM     14  C   UNL     1       5.143   4.114  15.552  0.00  0.00    +0.000 A 
ATOM     15  C   UNL     1       5.515   4.186  14.214  0.00  0.00    +0.000 A 
ATOM     16  C   UNL     1       6.790   4.634  13.888  0.00  0.00    +0.000 A 
ATOM     17  C   UNL     1       7.645   5.001  14.919  0.00  0.00    +0.000 A 
ATOM     18  N   UNL     1       7.317   4.954  16.233  0.00  0.00    +0.000 NA
ENDBRANCH   2  13
TORSDOF 3
ENDMDL
MODEL 3
REMARK VINA RESULT:      -6.7      1.208      1.325
REMARK  Name = 
REMARK  3 active torsions:
REMARK  status: ('A' for Active; 'I' for Inactive)
REMARK    1  A    between atoms: C_2  and  C_11
REMARK    2  A    between atoms: N_3  and  C_4
REMARK    3  A    between atoms: C_9  and  O_10
REMARK                            x       y       z     vdW  Elec       q    Type
REMARK                         _______ _______ _______ _____ _____    ______ ____
ROOT
ATOM      1  O   UNL     1       6.333   5.587  17.003  0.00  0.00    +0.000 OA
ATOM      2  C   UNL     1       5.726   4.930  16.166  0.00  0.00    +0.000 C 
ATOM      3  N   UNL     1       4.498   4.342  16.431  0.00  0.00    +0.000 N 
ATOM      4  H   UNL     1       4.138   3.728  15.703  0.00  0.00    +0.000 HD
ENDROOT
BRANCH   3   5
ATOM      5  C   UNL     1       3.880   4.397  17.754  0.00  0.00    +0.000 C 
ATOM      6  C   UNL     1       2.357   4.365  17.622  0.00  0.00    +0.000 C 
ATOM      7  C   UNL     1       1.697   4.303  18.988  0.00  0.00    +0.000 C 
ATOM      8  O   UNL     1       2.155   3.160  19.706  0.00  0.00    +0.000 OA
ATOM      9  C   UNL     1       3.553   3.226  19.977  0.00  0.00    +0.000 C 
ATOM     10  C   UNL     1       4.386   3.272  18.693  0.00  0.00    +0.000 C 
BRANCH  10  11
ATOM     11  O   UNL     1       5.762   3.430  19.048  0.00  0.00    +0.000 OA
ATOM     12  H   UNL     1       5.812   3.998  19.840  0.00  0.00    +0.000 HD
ENDBRANCH  10  11
ENDBRANCH   3   5
BRANCH   2  13
ATOM     13  C   UNL     1       6.260   4.723  14.784  0.00  0.00    +0.000 A 
ATOM     14  C   UNL     1       5.602   3.835  13.939  0.00  0.00    +0.000 A 
ATOM     15  C   UNL     1       6.118   3.623  12.666  0.00  0.00    +0.000 A 
ATOM     16  C   UNL     1       7.273   4.294  12.282  0.00  0.00    +0.000 A 
ATOM     17  C   UNL     1       7.866   5.160  13.191  0.00  0.00    +0.000 A 
ATOM     18  N   UNL     1       7.390   5.401  14.436  0.00  0.00    +0.000 NA
ENDBRANCH   2  13
TORSDOF 3
ENDMDL
MODEL 4
REMARK VINA RESULT:      -6.6      3.076      6.572
REMARK  Name = 
REMARK  3 active torsions:
REMARK  status: ('A' for Active; 'I' for Inactive)
REMARK    1  A    between atoms: C_2  and  C_11
REMARK    2  A    between atoms: N_3  and  C_4
REMARK    3  A    between atoms: C_9  and  O_10
REMARK                            x       y       z     vdW  Elec       q    Type
REMARK                         _______ _______ _______ _____ _____    ______ ____
ROOT
ATOM      1  O   UNL     1       3.367   5.303  19.570  0.00  0.00    +0.000 OA
ATOM      2  C   UNL     1       3.389   6.264  18.810  0.00  0.00    +0.000 C 
ATOM      3  N   UNL     1       4.248   6.331  17.723  0.00  0.00    +0.000 N 
ATOM      4  H   UNL     1       4.261   7.219  17.226  0.00  0.00    +0.000 HD
ENDROOT
BRANCH   3   5
ATOM      5  C   UNL     1       5.245   5.296  17.455  0.00  0.00    +0.000 C 
ATOM      6  C   UNL     1       5.491   5.184  15.949  0.00  0.00    +0.000 C 
ATOM      7  C   UNL     1       6.607   4.196  15.657  0.00  0.00    +0.000 C 
ATOM      8  O   UNL     1       7.803   4.591  16.325  0.00  0.00    +0.000 OA
ATOM      9  C   UNL     1       7.653   4.565  17.743  0.00  0.00    +0.000 C 
ATOM     10  C   UNL     1       6.569   5.533  18.225  0.00  0.00    +0.000 C 
BRANCH  10  11
ATOM     11  O   UNL     1       6.418   5.381  19.638  0.00  0.00    +0.000 OA
ATOM     12  H   UNL     1       6.352   6.268  20.038  0.00  0.00    +0.000 HD
ENDBRANCH  10  11
ENDBRANCH   3   5
BRANCH   2  13
ATOM     13  C   UNL     1       2.478   7.436  18.990  0.00  0.00    +0.000 A 
ATOM     14  C   UNL     1       2.224   8.260  17.898  0.00  0.00    +0.000 A 
ATOM     15  C   UNL     1       1.400   9.365  18.076  0.00  0.00    +0.000 A 
ATOM     16  C   UNL     1       0.866   9.616  19.335  0.00  0.00    +0.000 A 
ATOM     17  C   UNL     1       1.175   8.743  20.370  0.00  0.00    +0.000 A 
ATOM     18  N   UNL     1       1.966   7.651  20.234  0.00  0.00    +0.000 NA
ENDBRANCH   2  13
TORSDOF 3
ENDMDL
MODEL 5
REMARK VINA RESULT:      -6.6      1.034      1.073
REMARK  Name = 
REMARK  3 active torsions:
REMARK  status: ('A' for Active; 'I' for Inactive)
REMARK    1  A    between atoms: C_2  and  C_11
REMARK    2  A    between atoms: N_3  and  C_4
REMARK    3  A    between atoms: C_9  and  O_10
REMARK                            x       y       z     vdW  Elec       q    Type
REMARK                         _______ _______ _______ _____ _____    ______ ____
ROOT
ATOM      1  O   UNL     1       6.947   6.045  16.714  0.00  0.00    +0.000 OA
ATOM      2  C   UNL     1       6.167   5.382  16.041  0.00  0.00    +0.000 C 
ATOM      3  N   UNL     1       4.921   4.996  16.513  0.00  0.00    +0.000 N 
ATOM      4  H   UNL     1       4.403   4.356  15.915  0.00  0.00    +0.000 HD
ENDROOT
BRANCH   3   5
ATOM      5  C   UNL     1       4.484   5.285  17.878  0.00  0.00    +0.000 C 
ATOM      6  C   UNL     1       3.304   6.258  17.854  0.00  0.00    +0.000 C 
ATOM      7  C   UNL     1       2.760   6.480  19.255  0.00  0.00    +0.000 C 
ATOM      8  O   UNL     1       2.366   5.238  19.834  0.00  0.00    +0.000 OA
ATOM      9  C   UNL     1       3.473   4.356  20.006  0.00  0.00    +0.000 C 
ATOM     10  C   UNL     1       4.138   4.001  18.674  0.00  0.00    +0.000 C 
BRANCH  10  11
ATOM     11  O   UNL     1       5.287   3.193  18.941  0.00  0.00    +0.000 OA
ATOM     12  H   UNL     1       6.077   3.665  18.620  0.00  0.00    +0.000 HD
ENDBRANCH  10  11
ENDBRANCH   3   5
BRANCH   2  13
ATOM     13  C   UNL     1       6.496   4.948  14.648  0.00  0.00    +0.000 A 
ATOM     14  C   UNL     1       5.680   4.004  14.031  0.00  0.00    +0.000 A 
ATOM     15  C   UNL     1       6.005   3.582  12.747  0.00  0.00    +0.000 A 
ATOM     16  C   UNL     1       7.133   4.105  12.127  0.00  0.00    +0.000 A 
ATOM     17  C   UNL     1       7.893   5.041  12.817  0.00  0.00    +0.000 A 
ATOM     18  N   UNL     1       7.604   5.485  14.065  0.00  0.00    +0.000 NA
ENDBRANCH   2  13
TORSDOF 3
ENDMDL
MODEL 6
REMARK VINA RESULT:      -6.4      2.343      6.596
REMARK  Name = 
REMARK  3 active torsions:
REMARK  status: ('A' for Active; 'I' for Inactive)
REMARK    1  A    between atoms: C_2  and  C_11
REMARK    2  A    between atoms: N_3  and  C_4
REMARK    3  A    between atoms: C_9  and  O_10
REMARK                            x       y       z     vdW  Elec       q    Type
REMARK                         _______ _______ _______ _____ _____    ______ ____
ROOT
ATOM      1  O   UNL     1       3.927   1.670  17.559  0.00  0.00    +0.000 OA
ATOM      2  C   UNL     1       3.801   2.720  18.179  0.00  0.00    +0.000 C 
ATOM      3  N   UNL     1       4.476   3.878  17.823  0.00  0.00    +0.000 N 
ATOM      4  H   UNL     1       4.384   4.657  18.471  0.00  0.00    +0.000 HD
ENDROOT
BRANCH   3   5
ATOM      5  C   UNL     1       5.449   3.906  16.733  0.00  0.00    +0.000 C 
ATOM      6  C   UNL     1       4.776   4.377  15.443  0.00  0.00    +0.000 C 
ATOM      7  C   UNL     1       5.794   4.526  14.326  0.00  0.00    +0.000 C 
ATOM      8  O   UNL     1       6.819   5.439  14.710  0.00  0.00    +0.000 OA
ATOM      9  C   UNL     1       7.567   4.959  15.826  0.00  0.00    +0.000 C 
ATOM     10  C   UNL     1       6.691   4.772  17.067  0.00  0.00    +0.000 C 
BRANCH  10  11
ATOM     11  O   UNL     1       7.491   4.206  18.108  0.00  0.00    +0.000 OA
ATOM     12  H   UNL     1       7.118   4.479  18.966  0.00  0.00    +0.000 HD
ENDBRANCH  10  11
ENDBRANCH   3   5
BRANCH   2  13
ATOM     13  C   UNL     1       2.894   2.835  19.362  0.00  0.00    +0.000 A 
ATOM     14  C   UNL     1       1.592   3.285  19.166  0.00  0.00    +0.000 A 
ATOM     15  C   UNL     1       0.761   3.418  20.273  0.00  0.00    +0.000 A 
ATOM     16  C   UNL     1       1.256   3.107  21.534  0.00  0.00    +0.000 A 
ATOM     17  C   UNL     1       2.570   2.668  21.638  0.00  0.00    +0.000 A 
ATOM     18  N   UNL     1       3.407   2.516  20.584  0.00  0.00    +0.000 NA
ENDBRANCH   2  13
TORSDOF 3
ENDMDL
MODEL 7
REMARK VINA RESULT:      -6.3      1.692      2.206
REMARK  Name = 
REMARK  3 active torsions:
REMARK  status: ('A' for Active; 'I' for Inactive)
REMARK    1  A    between atoms: C_2  and  C_11
REMARK    2  A    between atoms: N_3  and  C_4
REMARK    3  A    between atoms: C_9  and  O_10
REMARK                            x       y       z     vdW  Elec       q    Type
REMARK                         _______ _______ _______ _____ _____    ______ ____
ROOT
ATOM      1  O   UNL     1       6.035   4.204  18.885  0.00  0.00    +0.000 OA
ATOM      2  C   UNL     1       5.338   4.210  17.877  0.00  0.00    +0.000 C 
ATOM      3  N   UNL     1       3.962   4.034  17.925  0.00  0.00    +0.000 N 
ATOM      4  H   UNL     1       3.499   3.944  17.023  0.00  0.00    +0.000 HD
ENDROOT
BRANCH   3   5
ATOM      5  C   UNL     1       3.259   3.749  19.174  0.00  0.00    +0.000 C 
ATOM      6  C   UNL     1       2.829   5.056  19.842  0.00  0.00    +0.000 C 
ATOM      7  C   UNL     1       1.995   4.780  21.081  0.00  0.00    +0.000 C 
ATOM      8  O   UNL     1       0.852   3.999  20.742  0.00  0.00    +0.000 OA
ATOM      9  C   UNL     1       1.214   2.711  20.250  0.00  0.00    +0.000 C 
ATOM     10  C   UNL     1       2.052   2.798  18.971  0.00  0.00    +0.000 C 
BRANCH  10  11
ATOM     11  O   UNL     1       2.449   1.477  18.596  0.00  0.00    +0.000 OA
ATOM     12  H   UNL     1       2.294   1.369  17.639  0.00  0.00    +0.000 HD
ENDBRANCH  10  11
ENDBRANCH   3   5
BRANCH   2  13
ATOM     13  C   UNL     1       5.918   4.420  16.515  0.00  0.00    +0.000 A 
ATOM     14  C   UNL     1       5.186   4.008  15.406  0.00  0.00    +0.000 A 
ATOM     15  C   UNL     1       5.741   4.179  14.142  0.00  0.00    +0.000 A 
ATOM     16  C   UNL     1       7.006   4.744  14.029  0.00  0.00    +0.000 A 
ATOM     17  C   UNL     1       7.667   5.123  15.190  0.00  0.00    +0.000 A 
ATOM     18  N   UNL     1       7.157   4.982  16.437  0.00  0.00    +0.000 NA
ENDBRANCH   2  13
TORSDOF 3
ENDMDL
MODEL 8
REMARK VINA RESULT:      -6.3      2.982      6.541
REMARK  Name = 
REMARK  3 active torsions:
REMARK  status: ('A' for Active; 'I' for Inactive)
REMARK    1  A    between atoms: C_2  and  C_11
REMARK    2  A    between atoms: N_3  and  C_4
REMARK    3  A    between atoms: C_9  and  O_10
REMARK                            x       y       z     vdW  Elec       q    Type
REMARK                         _______ _______ _______ _____ _____    ______ ____
ROOT
ATOM      1  O   UNL     1       2.972   5.237  18.820  0.00  0.00    +0.000 OA
ATOM      2  C   UNL     1       3.251   6.343  18.371  0.00  0.00    +0.000 C 
ATOM      3  N   UNL     1       4.322   6.547  17.513  0.00  0.00    +0.000 N 
ATOM      4  H   UNL     1       4.529   7.519  17.292  0.00  0.00    +0.000 HD
ENDROOT
BRANCH   3   5
ATOM      5  C   UNL     1       5.241   5.472  17.148  0.00  0.00    +0.000 C 
ATOM      6  C   UNL     1       5.622   5.588  15.672  0.00  0.00    +0.000 C 
ATOM      7  C   UNL     1       6.667   4.550  15.300  0.00  0.00    +0.000 C 
ATOM      8  O   UNL     1       7.823   4.698  16.122  0.00  0.00    +0.000 OA
ATOM      9  C   UNL     1       7.533   4.451  17.496  0.00  0.00    +0.000 C 
ATOM     10  C   UNL     1       6.500   5.435  18.052  0.00  0.00    +0.000 C 
BRANCH  10  11
ATOM     11  O   UNL     1       6.199   5.065  19.400  0.00  0.00    +0.000 OA
ATOM     12  H   UNL     1       6.201   4.092  19.459  0.00  0.00    +0.000 HD
ENDBRANCH  10  11
ENDBRANCH   3   5
BRANCH   2  13
ATOM     13  C   UNL     1       2.447   7.558  18.707  0.00  0.00    +0.000 A 
ATOM     14  C   UNL     1       1.945   7.692  19.998  0.00  0.00    +0.000 A 
ATOM     15  C   UNL     1       1.173   8.809  20.298  0.00  0.00    +0.000 A 
ATOM     16  C   UNL     1       0.921   9.746  19.303  0.00  0.00    +0.000 A 
ATOM     17  C   UNL     1       1.459   9.530  18.041  0.00  0.00    +0.000 A 
ATOM     18  N   UNL     1       2.223   8.461  17.712  0.00  0.00    +0.000 NA
ENDBRANCH   2  13
TORSDOF 3
ENDMDL
MODEL 9
REMARK VINA RESULT:      -6.3      3.646      4.164
REMARK  Name = 
REMARK  3 active torsions:
REMARK  status: ('A' for Active; 'I' for Inactive)
REMARK    1  A    between atoms: C_2  and  C_11
REMARK    2  A    between atoms: N_3  and  C_4
REMARK    3  A    between atoms: C_9  and  O_10
REMARK                            x       y       z     vdW  Elec       q    Type
REMARK                         _______ _______ _______ _____ _____    ______ ____
ROOT
ATOM      1  O   UNL     1       5.685   3.239  19.222  0.00  0.00    +0.000 OA
ATOM      2  C   UNL     1       5.235   4.352  18.980  0.00  0.00    +0.000 C 
ATOM      3  N   UNL     1       3.883   4.645  19.082  0.00  0.00    +0.000 N 
ATOM      4  H   UNL     1       3.606   5.566  18.751  0.00  0.00    +0.000 HD
ENDROOT
BRANCH   3   5
ATOM      5  C   UNL     1       2.889   3.623  19.407  0.00  0.00    +0.000 C 
ATOM      6  C   UNL     1       2.324   3.870  20.807  0.00  0.00    +0.000 C 
ATOM      7  C   UNL     1       1.206   2.889  21.118  0.00  0.00    +0.000 C 
ATOM      8  O   UNL     1       0.173   2.992  20.142  0.00  0.00    +0.000 OA
ATOM      9  C   UNL     1       0.630   2.626  18.842  0.00  0.00    +0.000 C 
ATOM     10  C   UNL     1       1.758   3.538  18.351  0.00  0.00    +0.000 C 
BRANCH  10  11
ATOM     11  O   UNL     1       2.220   3.051  17.089  0.00  0.00    +0.000 OA
ATOM     12  H   UNL     1       3.160   3.290  16.991  0.00  0.00    +0.000 HD
ENDBRANCH  10  11
ENDBRANCH   3   5
BRANCH   2  13
ATOM     13  C   UNL     1       6.115   5.488  18.567  0.00  0.00    +0.000 A 
ATOM     14  C   UNL     1       5.682   6.334  17.550  0.00  0.00    +0.000 A 
ATOM     15  C   UNL     1       6.516   7.372  17.149  0.00  0.00    +0.000 A 
ATOM     16  C   UNL     1       7.752   7.526  17.767  0.00  0.00    +0.000 A 
ATOM     17  C   UNL     1       8.104   6.634  18.771  0.00  0.00    +0.000 A 
ATOM     18  N   UNL     1       7.317   5.616  19.196  0.00  0.00    +0.000 NA
ENDBRANCH   2  13
TORSDOF 3
ENDMDL
