MODEL 1
REMARK VINA RESULT:      -7.4      0.000      0.000
REMARK  Name = 
REMARK  11 active torsions:
REMARK  status: ('A' for Active; 'I' for Inactive)
REMARK    1  A    between atoms: C_1  and  O_2
REMARK    2  A    between atoms: O_2  and  C_3
REMARK    3  A    between atoms: C_5  and  C_6
REMARK    4  A    between atoms: C_6  and  C_7
REMARK    5  A    between atoms: C_11  and  O_12
REMARK    6  A    between atoms: O_12  and  C_13
REMARK    7  A    between atoms: C_13  and  C_14
REMARK    8  A    between atoms: C_14  and  C_15
REMARK    9  A    between atoms: C_15  and  N_16
REMARK   10  A    between atoms: N_19  and  C_20
REMARK   11  A    between atoms: C_20  and  C_21
REMARK                            x       y       z     vdW  Elec       q    Type
REMARK                         _______ _______ _______ _____ _____    ______ ____
ROOT
ATOM      1  C   UNL     1       8.125   9.058  17.690  0.00  0.00    +0.000 C 
ENDROOT
BRANCH   1   2
ATOM      2  C   UNL     1       8.715   9.648  18.966  0.00  0.00    +0.000 C 
BRANCH   2   3
ATOM      3  O   UNL     1       9.889  10.396  18.672  0.00  0.00    +0.000 OA
BRANCH   3   9
ATOM      4  C   UNL     1      10.362  12.857  18.775  0.00  0.00    +0.000 A 
ATOM      5  C   UNL     1      10.367  13.995  19.594  0.00  0.00    +0.000 A 
ATOM      6  C   UNL     1      10.141  13.882  20.964  0.00  0.00    +0.000 A 
ATOM      7  C   UNL     1       9.860  12.630  21.517  0.00  0.00    +0.000 A 
ATOM      8  C   UNL     1       9.778  11.506  20.692  0.00  0.00    +0.000 A 
ATOM      9  C   UNL     1      10.018  11.605  19.316  0.00  0.00    +0.000 A 
BRANCH   6  10
ATOM     10  C   UNL     1      10.240  15.061  21.862  0.00  0.00    +0.000 C 
ATOM     11  C   UNL     1      11.083  16.241  21.448  0.00  0.00    +0.000 C 
ATOM     12  O   UNL     1       9.654  15.046  22.943  0.00  0.00    +0.000 OA
ENDBRANCH   6  10
BRANCH   4  14
ATOM     13  C   UNL     1      11.199  14.269  17.074  0.00  0.00    +0.000 C 
ATOM     14  O   UNL     1      10.635  13.008  17.441  0.00  0.00    +0.000 OA
ENDBRANCH   4  14
ENDBRANCH   3   9
ENDBRANCH   2   3
ENDBRANCH   1   2
BRANCH   1  15
ATOM     15  C   UNL     1       7.812   7.571  17.888  0.00  0.00    +0.000 C 
BRANCH  15  16
ATOM     16  N   UNL     1       6.757   7.074  16.985  0.00  0.00    +0.000 NA
ATOM     17  C   UNL     1       7.164   5.879  16.217  0.00  0.00    +0.000 C 
ATOM     18  C   UNL     1       7.162   4.551  17.016  0.00  0.00    +0.000 C 
ATOM     19  N   UNL     1       5.917   4.281  17.772  0.00  0.00    +0.000 NA
ATOM     20  C   UNL     1       5.584   5.487  18.563  0.00  0.00    +0.000 C 
ATOM     21  C   UNL     1       5.516   6.784  17.729  0.00  0.00    +0.000 C 
BRANCH  19  22
ATOM     22  C   UNL     1       4.836   3.890  16.845  0.00  0.00    +0.000 C 
BRANCH  22  23
ATOM     23  C   UNL     1       3.561   3.438  17.521  0.00  0.00    +0.000 A 
ATOM     24  C   UNL     1       3.482   2.172  18.109  0.00  0.00    +0.000 A 
ATOM     25  C   UNL     1       2.311   1.757  18.747  0.00  0.00    +0.000 A 
ATOM     26  C   UNL     1       1.205   2.603  18.795  0.00  0.00    +0.000 A 
ATOM     27  C   UNL     1       1.266   3.861  18.195  0.00  0.00    +0.000 A 
ATOM     28  C   UNL     1       2.437   4.279  17.562  0.00  0.00    +0.000 A 
ENDBRANCH  22  23
ENDBRANCH  19  22
ENDBRANCH  15  16
ENDBRANCH   1  15
TORSDOF 9
ENDMDL
MODEL 2
REMARK VINA RESULT:      -7.1      7.791     11.344
REMARK  Name = 
REMARK  11 active torsions:
REMARK  status: ('A' for Active; 'I' for Inactive)
REMARK    1  A    between atoms: C_1  and  O_2
REMARK    2  A    between atoms: O_2  and  C_3
REMARK    3  A    between atoms: C_5  and  C_6
REMARK    4  A    between atoms: C_6  and  C_7
REMARK    5  A    between atoms: C_11  and  O_12
REMARK    6  A    between atoms: O_12  and  C_13
REMARK    7  A    between atoms: C_13  and  C_14
REMARK    8  A    between atoms: C_14  and  C_15
REMARK    9  A    between atoms: C_15  and  N_16
REMARK   10  A    between atoms: N_19  and  C_20
REMARK   11  A    between atoms: C_20  and  C_21
REMARK                            x       y       z     vdW  Elec       q    Type
REMARK                         _______ _______ _______ _____ _____    ______ ____
ROOT
ATOM      1  C   UNL     1       1.552   7.209  20.543  0.00  0.00    +0.000 C 
ENDROOT
BRANCH   1   2
ATOM      2  C   UNL     1       2.645   7.038  19.494  0.00  0.00    +0.000 C 
BRANCH   2   3
ATOM      3  O   UNL     1       2.352   5.934  18.647  0.00  0.00    +0.000 OA
BRANCH   3   9
ATOM      4  C   UNL     1       3.906   4.142  17.831  0.00  0.00    +0.000 A 
ATOM      5  C   UNL     1       4.937   3.834  16.932  0.00  0.00    +0.000 A 
ATOM      6  C   UNL     1       5.538   4.837  16.173  0.00  0.00    +0.000 A 
ATOM      7  C   UNL     1       5.075   6.151  16.277  0.00  0.00    +0.000 A 
ATOM      8  C   UNL     1       3.998   6.448  17.114  0.00  0.00    +0.000 A 
ATOM      9  C   UNL     1       3.395   5.452  17.891  0.00  0.00    +0.000 A 
BRANCH   6  10
ATOM     10  C   UNL     1       6.696   4.548  15.290  0.00  0.00    +0.000 C 
ATOM     11  C   UNL     1       6.455   4.125  13.863  0.00  0.00    +0.000 C 
ATOM     12  O   UNL     1       7.836   4.631  15.745  0.00  0.00    +0.000 OA
ENDBRANCH   6  10
BRANCH   4  14
ATOM     13  C   UNL     1       3.431   1.832  17.999  0.00  0.00    +0.000 C 
ATOM     14  O   UNL     1       3.375   3.132  18.590  0.00  0.00    +0.000 OA
ENDBRANCH   4  14
ENDBRANCH   3   9
ENDBRANCH   2   3
ENDBRANCH   1   2
BRANCH   1  15
ATOM     15  C   UNL     1       1.296   8.698  20.805  0.00  0.00    +0.000 C 
BRANCH  15  16
ATOM     16  N   UNL     1      -0.134   9.025  20.949  0.00  0.00    +0.000 NA
ATOM     17  C   UNL     1      -0.633   8.857  22.330  0.00  0.00    +0.000 C 
ATOM     18  C   UNL     1      -0.234   9.985  23.316  0.00  0.00    +0.000 C 
ATOM     19  N   UNL     1      -0.503  11.359  22.831  0.00  0.00    +0.000 NA
ATOM     20  C   UNL     1       0.062  11.490  21.470  0.00  0.00    +0.000 C 
ATOM     21  C   UNL     1      -0.413  10.399  20.487  0.00  0.00    +0.000 C 
BRANCH  19  22
ATOM     22  C   UNL     1      -1.952  11.637  22.877  0.00  0.00    +0.000 C 
BRANCH  22  23
ATOM     23  C   UNL     1      -2.317  12.986  23.458  0.00  0.00    +0.000 A 
ATOM     24  C   UNL     1      -1.324  13.937  23.713  0.00  0.00    +0.000 A 
ATOM     25  C   UNL     1      -1.658  15.189  24.234  0.00  0.00    +0.000 A 
ATOM     26  C   UNL     1      -2.988  15.497  24.512  0.00  0.00    +0.000 A 
ATOM     27  C   UNL     1      -3.985  14.549  24.279  0.00  0.00    +0.000 A 
ATOM     28  C   UNL     1      -3.653  13.299  23.754  0.00  0.00    +0.000 A 
ENDBRANCH  22  23
ENDBRANCH  19  22
ENDBRANCH  15  16
ENDBRANCH   1  15
TORSDOF 9
ENDMDL
MODEL 3
REMARK VINA RESULT:      -7.1      1.246      2.397
REMARK  Name = 
REMARK  11 active torsions:
REMARK  status: ('A' for Active; 'I' for Inactive)
REMARK    1  A    between atoms: C_1  and  O_2
REMARK    2  A    between atoms: O_2  and  C_3
REMARK    3  A    between atoms: C_5  and  C_6
REMARK    4  A    between atoms: C_6  and  C_7
REMARK    5  A    between atoms: C_11  and  O_12
REMARK    6  A    between atoms: O_12  and  C_13
REMARK    7  A    between atoms: C_13  and  C_14
REMARK    8  A    between atoms: C_14  and  C_15
REMARK    9  A    between atoms: C_15  and  N_16
REMARK   10  A    between atoms: N_19  and  C_20
REMARK   11  A    between atoms: C_20  and  C_21
REMARK                            x       y       z     vdW  Elec       q    Type
REMARK                         _______ _______ _______ _____ _____    ______ ____
ROOT
ATOM      1  C   UNL     1       7.544   9.050  17.804  0.00  0.00    +0.000 C 
ENDROOT
BRANCH   1   2
ATOM      2  C   UNL     1       8.892   9.760  17.866  0.00  0.00    +0.000 C 
BRANCH   2   3
ATOM      3  O   UNL     1       9.071  10.377  19.135  0.00  0.00    +0.000 OA
BRANCH   3   9
ATOM      4  C   UNL     1       9.547  12.611  20.171  0.00  0.00    +0.000 A 
ATOM      5  C   UNL     1      10.131  13.870  19.974  0.00  0.00    +0.000 A 
ATOM      6  C   UNL     1      10.598  14.246  18.715  0.00  0.00    +0.000 A 
ATOM      7  C   UNL     1      10.525  13.340  17.654  0.00  0.00    +0.000 A 
ATOM      8  C   UNL     1      10.015  12.057  17.865  0.00  0.00    +0.000 A 
ATOM      9  C   UNL     1       9.529  11.674  19.121  0.00  0.00    +0.000 A 
BRANCH   6  10
ATOM     10  C   UNL     1      11.128  15.610  18.464  0.00  0.00    +0.000 C 
ATOM     11  C   UNL     1      12.330  16.093  19.235  0.00  0.00    +0.000 C 
ATOM     12  O   UNL     1      10.562  16.336  17.649  0.00  0.00    +0.000 OA
ENDBRANCH   6  10
BRANCH   4  14
ATOM     13  C   UNL     1       9.105  13.365  22.367  0.00  0.00    +0.000 C 
ATOM     14  O   UNL     1       9.060  12.302  21.413  0.00  0.00    +0.000 OA
ENDBRANCH   4  14
ENDBRANCH   3   9
ENDBRANCH   2   3
ENDBRANCH   1   2
BRANCH   1  15
ATOM     15  C   UNL     1       7.745   7.547  17.580  0.00  0.00    +0.000 C 
BRANCH  15  16
ATOM     16  N   UNL     1       6.724   6.950  16.699  0.00  0.00    +0.000 NA
ATOM     17  C   UNL     1       7.131   5.644  16.138  0.00  0.00    +0.000 C 
ATOM     18  C   UNL     1       7.041   4.449  17.121  0.00  0.00    +0.000 C 
ATOM     19  N   UNL     1       5.748   4.326  17.834  0.00  0.00    +0.000 NA
ATOM     20  C   UNL     1       5.414   5.644  18.420  0.00  0.00    +0.000 C 
ATOM     21  C   UNL     1       5.436   6.805  17.403  0.00  0.00    +0.000 C 
BRANCH  19  22
ATOM     22  C   UNL     1       4.707   3.831  16.913  0.00  0.00    +0.000 C 
BRANCH  22  23
ATOM     23  C   UNL     1       3.430   3.380  17.589  0.00  0.00    +0.000 A 
ATOM     24  C   UNL     1       2.288   4.186  17.553  0.00  0.00    +0.000 A 
ATOM     25  C   UNL     1       1.104   3.767  18.163  0.00  0.00    +0.000 A 
ATOM     26  C   UNL     1       1.055   2.540  18.821  0.00  0.00    +0.000 A 
ATOM     27  C   UNL     1       2.193   1.735  18.879  0.00  0.00    +0.000 A 
ATOM     28  C   UNL     1       3.376   2.151  18.266  0.00  0.00    +0.000 A 
ENDBRANCH  22  23
ENDBRANCH  19  22
ENDBRANCH  15  16
ENDBRANCH   1  15
TORSDOF 9
ENDMDL
MODEL 4
REMARK VINA RESULT:      -7.1      0.985      1.647
REMARK  Name = 
REMARK  11 active torsions:
REMARK  status: ('A' for Active; 'I' for Inactive)
REMARK    1  A    between atoms: C_1  and  O_2
REMARK    2  A    between atoms: O_2  and  C_3
REMARK    3  A    between atoms: C_5  and  C_6
REMARK    4  A    between atoms: C_6  and  C_7
REMARK    5  A    between atoms: C_11  and  O_12
REMARK    6  A    between atoms: O_12  and  C_13
REMARK    7  A    between atoms: C_13  and  C_14
REMARK    8  A    between atoms: C_14  and  C_15
REMARK    9  A    between atoms: C_15  and  N_16
REMARK   10  A    between atoms: N_19  and  C_20
REMARK   11  A    between atoms: C_20  and  C_21
REMARK                            x       y       z     vdW  Elec       q    Type
REMARK                         _______ _______ _______ _____ _____    ______ ____
ROOT
ATOM      1  C   UNL     1       8.340   8.326  18.463  0.00  0.00    +0.000 C 
ENDROOT
BRANCH   1   2
ATOM      2  C   UNL     1       8.555   9.827  18.308  0.00  0.00    +0.000 C 
BRANCH   2   3
ATOM      3  O   UNL     1       9.799  10.213  18.879  0.00  0.00    +0.000 OA
BRANCH   3   9
ATOM      4  C   UNL     1      10.253  12.664  19.159  0.00  0.00    +0.000 A 
ATOM      5  C   UNL     1      10.104  13.772  20.005  0.00  0.00    +0.000 A 
ATOM      6  C   UNL     1       9.619  13.614  21.302  0.00  0.00    +0.000 A 
ATOM      7  C   UNL     1       9.234  12.346  21.745  0.00  0.00    +0.000 A 
ATOM      8  C   UNL     1       9.308  11.253  20.879  0.00  0.00    +0.000 A 
ATOM      9  C   UNL     1       9.807  11.397  19.579  0.00  0.00    +0.000 A 
BRANCH   6  10
ATOM     10  C   UNL     1       9.549  14.760  22.244  0.00  0.00    +0.000 C 
ATOM     11  C   UNL     1       8.856  14.587  23.573  0.00  0.00    +0.000 C 
ATOM     12  O   UNL     1      10.034  15.841  21.916  0.00  0.00    +0.000 OA
ENDBRANCH   6  10
BRANCH   4  14
ATOM     13  C   UNL     1      10.707  14.201  17.422  0.00  0.00    +0.000 C 
ATOM     14  O   UNL     1      10.776  12.859  17.909  0.00  0.00    +0.000 OA
ENDBRANCH   4  14
ENDBRANCH   3   9
ENDBRANCH   2   3
ENDBRANCH   1   2
BRANCH   1  15
ATOM     15  C   UNL     1       7.540   7.779  17.275  0.00  0.00    +0.000 C 
BRANCH  15  16
ATOM     16  N   UNL     1       7.371   6.314  17.313  0.00  0.00    +0.000 NA
ATOM     17  C   UNL     1       6.486   5.859  18.405  0.00  0.00    +0.000 C 
ATOM     18  C   UNL     1       4.970   6.068  18.154  0.00  0.00    +0.000 C 
ATOM     19  N   UNL     1       4.481   5.568  16.847  0.00  0.00    +0.000 NA
ATOM     20  C   UNL     1       5.370   6.095  15.787  0.00  0.00    +0.000 C 
ATOM     21  C   UNL     1       6.867   5.805  16.023  0.00  0.00    +0.000 C 
BRANCH  19  22
ATOM     22  C   UNL     1       4.421   4.093  16.861  0.00  0.00    +0.000 C 
BRANCH  22  23
ATOM     23  C   UNL     1       3.362   3.515  17.775  0.00  0.00    +0.000 A 
ATOM     24  C   UNL     1       2.013   3.823  17.578  0.00  0.00    +0.000 A 
ATOM     25  C   UNL     1       1.032   3.279  18.409  0.00  0.00    +0.000 A 
ATOM     26  C   UNL     1       1.394   2.429  19.452  0.00  0.00    +0.000 A 
ATOM     27  C   UNL     1       2.739   2.129  19.670  0.00  0.00    +0.000 A 
ATOM     28  C   UNL     1       3.720   2.668  18.836  0.00  0.00    +0.000 A 
ENDBRANCH  22  23
ENDBRANCH  19  22
ENDBRANCH  15  16
ENDBRANCH   1  15
TORSDOF 9
ENDMDL
MODEL 5
REMARK VINA RESULT:      -7.0      3.380     11.274
REMARK  Name = 
REMARK  11 active torsions:
REMARK  status: ('A' for Active; 'I' for Inactive)
REMARK    1  A    between atoms: C_1  and  O_2
REMARK    2  A    between atoms: O_2  and  C_3
REMARK    3  A    between atoms: C_5  and  C_6
REMARK    4  A    between atoms: C_6  and  C_7
REMARK    5  A    between atoms: C_11  and  O_12
REMARK    6  A    between atoms: O_12  and  C_13
REMARK    7  A    between atoms: C_13  and  C_14
REMARK    8  A    between atoms: C_14  and  C_15
REMARK    9  A    between atoms: C_15  and  N_16
REMARK   10  A    between atoms: N_19  and  C_20
REMARK   11  A    between atoms: C_20  and  C_21
REMARK                            x       y       z     vdW  Elec       q    Type
REMARK                         _______ _______ _______ _____ _____    ______ ____
ROOT
ATOM      1  C   UNL     1       7.673   8.691  17.882  0.00  0.00    +0.000 C 
ENDROOT
BRANCH   1   2
ATOM      2  C   UNL     1       7.884   7.251  18.336  0.00  0.00    +0.000 C 
BRANCH   2   3
ATOM      3  O   UNL     1       7.813   6.365  17.225  0.00  0.00    +0.000 OA
BRANCH   3   9
ATOM      4  C   UNL     1       5.954   5.187  16.020  0.00  0.00    +0.000 A 
ATOM      5  C   UNL     1       4.881   4.295  16.152  0.00  0.00    +0.000 A 
ATOM      6  C   UNL     1       4.470   3.861  17.411  0.00  0.00    +0.000 A 
ATOM      7  C   UNL     1       5.166   4.284  18.547  0.00  0.00    +0.000 A 
ATOM      8  C   UNL     1       6.283   5.111  18.414  0.00  0.00    +0.000 A 
ATOM      9  C   UNL     1       6.696   5.565  17.155  0.00  0.00    +0.000 A 
BRANCH   6  10
ATOM     10  C   UNL     1       3.275   2.996  17.577  0.00  0.00    +0.000 C 
ATOM     11  C   UNL     1       3.392   1.710  18.356  0.00  0.00    +0.000 C 
ATOM     12  O   UNL     1       2.213   3.329  17.055  0.00  0.00    +0.000 OA
ENDBRANCH   6  10
BRANCH   4  14
ATOM     13  C   UNL     1       6.842   4.625  13.903  0.00  0.00    +0.000 C 
ATOM     14  O   UNL     1       6.295   5.624  14.767  0.00  0.00    +0.000 OA
ENDBRANCH   4  14
ENDBRANCH   3   9
ENDBRANCH   2   3
ENDBRANCH   1   2
BRANCH   1  15
ATOM     15  C   UNL     1       8.928   9.526  18.165  0.00  0.00    +0.000 C 
BRANCH  15  16
ATOM     16  N   UNL     1       8.639  10.785  18.877  0.00  0.00    +0.000 NA
ATOM     17  C   UNL     1       9.491  10.988  20.068  0.00  0.00    +0.000 C 
ATOM     18  C   UNL     1      10.943  11.443  19.768  0.00  0.00    +0.000 C 
ATOM     19  N   UNL     1      11.056  12.597  18.846  0.00  0.00    +0.000 NA
ATOM     20  C   UNL     1      10.228  12.319  17.651  0.00  0.00    +0.000 C 
ATOM     21  C   UNL     1       8.766  11.945  17.974  0.00  0.00    +0.000 C 
BRANCH  19  22
ATOM     22  C   UNL     1      10.659  13.839  19.539  0.00  0.00    +0.000 C 
BRANCH  22  23
ATOM     23  C   UNL     1      10.861  15.102  18.731  0.00  0.00    +0.000 A 
ATOM     24  C   UNL     1       9.764  15.884  18.355  0.00  0.00    +0.000 A 
ATOM     25  C   UNL     1       9.948  17.059  17.623  0.00  0.00    +0.000 A 
ATOM     26  C   UNL     1      11.231  17.457  17.254  0.00  0.00    +0.000 A 
ATOM     27  C   UNL     1      12.331  16.676  17.608  0.00  0.00    +0.000 A 
ATOM     28  C   UNL     1      12.149  15.504  18.343  0.00  0.00    +0.000 A 
ENDBRANCH  22  23
ENDBRANCH  19  22
ENDBRANCH  15  16
ENDBRANCH   1  15
TORSDOF 9
ENDMDL
MODEL 6
REMARK VINA RESULT:      -6.9      3.472     11.216
REMARK  Name = 
REMARK  11 active torsions:
REMARK  status: ('A' for Active; 'I' for Inactive)
REMARK    1  A    between atoms: C_1  and  O_2
REMARK    2  A    between atoms: O_2  and  C_3
REMARK    3  A    between atoms: C_5  and  C_6
REMARK    4  A    between atoms: C_6  and  C_7
REMARK    5  A    between atoms: C_11  and  O_12
REMARK    6  A    between atoms: O_12  and  C_13
REMARK    7  A    between atoms: C_13  and  C_14
REMARK    8  A    between atoms: C_14  and  C_15
REMARK    9  A    between atoms: C_15  and  N_16
REMARK   10  A    between atoms: N_19  and  C_20
REMARK   11  A    between atoms: C_20  and  C_21
REMARK                            x       y       z     vdW  Elec       q    Type
REMARK                         _______ _______ _______ _____ _____    ______ ____
ROOT
ATOM      1  C   UNL     1       8.002   9.426  17.829  0.00  0.00    +0.000 C 
ENDROOT
BRANCH   1   2
ATOM      2  C   UNL     1       7.988   7.903  17.882  0.00  0.00    +0.000 C 
BRANCH   2   3
ATOM      3  O   UNL     1       7.446   7.368  16.680  0.00  0.00    +0.000 OA
BRANCH   3   9
ATOM      4  C   UNL     1       6.349   5.159  16.224  0.00  0.00    +0.000 A 
ATOM      5  C   UNL     1       5.287   4.310  16.564  0.00  0.00    +0.000 A 
ATOM      6  C   UNL     1       4.270   4.749  17.410  0.00  0.00    +0.000 A 
ATOM      7  C   UNL     1       4.338   6.032  17.961  0.00  0.00    +0.000 A 
ATOM      8  C   UNL     1       5.434   6.852  17.686  0.00  0.00    +0.000 A 
ATOM      9  C   UNL     1       6.453   6.427  16.826  0.00  0.00    +0.000 A 
BRANCH   6  10
ATOM     10  C   UNL     1       3.088   3.901  17.702  0.00  0.00    +0.000 C 
ATOM     11  C   UNL     1       2.704   3.628  19.135  0.00  0.00    +0.000 C 
ATOM     12  O   UNL     1       2.453   3.410  16.770  0.00  0.00    +0.000 OA
ENDBRANCH   6  10
BRANCH   4  14
ATOM     13  C   UNL     1       6.801   4.210  14.107  0.00  0.00    +0.000 C 
ATOM     14  O   UNL     1       7.301   4.701  15.352  0.00  0.00    +0.000 OA
ENDBRANCH   4  14
ENDBRANCH   3   9
ENDBRANCH   2   3
ENDBRANCH   1   2
BRANCH   1  15
ATOM     15  C   UNL     1       9.033   9.982  18.818  0.00  0.00    +0.000 C 
BRANCH  15  16
ATOM     16  N   UNL     1       9.941  10.975  18.214  0.00  0.00    +0.000 NA
ATOM     17  C   UNL     1       9.260  12.230  17.831  0.00  0.00    +0.000 C 
ATOM     18  C   UNL     1       8.932  13.185  19.007  0.00  0.00    +0.000 C 
ATOM     19  N   UNL     1      10.069  13.468  19.915  0.00  0.00    +0.000 NA
ATOM     20  C   UNL     1      10.680  12.179  20.308  0.00  0.00    +0.000 C 
ATOM     21  C   UNL     1      11.068  11.279  19.116  0.00  0.00    +0.000 C 
BRANCH  19  22
ATOM     22  C   UNL     1      11.028  14.377  19.257  0.00  0.00    +0.000 C 
BRANCH  22  23
ATOM     23  C   UNL     1      10.493  15.766  18.985  0.00  0.00    +0.000 A 
ATOM     24  C   UNL     1       9.991  16.547  20.029  0.00  0.00    +0.000 A 
ATOM     25  C   UNL     1       9.511  17.836  19.785  0.00  0.00    +0.000 A 
ATOM     26  C   UNL     1       9.523  18.350  18.490  0.00  0.00    +0.000 A 
ATOM     27  C   UNL     1      10.005  17.573  17.437  0.00  0.00    +0.000 A 
ATOM     28  C   UNL     1      10.489  16.287  17.681  0.00  0.00    +0.000 A 
ENDBRANCH  22  23
ENDBRANCH  19  22
ENDBRANCH  15  16
ENDBRANCH   1  15
TORSDOF 9
ENDMDL
MODEL 7
REMARK VINA RESULT:      -6.9      3.443     11.366
REMARK  Name = 
REMARK  11 active torsions:
REMARK  status: ('A' for Active; 'I' for Inactive)
REMARK    1  A    between atoms: C_1  and  O_2
REMARK    2  A    between atoms: O_2  and  C_3
REMARK    3  A    between atoms: C_5  and  C_6
REMARK    4  A    between atoms: C_6  and  C_7
REMARK    5  A    between atoms: C_11  and  O_12
REMARK    6  A    between atoms: O_12  and  C_13
REMARK    7  A    between atoms: C_13  and  C_14
REMARK    8  A    between atoms: C_14  and  C_15
REMARK    9  A    between atoms: C_15  and  N_16
REMARK   10  A    between atoms: N_19  and  C_20
REMARK   11  A    between atoms: C_20  and  C_21
REMARK                            x       y       z     vdW  Elec       q    Type
REMARK                         _______ _______ _______ _____ _____    ______ ____
ROOT
ATOM      1  C   UNL     1       8.373   8.776  18.322  0.00  0.00    +0.000 C 
ENDROOT
BRANCH   1   2
ATOM      2  C   UNL     1       7.178   8.260  17.531  0.00  0.00    +0.000 C 
BRANCH   2   3
ATOM      3  O   UNL     1       7.484   7.010  16.925  0.00  0.00    +0.000 OA
BRANCH   3   9
ATOM      4  C   UNL     1       6.398   4.866  16.207  0.00  0.00    +0.000 A 
ATOM      5  C   UNL     1       5.321   3.994  16.419  0.00  0.00    +0.000 A 
ATOM      6  C   UNL     1       4.275   4.353  17.268  0.00  0.00    +0.000 A 
ATOM      7  C   UNL     1       4.326   5.573  17.948  0.00  0.00    +0.000 A 
ATOM      8  C   UNL     1       5.434   6.409  17.798  0.00  0.00    +0.000 A 
ATOM      9  C   UNL     1       6.484   6.066  16.938  0.00  0.00    +0.000 A 
BRANCH   6  10
ATOM     10  C   UNL     1       3.079   3.488  17.428  0.00  0.00    +0.000 C 
ATOM     11  C   UNL     1       3.253   2.054  17.863  0.00  0.00    +0.000 C 
ATOM     12  O   UNL     1       1.966   3.946  17.177  0.00  0.00    +0.000 OA
ENDBRANCH   6  10
BRANCH   4  14
ATOM     13  C   UNL     1       7.157   4.866  13.969  0.00  0.00    +0.000 C 
ATOM     14  O   UNL     1       7.381   4.492  15.330  0.00  0.00    +0.000 OA
ENDBRANCH   4  14
ENDBRANCH   3   9
ENDBRANCH   2   3
ENDBRANCH   1   2
BRANCH   1  15
ATOM     15  C   UNL     1       8.850  10.117  17.751  0.00  0.00    +0.000 C 
BRANCH  15  16
ATOM     16  N   UNL     1       8.875  11.199  18.753  0.00  0.00    +0.000 NA
ATOM     17  C   UNL     1      10.024  11.107  19.679  0.00  0.00    +0.000 C 
ATOM     18  C   UNL     1      11.383  11.565  19.090  0.00  0.00    +0.000 C 
ATOM     19  N   UNL     1      11.358  12.889  18.424  0.00  0.00    +0.000 NA
ATOM     20  C   UNL     1      10.225  12.908  17.472  0.00  0.00    +0.000 C 
ATOM     21  C   UNL     1       8.870  12.524  18.102  0.00  0.00    +0.000 C 
BRANCH  19  22
ATOM     22  C   UNL     1      11.273  13.962  19.435  0.00  0.00    +0.000 C 
BRANCH  22  23
ATOM     23  C   UNL     1      11.244  15.363  18.864  0.00  0.00    +0.000 A 
ATOM     24  C   UNL     1      12.333  15.852  18.135  0.00  0.00    +0.000 A 
ATOM     25  C   UNL     1      12.303  17.139  17.593  0.00  0.00    +0.000 A 
ATOM     26  C   UNL     1      11.188  17.950  17.784  0.00  0.00    +0.000 A 
ATOM     27  C   UNL     1      10.103  17.480  18.526  0.00  0.00    +0.000 A 
ATOM     28  C   UNL     1      10.129  16.193  19.063  0.00  0.00    +0.000 A 
ENDBRANCH  22  23
ENDBRANCH  19  22
ENDBRANCH  15  16
ENDBRANCH   1  15
TORSDOF 9
ENDMDL
MODEL 8
REMARK VINA RESULT:      -6.9      6.873      9.586
REMARK  Name = 
REMARK  11 active torsions:
REMARK  status: ('A' for Active; 'I' for Inactive)
REMARK    1  A    between atoms: C_1  and  O_2
REMARK    2  A    between atoms: O_2  and  C_3
REMARK    3  A    between atoms: C_5  and  C_6
REMARK    4  A    between atoms: C_6  and  C_7
REMARK    5  A    between atoms: C_11  and  O_12
REMARK    6  A    between atoms: O_12  and  C_13
REMARK    7  A    between atoms: C_13  and  C_14
REMARK    8  A    between atoms: C_14  and  C_15
REMARK    9  A    between atoms: C_15  and  N_16
REMARK   10  A    between atoms: N_19  and  C_20
REMARK   11  A    between atoms: C_20  and  C_21
REMARK                            x       y       z     vdW  Elec       q    Type
REMARK                         _______ _______ _______ _____ _____    ______ ____
ROOT
ATOM      1  C   UNL     1       1.478   8.207  21.109  0.00  0.00    +0.000 C 
ENDROOT
BRANCH   1   2
ATOM      2  C   UNL     1       0.275   9.141  21.062  0.00  0.00    +0.000 C 
BRANCH   2   3
ATOM      3  O   UNL     1       0.485  10.174  20.107  0.00  0.00    +0.000 OA
BRANCH   3   9
ATOM      4  C   UNL     1      -1.607  11.475  19.631  0.00  0.00    +0.000 A 
ATOM      5  C   UNL     1      -2.601  11.748  18.682  0.00  0.00    +0.000 A 
ATOM      6  C   UNL     1      -2.673  11.014  17.499  0.00  0.00    +0.000 A 
ATOM      7  C   UNL     1      -1.716  10.030  17.239  0.00  0.00    +0.000 A 
ATOM      8  C   UNL     1      -0.678   9.808  18.148  0.00  0.00    +0.000 A 
ATOM      9  C   UNL     1      -0.605  10.529  19.345  0.00  0.00    +0.000 A 
BRANCH   6  10
ATOM     10  C   UNL     1      -3.777  11.221  16.528  0.00  0.00    +0.000 C 
ATOM     11  C   UNL     1      -5.053  11.882  16.984  0.00  0.00    +0.000 C 
ATOM     12  O   UNL     1      -3.643  10.827  15.371  0.00  0.00    +0.000 OA
ENDBRANCH   6  10
BRANCH   4  14
ATOM     13  C   UNL     1      -0.806  13.377  20.784  0.00  0.00    +0.000 C 
ATOM     14  O   UNL     1      -1.602  12.190  20.800  0.00  0.00    +0.000 OA
ENDBRANCH   4  14
ENDBRANCH   3   9
ENDBRANCH   2   3
ENDBRANCH   1   2
BRANCH   1  15
ATOM     15  C   UNL     1       1.115   6.842  20.513  0.00  0.00    +0.000 C 
BRANCH  15  16
ATOM     16  N   UNL     1       2.229   5.877  20.549  0.00  0.00    +0.000 NA
ATOM     17  C   UNL     1       1.800   4.483  20.308  0.00  0.00    +0.000 C 
ATOM     18  C   UNL     1       1.492   4.136  18.829  0.00  0.00    +0.000 C 
ATOM     19  N   UNL     1       2.548   4.527  17.865  0.00  0.00    +0.000 NA
ATOM     20  C   UNL     1       2.902   5.942  18.114  0.00  0.00    +0.000 C 
ATOM     21  C   UNL     1       3.280   6.245  19.580  0.00  0.00    +0.000 C 
BRANCH  19  22
ATOM     22  C   UNL     1       3.705   3.618  17.986  0.00  0.00    +0.000 C 
BRANCH  22  23
ATOM     23  C   UNL     1       4.911   4.023  17.167  0.00  0.00    +0.000 A 
ATOM     24  C   UNL     1       6.097   4.411  17.797  0.00  0.00    +0.000 A 
ATOM     25  C   UNL     1       7.217   4.770  17.044  0.00  0.00    +0.000 A 
ATOM     26  C   UNL     1       7.156   4.752  15.652  0.00  0.00    +0.000 A 
ATOM     27  C   UNL     1       5.973   4.384  15.012  0.00  0.00    +0.000 A 
ATOM     28  C   UNL     1       4.855   4.020  15.763  0.00  0.00    +0.000 A 
ENDBRANCH  22  23
ENDBRANCH  19  22
ENDBRANCH  15  16
ENDBRANCH   1  15
TORSDOF 9
ENDMDL
MODEL 9
REMARK VINA RESULT:      -6.8      7.708     10.820
REMARK  Name = 
REMARK  11 active torsions:
REMARK  status: ('A' for Active; 'I' for Inactive)
REMARK    1  A    between atoms: C_1  and  O_2
REMARK    2  A    between atoms: O_2  and  C_3
REMARK    3  A    between atoms: C_5  and  C_6
REMARK    4  A    between atoms: C_6  and  C_7
REMARK    5  A    between atoms: C_11  and  O_12
REMARK    6  A    between atoms: O_12  and  C_13
REMARK    7  A    between atoms: C_13  and  C_14
REMARK    8  A    between atoms: C_14  and  C_15
REMARK    9  A    between atoms: C_15  and  N_16
REMARK   10  A    between atoms: N_19  and  C_20
REMARK   11  A    between atoms: C_20  and  C_21
REMARK                            x       y       z     vdW  Elec       q    Type
REMARK                         _______ _______ _______ _____ _____    ______ ____
ROOT
ATOM      1  C   UNL     1       1.282   9.867  18.328  0.00  0.00    +0.000 C 
ENDROOT
BRANCH   1   2
ATOM      2  C   UNL     1       1.900   8.634  17.680  0.00  0.00    +0.000 C 
BRANCH   2   3
ATOM      3  O   UNL     1       2.095   7.609  18.647  0.00  0.00    +0.000 OA
BRANCH   3   9
ATOM      4  C   UNL     1       3.583   5.665  19.197  0.00  0.00    +0.000 A 
ATOM      5  C   UNL     1       4.720   4.942  18.812  0.00  0.00    +0.000 A 
ATOM      6  C   UNL     1       5.542   5.406  17.787  0.00  0.00    +0.000 A 
ATOM      7  C   UNL     1       5.202   6.579  17.108  0.00  0.00    +0.000 A 
ATOM      8  C   UNL     1       4.029   7.261  17.437  0.00  0.00    +0.000 A 
ATOM      9  C   UNL     1       3.203   6.812  18.474  0.00  0.00    +0.000 A 
BRANCH   6  10
ATOM     10  C   UNL     1       6.804   4.707  17.433  0.00  0.00    +0.000 C 
ATOM     11  C   UNL     1       7.065   4.329  15.997  0.00  0.00    +0.000 C 
ATOM     12  O   UNL     1       7.605   4.424  18.321  0.00  0.00    +0.000 OA
ENDBRANCH   6  10
BRANCH   4  14
ATOM     13  C   UNL     1       2.915   3.787  20.467  0.00  0.00    +0.000 C 
ATOM     14  O   UNL     1       2.828   5.196  20.239  0.00  0.00    +0.000 OA
ENDBRANCH   4  14
ENDBRANCH   3   9
ENDBRANCH   2   3
ENDBRANCH   1   2
BRANCH   1  15
ATOM     15  C   UNL     1       1.154   9.664  19.843  0.00  0.00    +0.000 C 
BRANCH  15  16
ATOM     16  N   UNL     1      -0.241   9.703  20.318  0.00  0.00    +0.000 NA
ATOM     17  C   UNL     1      -0.424   9.066  21.639  0.00  0.00    +0.000 C 
ATOM     18  C   UNL     1       0.055   9.910  22.848  0.00  0.00    +0.000 C 
ATOM     19  N   UNL     1      -0.446  11.305  22.871  0.00  0.00    +0.000 NA
ATOM     20  C   UNL     1      -0.191  11.911  21.545  0.00  0.00    +0.000 C 
ATOM     21  C   UNL     1      -0.747  11.089  20.363  0.00  0.00    +0.000 C 
BRANCH  19  22
ATOM     22  C   UNL     1      -1.875  11.323  23.242  0.00  0.00    +0.000 C 
BRANCH  22  23
ATOM     23  C   UNL     1      -2.532  12.683  23.149  0.00  0.00    +0.000 A 
ATOM     24  C   UNL     1      -3.664  12.868  22.350  0.00  0.00    +0.000 A 
ATOM     25  C   UNL     1      -4.282  14.118  22.274  0.00  0.00    +0.000 A 
ATOM     26  C   UNL     1      -3.767  15.196  22.991  0.00  0.00    +0.000 A 
ATOM     27  C   UNL     1      -2.627  15.027  23.777  0.00  0.00    +0.000 A 
ATOM     28  C   UNL     1      -2.011  13.778  23.858  0.00  0.00    +0.000 A 
ENDBRANCH  22  23
ENDBRANCH  19  22
ENDBRANCH  15  16
ENDBRANCH   1  15
TORSDOF 9
ENDMDL
