MODEL 1
REMARK VINA RESULT:      -7.5      0.000      0.000
REMARK  Name = 
REMARK  10 active torsions:
REMARK  status: ('A' for Active; 'I' for Inactive)
REMARK    1  A    between atoms: C_1  and  C_2
REMARK    2  A    between atoms: C_2  and  C_3
REMARK    3  A    between atoms: C_2  and  C_4
REMARK    4  A    between atoms: C_4  and  S_5
REMARK    5  A    between atoms: S_5  and  C_6
REMARK    6  A    between atoms: N_15  and  C1*_16
REMARK    7  A    between atoms: C4*_18  and  C5*_19
REMARK    8  A    between atoms: C5*_19  and  O5*_20
REMARK    9  A    between atoms: C3*_21  and  O3*_22
REMARK   10  A    between atoms: C2*_23  and  O2*_24
REMARK                            x       y       z     vdW  Elec       q    Type
REMARK                         _______ _______ _______ _____ _____    ______ ____
ROOT
ATOM      1  C   UNL     1       7.589   7.444  18.107  0.00  0.00    +0.000 A 
ATOM      2  N   UNL     1       8.320   6.859  19.094  0.00  0.00    +0.000 NA
ATOM      3  C   UNL     1       7.979   5.631  19.511  0.00  0.00    +0.000 A 
ATOM      4  N   UNL     1       8.772   5.061  20.486  0.00  0.00    +0.000 N 
ATOM      5  N   UNL     1       6.943   4.901  19.077  0.00  0.00    +0.000 NA
ATOM      6  C   UNL     1       6.260   5.508  18.095  0.00  0.00    +0.000 A 
ATOM      7  C   UNL     1       6.512   6.754  17.548  0.00  0.00    +0.000 A 
ATOM      8  N   UNL     1       5.609   7.028  16.541  0.00  0.00    +0.000 NA
ATOM      9  C   UNL     1       4.839   5.964  16.471  0.00  0.00    +0.000 A 
ATOM     10  N   UNL     1       5.199   5.012  17.389  0.00  0.00    +0.000 N 
ATOM     11  H   UNL     1       9.306   5.759  20.985  0.00  0.00    +0.000 HD
ATOM     12  H   UNL     1       8.288   4.357  21.022  0.00  0.00    +0.000 HD
ENDROOT
BRANCH  10  13
ATOM     13  C1* UNL     1       4.616   3.692  17.494  0.00  0.00    +0.000 C 
ATOM     14  O4* UNL     1       3.389   3.637  16.737  0.00  0.00    +0.000 OA
ATOM     15  C4* UNL     1       2.405   2.896  17.505  0.00  0.00    +0.000 C 
ATOM     16  C3* UNL     1       3.139   2.302  18.707  0.00  0.00    +0.000 C 
ATOM     17  C2* UNL     1       4.310   3.249  18.923  0.00  0.00    +0.000 C 
BRANCH  16  18
ATOM     18  O3* UNL     1       3.686   1.003  18.413  0.00  0.00    +0.000 OA
ATOM     19  H3* UNL     1       3.457   0.385  19.138  0.00  0.00    +0.000 HD
ENDBRANCH  16  18
BRANCH  17  20
ATOM     20  O2* UNL     1       5.423   2.586  19.525  0.00  0.00    +0.000 OA
ATOM     21  H2* UNL     1       5.083   1.730  19.862  0.00  0.00    +0.000 HD
ENDBRANCH  17  20
BRANCH  15  22
ATOM     22  C5* UNL     1       1.259   3.835  17.897  0.00  0.00    +0.000 C 
BRANCH  22  23
ATOM     23  O5* UNL     1       0.694   3.438  19.145  0.00  0.00    +0.000 OA
ATOM     24  H5* UNL     1      -0.275   3.493  19.040  0.00  0.00    +0.000 HD
ENDBRANCH  22  23
ENDBRANCH  15  22
ENDBRANCH  10  13
BRANCH   1  25
ATOM     25  S   UNL     1       8.093   9.024  17.502  0.00  0.00    +0.000 S 
BRANCH  25  26
ATOM     26  C   UNL     1       9.062   9.649  18.926  0.00  0.00    +0.000 C 
BRANCH  26  28
ATOM     27  C   UNL     1       9.668  11.743  20.198  0.00  0.00    +0.000 C 
ATOM     28  C   UNL     1       9.335  11.164  18.818  0.00  0.00    +0.000 C 
ATOM     29  C   UNL     1      10.474  11.504  17.850  0.00  0.00    +0.000 C 
ENDBRANCH  26  28
ENDBRANCH  25  26
ENDBRANCH   1  25
TORSDOF 8
ENDMDL
MODEL 2
REMARK VINA RESULT:      -7.4      3.247      5.021
REMARK  Name = 
REMARK  10 active torsions:
REMARK  status: ('A' for Active; 'I' for Inactive)
REMARK    1  A    between atoms: C_1  and  C_2
REMARK    2  A    between atoms: C_2  and  C_3
REMARK    3  A    between atoms: C_2  and  C_4
REMARK    4  A    between atoms: C_4  and  S_5
REMARK    5  A    between atoms: S_5  and  C_6
REMARK    6  A    between atoms: N_15  and  C1*_16
REMARK    7  A    between atoms: C4*_18  and  C5*_19
REMARK    8  A    between atoms: C5*_19  and  O5*_20
REMARK    9  A    between atoms: C3*_21  and  O3*_22
REMARK   10  A    between atoms: C2*_23  and  O2*_24
REMARK                            x       y       z     vdW  Elec       q    Type
REMARK                         _______ _______ _______ _____ _____    ______ ____
ROOT
ATOM      1  C   UNL     1       6.740   5.034  16.408  0.00  0.00    +0.000 A 
ATOM      2  N   UNL     1       7.685   5.357  17.331  0.00  0.00    +0.000 NA
ATOM      3  C   UNL     1       7.399   5.210  18.632  0.00  0.00    +0.000 A 
ATOM      4  N   UNL     1       8.401   5.513  19.530  0.00  0.00    +0.000 N 
ATOM      5  N   UNL     1       6.233   4.798  19.149  0.00  0.00    +0.000 NA
ATOM      6  C   UNL     1       5.336   4.475  18.206  0.00  0.00    +0.000 A 
ATOM      7  C   UNL     1       5.501   4.550  16.834  0.00  0.00    +0.000 A 
ATOM      8  N   UNL     1       4.364   4.109  16.188  0.00  0.00    +0.000 NA
ATOM      9  C   UNL     1       3.536   3.761  17.149  0.00  0.00    +0.000 A 
ATOM     10  N   UNL     1       4.084   3.959  18.390  0.00  0.00    +0.000 N 
ATOM     11  H   UNL     1       9.104   6.108  19.114  0.00  0.00    +0.000 HD
ATOM     12  H   UNL     1       8.048   5.757  20.443  0.00  0.00    +0.000 HD
ENDROOT
BRANCH  10  13
ATOM     13  C1* UNL     1       3.467   3.577  19.643  0.00  0.00    +0.000 C 
ATOM     14  O4* UNL     1       2.930   2.243  19.539  0.00  0.00    +0.000 OA
ATOM     15  C4* UNL     1       1.635   2.213  20.195  0.00  0.00    +0.000 C 
ATOM     16  C3* UNL     1       1.471   3.555  20.907  0.00  0.00    +0.000 C 
ATOM     17  C2* UNL     1       2.343   4.505  20.101  0.00  0.00    +0.000 C 
BRANCH  16  18
ATOM     18  O3* UNL     1       1.999   3.521  22.247  0.00  0.00    +0.000 OA
ATOM     19  H3* UNL     1       1.262   3.618  22.887  0.00  0.00    +0.000 HD
ENDBRANCH  16  18
BRANCH  17  20
ATOM     20  O2* UNL     1       2.834   5.582  20.901  0.00  0.00    +0.000 OA
ATOM     21  H2* UNL     1       3.469   6.073  20.339  0.00  0.00    +0.000 HD
ENDBRANCH  17  20
BRANCH  15  22
ATOM     22  C5* UNL     1       0.546   1.941  19.154  0.00  0.00    +0.000 C 
BRANCH  22  23
ATOM     23  O5* UNL     1       1.130   1.635  17.889  0.00  0.00    +0.000 OA
ATOM     24  H5* UNL     1       0.390   1.469  17.275  0.00  0.00    +0.000 HD
ENDBRANCH  22  23
ENDBRANCH  15  22
ENDBRANCH  10  13
BRANCH   1  25
ATOM     25  S   UNL     1       7.151   5.149  14.695  0.00  0.00    +0.000 S 
BRANCH  25  26
ATOM     26  C   UNL     1       6.263   3.692  14.028  0.00  0.00    +0.000 C 
BRANCH  26  28
ATOM     27  C   UNL     1       7.303   4.420  11.845  0.00  0.00    +0.000 C 
ATOM     28  C   UNL     1       6.070   3.784  12.498  0.00  0.00    +0.000 C 
ATOM     29  C   UNL     1       5.806   2.425  11.841  0.00  0.00    +0.000 C 
ENDBRANCH  26  28
ENDBRANCH  25  26
ENDBRANCH   1  25
TORSDOF 8
ENDMDL
MODEL 3
REMARK VINA RESULT:      -7.2      5.661      7.105
REMARK  Name = 
REMARK  10 active torsions:
REMARK  status: ('A' for Active; 'I' for Inactive)
REMARK    1  A    between atoms: C_1  and  C_2
REMARK    2  A    between atoms: C_2  and  C_3
REMARK    3  A    between atoms: C_2  and  C_4
REMARK    4  A    between atoms: C_4  and  S_5
REMARK    5  A    between atoms: S_5  and  C_6
REMARK    6  A    between atoms: N_15  and  C1*_16
REMARK    7  A    between atoms: C4*_18  and  C5*_19
REMARK    8  A    between atoms: C5*_19  and  O5*_20
REMARK    9  A    between atoms: C3*_21  and  O3*_22
REMARK   10  A    between atoms: C2*_23  and  O2*_24
REMARK                            x       y       z     vdW  Elec       q    Type
REMARK                         _______ _______ _______ _____ _____    ______ ____
ROOT
ATOM      1  C   UNL     1       3.544   6.466  18.198  0.00  0.00    +0.000 A 
ATOM      2  N   UNL     1       3.376   5.589  19.225  0.00  0.00    +0.000 NA
ATOM      3  C   UNL     1       2.530   5.906  20.215  0.00  0.00    +0.000 A 
ATOM      4  N   UNL     1       2.361   4.970  21.215  0.00  0.00    +0.000 N 
ATOM      5  N   UNL     1       1.830   7.043  20.332  0.00  0.00    +0.000 NA
ATOM      6  C   UNL     1       2.012   7.870  19.294  0.00  0.00    +0.000 A 
ATOM      7  C   UNL     1       2.828   7.665  18.194  0.00  0.00    +0.000 A 
ATOM      8  N   UNL     1       2.735   8.730  17.321  0.00  0.00    +0.000 NA
ATOM      9  C   UNL     1       1.870   9.553  17.874  0.00  0.00    +0.000 A 
ATOM     10  N   UNL     1       1.399   9.071  19.068  0.00  0.00    +0.000 N 
ATOM     11  H   UNL     1       3.130   4.315  21.243  0.00  0.00    +0.000 HD
ATOM     12  H   UNL     1       2.050   5.377  22.084  0.00  0.00    +0.000 HD
ENDROOT
BRANCH  10  13
ATOM     13  C1* UNL     1       0.362   9.690  19.865  0.00  0.00    +0.000 C 
ATOM     14  O4* UNL     1      -0.657  10.238  19.004  0.00  0.00    +0.000 OA
ATOM     15  C4* UNL     1      -1.057  11.533  19.526  0.00  0.00    +0.000 C 
ATOM     16  C3* UNL     1      -0.381  11.686  20.888  0.00  0.00    +0.000 C 
ATOM     17  C2* UNL     1       0.855  10.807  20.784  0.00  0.00    +0.000 C 
BRANCH  16  18
ATOM     18  O3* UNL     1      -1.195  11.159  21.953  0.00  0.00    +0.000 OA
ATOM     19  H3* UNL     1      -1.724  11.885  22.345  0.00  0.00    +0.000 HD
ENDBRANCH  16  18
BRANCH  17  20
ATOM     20  O2* UNL     1       1.259  10.308  22.059  0.00  0.00    +0.000 OA
ATOM     21  H2* UNL     1       1.940  10.929  22.394  0.00  0.00    +0.000 HD
ENDBRANCH  17  20
BRANCH  15  22
ATOM     22  C5* UNL     1      -0.662  12.624  18.526  0.00  0.00    +0.000 C 
BRANCH  22  23
ATOM     23  O5* UNL     1      -1.385  12.470  17.307  0.00  0.00    +0.000 OA
ATOM     24  H5* UNL     1      -1.098  13.195  16.720  0.00  0.00    +0.000 HD
ENDBRANCH  22  23
ENDBRANCH  15  22
ENDBRANCH  10  13
BRANCH   1  25
ATOM     25  S   UNL     1       4.592   6.008  16.855  0.00  0.00    +0.000 S 
BRANCH  25  26
ATOM     26  C   UNL     1       6.090   6.994  17.232  0.00  0.00    +0.000 C 
BRANCH  26  28
ATOM     27  C   UNL     1       7.765   6.085  18.888  0.00  0.00    +0.000 C 
ATOM     28  C   UNL     1       7.337   6.102  17.416  0.00  0.00    +0.000 C 
ATOM     29  C   UNL     1       7.123   4.661  16.944  0.00  0.00    +0.000 C 
ENDBRANCH  26  28
ENDBRANCH  25  26
ENDBRANCH   1  25
TORSDOF 8
ENDMDL
MODEL 4
REMARK VINA RESULT:      -7.1      3.114      5.415
REMARK  Name = 
REMARK  10 active torsions:
REMARK  status: ('A' for Active; 'I' for Inactive)
REMARK    1  A    between atoms: C_1  and  C_2
REMARK    2  A    between atoms: C_2  and  C_3
REMARK    3  A    between atoms: C_2  and  C_4
REMARK    4  A    between atoms: C_4  and  S_5
REMARK    5  A    between atoms: S_5  and  C_6
REMARK    6  A    between atoms: N_15  and  C1*_16
REMARK    7  A    between atoms: C4*_18  and  C5*_19
REMARK    8  A    between atoms: C5*_19  and  O5*_20
REMARK    9  A    between atoms: C3*_21  and  O3*_22
REMARK   10  A    between atoms: C2*_23  and  O2*_24
REMARK                            x       y       z     vdW  Elec       q    Type
REMARK                         _______ _______ _______ _____ _____    ______ ____
ROOT
ATOM      1  C   UNL     1       6.770   5.290  15.569  0.00  0.00    +0.000 A 
ATOM      2  N   UNL     1       7.497   6.195  16.276  0.00  0.00    +0.000 NA
ATOM      3  C   UNL     1       7.152   6.455  17.545  0.00  0.00    +0.000 A 
ATOM      4  N   UNL     1       7.940   7.350  18.237  0.00  0.00    +0.000 N 
ATOM      5  N   UNL     1       6.113   5.930  18.211  0.00  0.00    +0.000 NA
ATOM      6  C   UNL     1       5.434   5.032  17.483  0.00  0.00    +0.000 A 
ATOM      7  C   UNL     1       5.691   4.647  16.179  0.00  0.00    +0.000 A 
ATOM      8  N   UNL     1       4.791   3.681  15.777  0.00  0.00    +0.000 NA
ATOM      9  C   UNL     1       4.017   3.477  16.821  0.00  0.00    +0.000 A 
ATOM     10  N   UNL     1       4.373   4.268  17.882  0.00  0.00    +0.000 N 
ATOM     11  H   UNL     1       8.476   7.934  17.609  0.00  0.00    +0.000 HD
ATOM     12  H   UNL     1       7.453   7.793  19.001  0.00  0.00    +0.000 HD
ENDROOT
BRANCH  10  13
ATOM     13  C1* UNL     1       3.785   4.205  19.203  0.00  0.00    +0.000 C 
ATOM     14  O4* UNL     1       3.218   2.897  19.425  0.00  0.00    +0.000 OA
ATOM     15  C4* UNL     1       1.942   3.055  20.100  0.00  0.00    +0.000 C 
ATOM     16  C3* UNL     1       1.826   4.529  20.483  0.00  0.00    +0.000 C 
ATOM     17  C2* UNL     1       2.693   5.243  19.458  0.00  0.00    +0.000 C 
BRANCH  16  18
ATOM     18  O3* UNL     1       2.390   4.794  21.782  0.00  0.00    +0.000 OA
ATOM     19  H3* UNL     1       2.637   3.945  22.206  0.00  0.00    +0.000 HD
ENDBRANCH  16  18
BRANCH  17  20
ATOM     20  O2* UNL     1       3.229   6.463  19.973  0.00  0.00    +0.000 OA
ATOM     21  H2* UNL     1       2.617   6.753  20.682  0.00  0.00    +0.000 HD
ENDBRANCH  17  20
BRANCH  15  22
ATOM     22  C5* UNL     1       0.818   2.577  19.176  0.00  0.00    +0.000 C 
BRANCH  22  23
ATOM     23  O5* UNL     1       1.343   1.755  18.136  0.00  0.00    +0.000 OA
ATOM     24  H5* UNL     1       2.316   1.825  18.191  0.00  0.00    +0.000 HD
ENDBRANCH  22  23
ENDBRANCH  15  22
ENDBRANCH  10  13
BRANCH   1  25
ATOM     25  S   UNL     1       7.280   4.888  13.927  0.00  0.00    +0.000 S 
BRANCH  25  26
ATOM     26  C   UNL     1       6.079   3.572  13.503  0.00  0.00    +0.000 C 
BRANCH  26  28
ATOM     27  C   UNL     1       6.737   2.196  11.491  0.00  0.00    +0.000 C 
ATOM     28  C   UNL     1       5.923   3.402  11.976  0.00  0.00    +0.000 C 
ATOM     29  C   UNL     1       4.467   3.228  11.534  0.00  0.00    +0.000 C 
ENDBRANCH  26  28
ENDBRANCH  25  26
ENDBRANCH   1  25
TORSDOF 8
ENDMDL
MODEL 5
REMARK VINA RESULT:      -7.1      3.411      5.885
REMARK  Name = 
REMARK  10 active torsions:
REMARK  status: ('A' for Active; 'I' for Inactive)
REMARK    1  A    between atoms: C_1  and  C_2
REMARK    2  A    between atoms: C_2  and  C_3
REMARK    3  A    between atoms: C_2  and  C_4
REMARK    4  A    between atoms: C_4  and  S_5
REMARK    5  A    between atoms: S_5  and  C_6
REMARK    6  A    between atoms: N_15  and  C1*_16
REMARK    7  A    between atoms: C4*_18  and  C5*_19
REMARK    8  A    between atoms: C5*_19  and  O5*_20
REMARK    9  A    between atoms: C3*_21  and  O3*_22
REMARK   10  A    between atoms: C2*_23  and  O2*_24
REMARK                            x       y       z     vdW  Elec       q    Type
REMARK                         _______ _______ _______ _____ _____    ______ ____
ROOT
ATOM      1  C   UNL     1       6.386   5.076  15.567  0.00  0.00    +0.000 A 
ATOM      2  N   UNL     1       7.217   6.106  15.879  0.00  0.00    +0.000 NA
ATOM      3  C   UNL     1       6.939   6.861  16.951  0.00  0.00    +0.000 A 
ATOM      4  N   UNL     1       7.829   7.871  17.252  0.00  0.00    +0.000 N 
ATOM      5  N   UNL     1       5.879   6.733  17.762  0.00  0.00    +0.000 NA
ATOM      6  C   UNL     1       5.096   5.697  17.429  0.00  0.00    +0.000 A 
ATOM      7  C   UNL     1       5.273   4.822  16.371  0.00  0.00    +0.000 A 
ATOM      8  N   UNL     1       4.275   3.869  16.364  0.00  0.00    +0.000 NA
ATOM      9  C   UNL     1       3.521   4.153  17.404  0.00  0.00    +0.000 A 
ATOM     10  N   UNL     1       3.983   5.250  18.084  0.00  0.00    +0.000 N 
ATOM     11  H   UNL     1       8.395   8.117  16.451  0.00  0.00    +0.000 HD
ATOM     12  H   UNL     1       7.411   8.616  17.787  0.00  0.00    +0.000 HD
ENDROOT
BRANCH  10  13
ATOM     13  C1* UNL     1       3.436   5.751  19.327  0.00  0.00    +0.000 C 
ATOM     14  O4* UNL     1       3.252   4.663  20.256  0.00  0.00    +0.000 OA
ATOM     15  C4* UNL     1       1.983   4.845  20.937  0.00  0.00    +0.000 C 
ATOM     16  C3* UNL     1       1.464   6.226  20.538  0.00  0.00    +0.000 C 
ATOM     17  C2* UNL     1       2.100   6.477  19.180  0.00  0.00    +0.000 C 
BRANCH  16  18
ATOM     18  O3* UNL     1       1.933   7.255  21.430  0.00  0.00    +0.000 OA
ATOM     19  H3* UNL     1       1.689   7.022  22.350  0.00  0.00    +0.000 HD
ENDBRANCH  16  18
BRANCH  17  20
ATOM     20  O2* UNL     1       2.277   7.872  18.928  0.00  0.00    +0.000 OA
ATOM     21  H2* UNL     1       2.416   7.961  17.961  0.00  0.00    +0.000 HD
ENDBRANCH  17  20
BRANCH  15  22
ATOM     22  C5* UNL     1       1.035   3.705  20.552  0.00  0.00    +0.000 C 
BRANCH  22  23
ATOM     23  O5* UNL     1       1.774   2.576  20.090  0.00  0.00    +0.000 OA
ATOM     24  H5* UNL     1       1.651   1.873  20.756  0.00  0.00    +0.000 HD
ENDBRANCH  22  23
ENDBRANCH  15  22
ENDBRANCH  10  13
BRANCH   1  25
ATOM     25  S   UNL     1       6.802   4.033  14.205  0.00  0.00    +0.000 S 
BRANCH  25  26
ATOM     26  C   UNL     1       5.191   3.934  13.339  0.00  0.00    +0.000 C 
BRANCH  26  28
ATOM     27  C   UNL     1       6.217   2.204  11.813  0.00  0.00    +0.000 C 
ATOM     28  C   UNL     1       5.349   3.466  11.876  0.00  0.00    +0.000 C 
ATOM     29  C   UNL     1       4.011   3.183  11.185  0.00  0.00    +0.000 C 
ENDBRANCH  26  28
ENDBRANCH  25  26
ENDBRANCH   1  25
TORSDOF 8
ENDMDL
MODEL 6
REMARK VINA RESULT:      -7.1      1.675      2.609
REMARK  Name = 
REMARK  10 active torsions:
REMARK  status: ('A' for Active; 'I' for Inactive)
REMARK    1  A    between atoms: C_1  and  C_2
REMARK    2  A    between atoms: C_2  and  C_3
REMARK    3  A    between atoms: C_2  and  C_4
REMARK    4  A    between atoms: C_4  and  S_5
REMARK    5  A    between atoms: S_5  and  C_6
REMARK    6  A    between atoms: N_15  and  C1*_16
REMARK    7  A    between atoms: C4*_18  and  C5*_19
REMARK    8  A    between atoms: C5*_19  and  O5*_20
REMARK    9  A    between atoms: C3*_21  and  O3*_22
REMARK   10  A    between atoms: C2*_23  and  O2*_24
REMARK                            x       y       z     vdW  Elec       q    Type
REMARK                         _______ _______ _______ _____ _____    ______ ____
ROOT
ATOM      1  C   UNL     1       7.320   6.442  17.683  0.00  0.00    +0.000 A 
ATOM      2  N   UNL     1       7.452   6.294  16.337  0.00  0.00    +0.000 NA
ATOM      3  C   UNL     1       6.580   5.515  15.682  0.00  0.00    +0.000 A 
ATOM      4  N   UNL     1       6.728   5.425  14.313  0.00  0.00    +0.000 N 
ATOM      5  N   UNL     1       5.576   4.811  16.224  0.00  0.00    +0.000 NA
ATOM      6  C   UNL     1       5.472   4.998  17.548  0.00  0.00    +0.000 A 
ATOM      7  C   UNL     1       6.279   5.789  18.347  0.00  0.00    +0.000 A 
ATOM      8  N   UNL     1       5.846   5.748  19.657  0.00  0.00    +0.000 NA
ATOM      9  C   UNL     1       4.792   4.961  19.646  0.00  0.00    +0.000 A 
ATOM     10  N   UNL     1       4.522   4.488  18.388  0.00  0.00    +0.000 N 
ATOM     11  H   UNL     1       7.659   5.694  14.023  0.00  0.00    +0.000 HD
ATOM     12  H   UNL     1       6.336   4.579  13.931  0.00  0.00    +0.000 HD
ENDROOT
BRANCH  10  13
ATOM     13  C1* UNL     1       3.372   3.686  18.029  0.00  0.00    +0.000 C 
ATOM     14  O4* UNL     1       2.161   4.432  18.270  0.00  0.00    +0.000 OA
ATOM     15  C4* UNL     1       1.179   3.540  18.860  0.00  0.00    +0.000 C 
ATOM     16  C3* UNL     1       1.764   2.131  18.790  0.00  0.00    +0.000 C 
ATOM     17  C2* UNL     1       3.268   2.360  18.781  0.00  0.00    +0.000 C 
BRANCH  16  18
ATOM     18  O3* UNL     1       1.424   1.467  17.558  0.00  0.00    +0.000 OA
ATOM     19  H3* UNL     1       2.234   1.349  17.020  0.00  0.00    +0.000 HD
ENDBRANCH  16  18
BRANCH  17  20
ATOM     20  O2* UNL     1       3.960   1.309  18.105  0.00  0.00    +0.000 OA
ATOM     21  H2* UNL     1       4.892   1.356  18.407  0.00  0.00    +0.000 HD
ENDBRANCH  17  20
BRANCH  15  22
ATOM     22  C5* UNL     1       0.873   4.000  20.289  0.00  0.00    +0.000 C 
BRANCH  22  23
ATOM     23  O5* UNL     1       0.825   2.883  21.173  0.00  0.00    +0.000 OA
ATOM     24  H5* UNL     1       1.498   3.046  21.862  0.00  0.00    +0.000 HD
ENDBRANCH  22  23
ENDBRANCH  15  22
ENDBRANCH  10  13
BRANCH   1  25
ATOM     25  S   UNL     1       8.417   7.536  18.528  0.00  0.00    +0.000 S 
BRANCH  25  26
ATOM     26  C   UNL     1       7.959   9.140  17.770  0.00  0.00    +0.000 C 
BRANCH  26  28
ATOM     27  C   UNL     1       8.414  11.623  17.711  0.00  0.00    +0.000 C 
ATOM     28  C   UNL     1       8.970  10.254  18.120  0.00  0.00    +0.000 C 
ATOM     29  C   UNL     1       9.336  10.291  19.607  0.00  0.00    +0.000 C 
ENDBRANCH  26  28
ENDBRANCH  25  26
ENDBRANCH   1  25
TORSDOF 8
ENDMDL
MODEL 7
REMARK VINA RESULT:      -7.0      5.790      7.573
REMARK  Name = 
REMARK  10 active torsions:
REMARK  status: ('A' for Active; 'I' for Inactive)
REMARK    1  A    between atoms: C_1  and  C_2
REMARK    2  A    between atoms: C_2  and  C_3
REMARK    3  A    between atoms: C_2  and  C_4
REMARK    4  A    between atoms: C_4  and  S_5
REMARK    5  A    between atoms: S_5  and  C_6
REMARK    6  A    between atoms: N_15  and  C1*_16
REMARK    7  A    between atoms: C4*_18  and  C5*_19
REMARK    8  A    between atoms: C5*_19  and  O5*_20
REMARK    9  A    between atoms: C3*_21  and  O3*_22
REMARK   10  A    between atoms: C2*_23  and  O2*_24
REMARK                            x       y       z     vdW  Elec       q    Type
REMARK                         _______ _______ _______ _____ _____    ______ ____
ROOT
ATOM      1  C   UNL     1       3.507   6.729  18.113  0.00  0.00    +0.000 A 
ATOM      2  N   UNL     1       3.375   5.810  19.107  0.00  0.00    +0.000 NA
ATOM      3  C   UNL     1       2.534   6.066  20.119  0.00  0.00    +0.000 A 
ATOM      4  N   UNL     1       2.402   5.089  21.084  0.00  0.00    +0.000 N 
ATOM      5  N   UNL     1       1.806   7.179  20.288  0.00  0.00    +0.000 NA
ATOM      6  C   UNL     1       1.954   8.049  19.280  0.00  0.00    +0.000 A 
ATOM      7  C   UNL     1       2.761   7.908  18.164  0.00  0.00    +0.000 A 
ATOM      8  N   UNL     1       2.629   9.003  17.334  0.00  0.00    +0.000 NA
ATOM      9  C   UNL     1       1.751   9.781  17.928  0.00  0.00    +0.000 A 
ATOM     10  N   UNL     1       1.308   9.242  19.107  0.00  0.00    +0.000 N 
ATOM     11  H   UNL     1       3.189   4.453  21.078  0.00  0.00    +0.000 HD
ATOM     12  H   UNL     1       2.092   5.454  21.972  0.00  0.00    +0.000 HD
ENDROOT
BRANCH  10  13
ATOM     13  C1* UNL     1       0.265   9.803  19.940  0.00  0.00    +0.000 C 
ATOM     14  O4* UNL     1      -0.767  10.377  19.113  0.00  0.00    +0.000 OA
ATOM     15  C4* UNL     1      -1.185  11.637  19.701  0.00  0.00    +0.000 C 
ATOM     16  C3* UNL     1      -0.505  11.732  21.067  0.00  0.00    +0.000 C 
ATOM     17  C2* UNL     1       0.745  10.879  20.912  0.00  0.00    +0.000 C 
BRANCH  16  18
ATOM     18  O3* UNL     1      -1.304  11.138  22.108  0.00  0.00    +0.000 OA
ATOM     19  H3* UNL     1      -1.761  11.846  22.607  0.00  0.00    +0.000 HD
ENDBRANCH  16  18
BRANCH  17  20
ATOM     20  O2* UNL     1       1.164  10.323  22.159  0.00  0.00    +0.000 OA
ATOM     21  H2* UNL     1       2.055  10.691  22.338  0.00  0.00    +0.000 HD
ENDBRANCH  17  20
BRANCH  15  22
ATOM     22  C5* UNL     1      -0.814  12.784  18.757  0.00  0.00    +0.000 C 
BRANCH  22  23
ATOM     23  O5* UNL     1      -1.348  12.551  17.455  0.00  0.00    +0.000 OA
ATOM     24  H5* UNL     1      -1.032  11.670  17.179  0.00  0.00    +0.000 HD
ENDBRANCH  22  23
ENDBRANCH  15  22
ENDBRANCH  10  13
BRANCH   1  25
ATOM     25  S   UNL     1       4.550   6.350  16.741  0.00  0.00    +0.000 S 
BRANCH  25  26
ATOM     26  C   UNL     1       4.679   4.529  16.895  0.00  0.00    +0.000 C 
BRANCH  26  28
ATOM     27  C   UNL     1       5.788   4.256  14.644  0.00  0.00    +0.000 C 
ATOM     28  C   UNL     1       5.908   3.971  16.145  0.00  0.00    +0.000 C 
ATOM     29  C   UNL     1       7.236   4.543  16.654  0.00  0.00    +0.000 C 
ENDBRANCH  26  28
ENDBRANCH  25  26
ENDBRANCH   1  25
TORSDOF 8
ENDMDL
MODEL 8
REMARK VINA RESULT:      -6.7      4.908      6.835
REMARK  Name = 
REMARK  10 active torsions:
REMARK  status: ('A' for Active; 'I' for Inactive)
REMARK    1  A    between atoms: C_1  and  C_2
REMARK    2  A    between atoms: C_2  and  C_3
REMARK    3  A    between atoms: C_2  and  C_4
REMARK    4  A    between atoms: C_4  and  S_5
REMARK    5  A    between atoms: S_5  and  C_6
REMARK    6  A    between atoms: N_15  and  C1*_16
REMARK    7  A    between atoms: C4*_18  and  C5*_19
REMARK    8  A    between atoms: C5*_19  and  O5*_20
REMARK    9  A    between atoms: C3*_21  and  O3*_22
REMARK   10  A    between atoms: C2*_23  and  O2*_24
REMARK                            x       y       z     vdW  Elec       q    Type
REMARK                         _______ _______ _______ _____ _____    ______ ____
ROOT
ATOM      1  C   UNL     1       4.176   4.928  18.819  0.00  0.00    +0.000 A 
ATOM      2  N   UNL     1       3.578   4.229  19.820  0.00  0.00    +0.000 NA
ATOM      3  C   UNL     1       2.540   4.780  20.466  0.00  0.00    +0.000 A 
ATOM      4  N   UNL     1       1.940   4.019  21.447  0.00  0.00    +0.000 N 
ATOM      5  N   UNL     1       2.026   5.999  20.254  0.00  0.00    +0.000 NA
ATOM      6  C   UNL     1       2.634   6.647  19.250  0.00  0.00    +0.000 A 
ATOM      7  C   UNL     1       3.693   6.194  18.482  0.00  0.00    +0.000 A 
ATOM      8  N   UNL     1       4.030   7.133  17.527  0.00  0.00    +0.000 NA
ATOM      9  C   UNL     1       3.183   8.124  17.706  0.00  0.00    +0.000 A 
ATOM     10  N   UNL     1       2.313   7.872  18.734  0.00  0.00    +0.000 N 
ATOM     11  H   UNL     1       2.553   3.284  21.773  0.00  0.00    +0.000 HD
ATOM     12  H   UNL     1       1.456   4.576  22.135  0.00  0.00    +0.000 HD
ENDROOT
BRANCH  10  13
ATOM     13  C1* UNL     1       1.200   8.718  19.109  0.00  0.00    +0.000 C 
ATOM     14  O4* UNL     1       1.008   9.745  18.116  0.00  0.00    +0.000 OA
ATOM     15  C4* UNL     1       0.721  10.997  18.793  0.00  0.00    +0.000 C 
ATOM     16  C3* UNL     1       0.535  10.664  20.273  0.00  0.00    +0.000 C 
ATOM     17  C2* UNL     1       1.355   9.398  20.468  0.00  0.00    +0.000 C 
BRANCH  16  18
ATOM     18  O3* UNL     1      -0.834  10.340  20.583  0.00  0.00    +0.000 OA
ATOM     19  H3* UNL     1      -1.425  10.789  19.943  0.00  0.00    +0.000 HD
ENDBRANCH  16  18
BRANCH  17  20
ATOM     20  O2* UNL     1       0.841   8.592  21.530  0.00  0.00    +0.000 OA
ATOM     21  H2* UNL     1       0.264   9.177  22.064  0.00  0.00    +0.000 HD
ENDBRANCH  17  20
BRANCH  15  22
ATOM     22  C5* UNL     1       1.861  11.986  18.532  0.00  0.00    +0.000 C 
BRANCH  22  23
ATOM     23  O5* UNL     1       2.506  11.689  17.296  0.00  0.00    +0.000 OA
ATOM     24  H5* UNL     1       1.835  11.264  16.728  0.00  0.00    +0.000 HD
ENDBRANCH  22  23
ENDBRANCH  15  22
ENDBRANCH  10  13
BRANCH   1  25
ATOM     25  S   UNL     1       5.485   4.165  17.915  0.00  0.00    +0.000 S 
BRANCH  25  26
ATOM     26  C   UNL     1       4.751   4.089  16.238  0.00  0.00    +0.000 C 
BRANCH  26  28
ATOM     27  C   UNL     1       6.862   5.422  15.862  0.00  0.00    +0.000 C 
ATOM     28  C   UNL     1       5.621   4.821  15.193  0.00  0.00    +0.000 C 
ATOM     29  C   UNL     1       6.068   3.915  14.041  0.00  0.00    +0.000 C 
ENDBRANCH  26  28
ENDBRANCH  25  26
ENDBRANCH   1  25
TORSDOF 8
ENDMDL
MODEL 9
REMARK VINA RESULT:      -6.7      5.524      7.105
REMARK  Name = 
REMARK  10 active torsions:
REMARK  status: ('A' for Active; 'I' for Inactive)
REMARK    1  A    between atoms: C_1  and  C_2
REMARK    2  A    between atoms: C_2  and  C_3
REMARK    3  A    between atoms: C_2  and  C_4
REMARK    4  A    between atoms: C_4  and  S_5
REMARK    5  A    between atoms: S_5  and  C_6
REMARK    6  A    between atoms: N_15  and  C1*_16
REMARK    7  A    between atoms: C4*_18  and  C5*_19
REMARK    8  A    between atoms: C5*_19  and  O5*_20
REMARK    9  A    between atoms: C3*_21  and  O3*_22
REMARK   10  A    between atoms: C2*_23  and  O2*_24
REMARK                            x       y       z     vdW  Elec       q    Type
REMARK                         _______ _______ _______ _____ _____    ______ ____
ROOT
ATOM      1  C   UNL     1       0.875  10.183  19.698  0.00  0.00    +0.000 A 
ATOM      2  N   UNL     1       0.505  10.242  21.006  0.00  0.00    +0.000 NA
ATOM      3  C   UNL     1       0.736   9.183  21.794  0.00  0.00    +0.000 A 
ATOM      4  N   UNL     1       0.379   9.302  23.121  0.00  0.00    +0.000 N 
ATOM      5  N   UNL     1       1.281   8.016  21.421  0.00  0.00    +0.000 NA
ATOM      6  C   UNL     1       1.645   8.006  20.131  0.00  0.00    +0.000 A 
ATOM      7  C   UNL     1       1.494   9.029  19.211  0.00  0.00    +0.000 A 
ATOM      8  N   UNL     1       2.013   8.656  17.988  0.00  0.00    +0.000 NA
ATOM      9  C   UNL     1       2.481   7.440  18.169  0.00  0.00    +0.000 A 
ATOM     10  N   UNL     1       2.287   7.006  19.455  0.00  0.00    +0.000 N 
ATOM     11  H   UNL     1      -0.298  10.040  23.258  0.00  0.00    +0.000 HD
ATOM     12  H   UNL     1       0.211   8.412  23.563  0.00  0.00    +0.000 HD
ENDROOT
BRANCH  10  13
ATOM     13  C1* UNL     1       2.781   5.758  19.996  0.00  0.00    +0.000 C 
ATOM     14  O4* UNL     1       4.150   5.555  19.590  0.00  0.00    +0.000 OA
ATOM     15  C4* UNL     1       4.324   4.160  19.229  0.00  0.00    +0.000 C 
ATOM     16  C3* UNL     1       3.037   3.438  19.627  0.00  0.00    +0.000 C 
ATOM     17  C2* UNL     1       1.977   4.528  19.578  0.00  0.00    +0.000 C 
BRANCH  16  18
ATOM     18  O3* UNL     1       3.090   2.951  20.981  0.00  0.00    +0.000 OA
ATOM     19  H3* UNL     1       2.245   3.158  21.432  0.00  0.00    +0.000 HD
ENDBRANCH  16  18
BRANCH  17  20
ATOM     20  O2* UNL     1       0.902   4.262  20.480  0.00  0.00    +0.000 OA
ATOM     21  H2* UNL     1       0.499   5.131  20.690  0.00  0.00    +0.000 HD
ENDBRANCH  17  20
BRANCH  15  22
ATOM     22  C5* UNL     1       4.638   4.060  17.733  0.00  0.00    +0.000 C 
BRANCH  22  23
ATOM     23  O5* UNL     1       6.045   3.974  17.523  0.00  0.00    +0.000 OA
ATOM     24  H5* UNL     1       6.258   4.603  16.808  0.00  0.00    +0.000 HD
ENDBRANCH  22  23
ENDBRANCH  15  22
ENDBRANCH  10  13
BRANCH   1  25
ATOM     25  S   UNL     1       0.647  11.610  18.686  0.00  0.00    +0.000 S 
BRANCH  25  26
ATOM     26  C   UNL     1      -1.145  11.916  18.918  0.00  0.00    +0.000 C 
BRANCH  26  28
ATOM     27  C   UNL     1      -1.605  10.043  17.289  0.00  0.00    +0.000 C 
ATOM     28  C   UNL     1      -1.970  11.477  17.689  0.00  0.00    +0.000 C 
ATOM     29  C   UNL     1      -3.483  11.558  17.918  0.00  0.00    +0.000 C 
ENDBRANCH  26  28
ENDBRANCH  25  26
ENDBRANCH   1  25
TORSDOF 8
ENDMDL
