MODEL 1
REMARK VINA RESULT:      -7.8      0.000      0.000
REMARK  Name = 
REMARK  5 active torsions:
REMARK  status: ('A' for Active; 'I' for Inactive)
REMARK    1  A    between atoms: O_1  and  C_2
REMARK    2  A    between atoms: C_5  and  O_6
REMARK    3  A    between atoms: O_6  and  C_7
REMARK    4  A    between atoms: C_16  and  O_17
REMARK    5  A    between atoms: O_17  and  C_18
REMARK                            x       y       z     vdW  Elec       q    Type
REMARK                         _______ _______ _______ _____ _____    ______ ____
ROOT
ATOM      1  C   UNL     1       2.257   3.412  19.011  0.00  0.00    +0.000 A 
ATOM      2  C   UNL     1       3.488   3.266  18.354  0.00  0.00    +0.000 A 
ATOM      3 CL   UNL     1       3.919   1.672  17.819  0.00  0.00    +0.000 Cl
ATOM      4  C   UNL     1       4.335   4.375  18.220  0.00  0.00    +0.000 A 
ATOM      5  C   UNL     1       4.005   5.570  18.878  0.00  0.00    +0.000 A 
ATOM      6  C   UNL     1       2.846   5.667  19.657  0.00  0.00    +0.000 A 
ATOM      7  C   UNL     1       1.933   4.605  19.665  0.00  0.00    +0.000 A 
ATOM      8 CL   UNL     1       0.427   4.757  20.508  0.00  0.00    +0.000 Cl
ENDROOT
BRANCH   1   9
ATOM      9  O   UNL     1       1.351   2.374  19.026  0.00  0.00    +0.000 OA
ATOM     10  H   UNL     1       1.841   1.541  19.155  0.00  0.00    +0.000 HD
ENDBRANCH   1   9
BRANCH   4  11
ATOM     11  O   UNL     1       5.561   4.426  17.599  0.00  0.00    +0.000 OA
BRANCH  11  12
ATOM     12  C   UNL     1       6.421   5.486  17.777  0.00  0.00    +0.000 A 
ATOM     13  C   UNL     1       7.446   5.511  18.730  0.00  0.00    +0.000 A 
ATOM     14  C   UNL     1       8.185   6.676  18.927  0.00  0.00    +0.000 A 
ATOM     15  C   UNL     1       7.953   7.793  18.121  0.00  0.00    +0.000 A 
ATOM     16 CL   UNL     1       8.828   9.247  18.408  0.00  0.00    +0.000 Cl
ATOM     17  C   UNL     1       7.015   7.744  17.098  0.00  0.00    +0.000 A 
ATOM     18  C   UNL     1       6.254   6.587  16.924  0.00  0.00    +0.000 A 
ATOM     19 CL   UNL     1       5.100   6.555  15.636  0.00  0.00    +0.000 Cl
ENDBRANCH  11  12
ENDBRANCH   4  11
BRANCH   6  20
ATOM     20  O   UNL     1       2.530   6.800  20.375  0.00  0.00    +0.000 OA
BRANCH  20  21
ATOM     21  C   UNL     1       1.896   7.859  19.759  0.00  0.00    +0.000 A 
ATOM     22  C   UNL     1       2.008   8.142  18.390  0.00  0.00    +0.000 A 
ATOM     23  C   UNL     1       1.308   9.218  17.837  0.00  0.00    +0.000 A 
ATOM     24  C   UNL     1       0.536  10.041  18.655  0.00  0.00    +0.000 A 
ATOM     25 CL   UNL     1      -0.333  11.356  17.967  0.00  0.00    +0.000 Cl
ATOM     26  C   UNL     1       0.468   9.809  20.025  0.00  0.00    +0.000 A 
ATOM     27  C   UNL     1       1.150   8.723  20.575  0.00  0.00    +0.000 A 
ATOM     28 CL   UNL     1       1.045   8.472  22.282  0.00  0.00    +0.000 Cl
ENDBRANCH  20  21
ENDBRANCH   6  20
TORSDOF 5
ENDMDL
MODEL 2
REMARK VINA RESULT:      -7.8      1.605      2.346
REMARK  Name = 
REMARK  5 active torsions:
REMARK  status: ('A' for Active; 'I' for Inactive)
REMARK    1  A    between atoms: O_1  and  C_2
REMARK    2  A    between atoms: C_5  and  O_6
REMARK    3  A    between atoms: O_6  and  C_7
REMARK    4  A    between atoms: C_16  and  O_17
REMARK    5  A    between atoms: O_17  and  C_18
REMARK                            x       y       z     vdW  Elec       q    Type
REMARK                         _______ _______ _______ _____ _____    ______ ____
ROOT
ATOM      1  C   UNL     1       2.220   3.416  19.214  0.00  0.00    +0.000 A 
ATOM      2  C   UNL     1       3.498   3.114  18.719  0.00  0.00    +0.000 A 
ATOM      3 CL   UNL     1       3.823   1.457  18.318  0.00  0.00    +0.000 Cl
ATOM      4  C   UNL     1       4.463   4.127  18.637  0.00  0.00    +0.000 A 
ATOM      5  C   UNL     1       4.183   5.386  19.191  0.00  0.00    +0.000 A 
ATOM      6  C   UNL     1       2.957   5.639  19.818  0.00  0.00    +0.000 A 
ATOM      7  C   UNL     1       1.946   4.672  19.765  0.00  0.00    +0.000 A 
ATOM      8 CL   UNL     1       0.376   5.017  20.411  0.00  0.00    +0.000 Cl
ENDROOT
BRANCH   1   9
ATOM      9  O   UNL     1       1.217   2.472  19.168  0.00  0.00    +0.000 OA
ATOM     10  H   UNL     1       0.704   2.609  18.351  0.00  0.00    +0.000 HD
ENDBRANCH   1   9
BRANCH   4  11
ATOM     11  O   UNL     1       5.752   4.024  18.168  0.00  0.00    +0.000 OA
BRANCH  11  12
ATOM     12  C   UNL     1       6.074   4.308  16.860  0.00  0.00    +0.000 A 
ATOM     13  C   UNL     1       5.527   3.642  15.757  0.00  0.00    +0.000 A 
ATOM     14  C   UNL     1       6.008   3.906  14.475  0.00  0.00    +0.000 A 
ATOM     15  C   UNL     1       6.981   4.890  14.285  0.00  0.00    +0.000 A 
ATOM     16 CL   UNL     1       7.612   5.171  12.710  0.00  0.00    +0.000 Cl
ATOM     17  C   UNL     1       7.451   5.636  15.359  0.00  0.00    +0.000 A 
ATOM     18  C   UNL     1       6.993   5.346  16.645  0.00  0.00    +0.000 A 
ATOM     19 CL   UNL     1       7.592   6.297  17.959  0.00  0.00    +0.000 Cl
ENDBRANCH  11  12
ENDBRANCH   4  11
BRANCH   6  20
ATOM     20  O   UNL     1       2.677   6.838  20.437  0.00  0.00    +0.000 OA
BRANCH  20  21
ATOM     21  C   UNL     1       1.996   7.828  19.759  0.00  0.00    +0.000 A 
ATOM     22  C   UNL     1       2.095   8.031  18.376  0.00  0.00    +0.000 A 
ATOM     23  C   UNL     1       1.347   9.039  17.760  0.00  0.00    +0.000 A 
ATOM     24  C   UNL     1       0.540   9.875  18.528  0.00  0.00    +0.000 A 
ATOM     25 CL   UNL     1      -0.388  11.105  17.764  0.00  0.00    +0.000 Cl
ATOM     26  C   UNL     1       0.482   9.726  19.911  0.00  0.00    +0.000 A 
ATOM     27  C   UNL     1       1.213   8.707  20.524  0.00  0.00    +0.000 A 
ATOM     28 CL   UNL     1       1.121   8.557  22.243  0.00  0.00    +0.000 Cl
ENDBRANCH  20  21
ENDBRANCH   6  20
TORSDOF 5
ENDMDL
MODEL 3
REMARK VINA RESULT:      -7.7      1.902      6.485
REMARK  Name = 
REMARK  5 active torsions:
REMARK  status: ('A' for Active; 'I' for Inactive)
REMARK    1  A    between atoms: O_1  and  C_2
REMARK    2  A    between atoms: C_5  and  O_6
REMARK    3  A    between atoms: O_6  and  C_7
REMARK    4  A    between atoms: C_16  and  O_17
REMARK    5  A    between atoms: O_17  and  C_18
REMARK                            x       y       z     vdW  Elec       q    Type
REMARK                         _______ _______ _______ _____ _____    ______ ____
ROOT
ATOM      1  C   UNL     1       2.625   3.759  20.417  0.00  0.00    +0.000 A 
ATOM      2  C   UNL     1       1.972   4.954  20.080  0.00  0.00    +0.000 A 
ATOM      3 CL   UNL     1       0.267   5.043  20.394  0.00  0.00    +0.000 Cl
ATOM      4  C   UNL     1       2.691   5.980  19.452  0.00  0.00    +0.000 A 
ATOM      5  C   UNL     1       4.009   5.736  19.036  0.00  0.00    +0.000 A 
ATOM      6  C   UNL     1       4.610   4.489  19.241  0.00  0.00    +0.000 A 
ATOM      7  C   UNL     1       3.939   3.520  19.999  0.00  0.00    +0.000 A 
ATOM      8 CL   UNL     1       4.719   2.023  20.385  0.00  0.00    +0.000 Cl
ENDROOT
BRANCH   1   9
ATOM      9  O   UNL     1       1.975   2.798  21.160  0.00  0.00    +0.000 OA
ATOM     10  H   UNL     1       1.872   3.131  22.070  0.00  0.00    +0.000 HD
ENDBRANCH   1   9
BRANCH   4  11
ATOM     11  O   UNL     1       2.228   7.216  19.066  0.00  0.00    +0.000 OA
BRANCH  11  12
ATOM     12  C   UNL     1       1.691   8.105  19.970  0.00  0.00    +0.000 A 
ATOM     13  C   UNL     1       1.763   7.949  21.359  0.00  0.00    +0.000 A 
ATOM     14  C   UNL     1       1.079   8.830  22.196  0.00  0.00    +0.000 A 
ATOM     15  C   UNL     1       0.384   9.912  21.649  0.00  0.00    +0.000 A 
ATOM     16 CL   UNL     1      -0.507  10.961  22.681  0.00  0.00    +0.000 Cl
ATOM     17  C   UNL     1       0.397  10.141  20.279  0.00  0.00    +0.000 A 
ATOM     18  C   UNL     1       1.055   9.239  19.442  0.00  0.00    +0.000 A 
ATOM     19 CL   UNL     1       1.059   9.557  17.742  0.00  0.00    +0.000 Cl
ENDBRANCH  11  12
ENDBRANCH   4  11
BRANCH   6  20
ATOM     20  O   UNL     1       5.873   4.191  18.780  0.00  0.00    +0.000 OA
BRANCH  20  21
ATOM     21  C   UNL     1       6.182   4.349  17.445  0.00  0.00    +0.000 A 
ATOM     22  C   UNL     1       5.674   3.528  16.428  0.00  0.00    +0.000 A 
ATOM     23  C   UNL     1       6.012   3.773  15.094  0.00  0.00    +0.000 A 
ATOM     24  C   UNL     1       6.894   4.804  14.778  0.00  0.00    +0.000 A 
ATOM     25 CL   UNL     1       7.297   5.109  13.134  0.00  0.00    +0.000 Cl
ATOM     26  C   UNL     1       7.456   5.586  15.783  0.00  0.00    +0.000 A 
ATOM     27  C   UNL     1       7.103   5.354  17.114  0.00  0.00    +0.000 A 
ATOM     28 CL   UNL     1       7.827   6.342  18.334  0.00  0.00    +0.000 Cl
ENDBRANCH  20  21
ENDBRANCH   6  20
TORSDOF 5
ENDMDL
MODEL 4
REMARK VINA RESULT:      -7.3      0.678      5.787
REMARK  Name = 
REMARK  5 active torsions:
REMARK  status: ('A' for Active; 'I' for Inactive)
REMARK    1  A    between atoms: O_1  and  C_2
REMARK    2  A    between atoms: C_5  and  O_6
REMARK    3  A    between atoms: O_6  and  C_7
REMARK    4  A    between atoms: C_16  and  O_17
REMARK    5  A    between atoms: O_17  and  C_18
REMARK                            x       y       z     vdW  Elec       q    Type
REMARK                         _______ _______ _______ _____ _____    ______ ____
ROOT
ATOM      1  C   UNL     1       2.556   2.823  18.969  0.00  0.00    +0.000 A 
ATOM      2  C   UNL     1       1.950   3.898  19.637  0.00  0.00    +0.000 A 
ATOM      3 CL   UNL     1       0.303   3.692  20.143  0.00  0.00    +0.000 Cl
ATOM      4  C   UNL     1       2.659   5.096  19.802  0.00  0.00    +0.000 A 
ATOM      5  C   UNL     1       3.900   5.249  19.165  0.00  0.00    +0.000 A 
ATOM      6  C   UNL     1       4.436   4.226  18.375  0.00  0.00    +0.000 A 
ATOM      7  C   UNL     1       3.794   2.982  18.336  0.00  0.00    +0.000 A 
ATOM      8 CL   UNL     1       4.511   1.658  17.479  0.00  0.00    +0.000 Cl
ENDROOT
BRANCH   1   9
ATOM      9  O   UNL     1       1.933   1.595  18.922  0.00  0.00    +0.000 OA
ATOM     10  H   UNL     1       2.547   0.955  18.518  0.00  0.00    +0.000 HD
ENDBRANCH   1   9
BRANCH   4  11
ATOM     11  O   UNL     1       2.238   6.241  20.437  0.00  0.00    +0.000 OA
BRANCH  11  12
ATOM     12  C   UNL     1       2.019   7.414  19.751  0.00  0.00    +0.000 A 
ATOM     13  C   UNL     1       2.399   7.626  18.421  0.00  0.00    +0.000 A 
ATOM     14  C   UNL     1       2.255   8.889  17.848  0.00  0.00    +0.000 A 
ATOM     15  C   UNL     1       1.659   9.921  18.578  0.00  0.00    +0.000 A 
ATOM     16 CL   UNL     1       1.537  11.491  17.886  0.00  0.00    +0.000 Cl
ATOM     17  C   UNL     1       1.176   9.693  19.860  0.00  0.00    +0.000 A 
ATOM     18  C   UNL     1       1.353   8.437  20.443  0.00  0.00    +0.000 A 
ATOM     19 CL   UNL     1       0.733   8.183  22.038  0.00  0.00    +0.000 Cl
ENDBRANCH  11  12
ENDBRANCH   4  11
BRANCH   6  20
ATOM     20  O   UNL     1       5.615   4.369  17.677  0.00  0.00    +0.000 OA
BRANCH  20  21
ATOM     21  C   UNL     1       6.404   5.486  17.867  0.00  0.00    +0.000 A 
ATOM     22  C   UNL     1       7.379   5.586  18.869  0.00  0.00    +0.000 A 
ATOM     23  C   UNL     1       8.159   6.741  18.975  0.00  0.00    +0.000 A 
ATOM     24  C   UNL     1       7.934   7.814  18.115  0.00  0.00    +0.000 A 
ATOM     25 CL   UNL     1       8.905   9.228  18.242  0.00  0.00    +0.000 Cl
ATOM     26  C   UNL     1       6.926   7.752  17.157  0.00  0.00    +0.000 A 
ATOM     27  C   UNL     1       6.161   6.591  17.038  0.00  0.00    +0.000 A 
ATOM     28 CL   UNL     1       4.914   6.555  15.841  0.00  0.00    +0.000 Cl
ENDBRANCH  20  21
ENDBRANCH   6  20
TORSDOF 5
ENDMDL
MODEL 5
REMARK VINA RESULT:      -7.2      2.606      8.001
REMARK  Name = 
REMARK  5 active torsions:
REMARK  status: ('A' for Active; 'I' for Inactive)
REMARK    1  A    between atoms: O_1  and  C_2
REMARK    2  A    between atoms: C_5  and  O_6
REMARK    3  A    between atoms: O_6  and  C_7
REMARK    4  A    between atoms: C_16  and  O_17
REMARK    5  A    between atoms: O_17  and  C_18
REMARK                            x       y       z     vdW  Elec       q    Type
REMARK                         _______ _______ _______ _____ _____    ______ ____
ROOT
ATOM      1  C   UNL     1       1.592   8.149  20.671  0.00  0.00    +0.000 A 
ATOM      2  C   UNL     1       0.955   9.312  20.213  0.00  0.00    +0.000 A 
ATOM      3 CL   UNL     1       0.146  10.293  21.394  0.00  0.00    +0.000 Cl
ATOM      4  C   UNL     1       0.937   9.594  18.840  0.00  0.00    +0.000 A 
ATOM      5  C   UNL     1       1.422   8.634  17.939  0.00  0.00    +0.000 A 
ATOM      6  C   UNL     1       1.922   7.408  18.393  0.00  0.00    +0.000 A 
ATOM      7  C   UNL     1       2.074   7.195  19.768  0.00  0.00    +0.000 A 
ATOM      8 CL   UNL     1       2.820   5.744  20.349  0.00  0.00    +0.000 Cl
ENDROOT
BRANCH   1   9
ATOM      9  O   UNL     1       1.745   7.928  22.023  0.00  0.00    +0.000 OA
ATOM     10  H   UNL     1       2.245   8.674  22.401  0.00  0.00    +0.000 HD
ENDBRANCH   1   9
BRANCH   4  11
ATOM     11  O   UNL     1       0.380  10.684  18.213  0.00  0.00    +0.000 OA
BRANCH  11  12
ATOM     12  C   UNL     1      -0.979  10.798  18.024  0.00  0.00    +0.000 A 
ATOM     13  C   UNL     1      -1.748   9.881  17.299  0.00  0.00    +0.000 A 
ATOM     14  C   UNL     1      -3.094  10.144  17.049  0.00  0.00    +0.000 A 
ATOM     15  C   UNL     1      -3.692  11.286  17.587  0.00  0.00    +0.000 A 
ATOM     16 CL   UNL     1      -5.337  11.635  17.227  0.00  0.00    +0.000 Cl
ATOM     17  C   UNL     1      -2.967  12.146  18.401  0.00  0.00    +0.000 A 
ATOM     18  C   UNL     1      -1.612  11.898  18.622  0.00  0.00    +0.000 A 
ATOM     19 CL   UNL     1      -0.739  12.984  19.647  0.00  0.00    +0.000 Cl
ENDBRANCH  11  12
ENDBRANCH   4  11
BRANCH   6  20
ATOM     20  O   UNL     1       2.337   6.414  17.533  0.00  0.00    +0.000 OA
BRANCH  20  21
ATOM     21  C   UNL     1       3.658   6.015  17.517  0.00  0.00    +0.000 A 
ATOM     22  C   UNL     1       4.739   6.908  17.488  0.00  0.00    +0.000 A 
ATOM     23  C   UNL     1       6.049   6.423  17.504  0.00  0.00    +0.000 A 
ATOM     24  C   UNL     1       6.283   5.050  17.499  0.00  0.00    +0.000 A 
ATOM     25 CL   UNL     1       7.898   4.458  17.531  0.00  0.00    +0.000 Cl
ATOM     26  C   UNL     1       5.220   4.152  17.463  0.00  0.00    +0.000 A 
ATOM     27  C   UNL     1       3.911   4.636  17.467  0.00  0.00    +0.000 A 
ATOM     28 CL   UNL     1       2.617   3.490  17.415  0.00  0.00    +0.000 Cl
ENDBRANCH  20  21
ENDBRANCH   6  20
TORSDOF 5
ENDMDL
MODEL 6
REMARK VINA RESULT:      -7.1      2.653      5.167
REMARK  Name = 
REMARK  5 active torsions:
REMARK  status: ('A' for Active; 'I' for Inactive)
REMARK    1  A    between atoms: O_1  and  C_2
REMARK    2  A    between atoms: C_5  and  O_6
REMARK    3  A    between atoms: O_6  and  C_7
REMARK    4  A    between atoms: C_16  and  O_17
REMARK    5  A    between atoms: O_17  and  C_18
REMARK                            x       y       z     vdW  Elec       q    Type
REMARK                         _______ _______ _______ _____ _____    ______ ____
ROOT
ATOM      1  C   UNL     1       1.482   8.243  20.684  0.00  0.00    +0.000 A 
ATOM      2  C   UNL     1       2.180   7.386  19.820  0.00  0.00    +0.000 A 
ATOM      3 CL   UNL     1       3.184   6.172  20.548  0.00  0.00    +0.000 Cl
ATOM      4  C   UNL     1       2.097   7.584  18.436  0.00  0.00    +0.000 A 
ATOM      5  C   UNL     1       1.442   8.725  17.946  0.00  0.00    +0.000 A 
ATOM      6  C   UNL     1       0.873   9.659  18.820  0.00  0.00    +0.000 A 
ATOM      7  C   UNL     1       0.831   9.379  20.191  0.00  0.00    +0.000 A 
ATOM      8 CL   UNL     1       0.008  10.452  21.274  0.00  0.00    +0.000 Cl
ENDROOT
BRANCH   1   9
ATOM      9  O   UNL     1       1.434   7.979  22.036  0.00  0.00    +0.000 OA
ATOM     10  H   UNL     1       0.499   7.955  22.311  0.00  0.00    +0.000 HD
ENDBRANCH   1   9
BRANCH   4  11
ATOM     11  O   UNL     1       2.694   6.842  17.443  0.00  0.00    +0.000 OA
BRANCH  11  12
ATOM     12  C   UNL     1       2.860   5.480  17.555  0.00  0.00    +0.000 A 
ATOM     13  C   UNL     1       1.805   4.573  17.707  0.00  0.00    +0.000 A 
ATOM     14  C   UNL     1       2.074   3.225  17.944  0.00  0.00    +0.000 A 
ATOM     15  C   UNL     1       3.394   2.770  17.953  0.00  0.00    +0.000 A 
ATOM     16 CL   UNL     1       3.723   1.117  18.303  0.00  0.00    +0.000 Cl
ATOM     17  C   UNL     1       4.445   3.641  17.692  0.00  0.00    +0.000 A 
ATOM     18  C   UNL     1       4.174   4.994  17.489  0.00  0.00    +0.000 A 
ATOM     19 CL   UNL     1       5.503   6.052  17.160  0.00  0.00    +0.000 Cl
ENDBRANCH  11  12
ENDBRANCH   4  11
BRANCH   6  20
ATOM     20  O   UNL     1       0.288  10.825  18.377  0.00  0.00    +0.000 OA
BRANCH  20  21
ATOM     21  C   UNL     1      -1.070  10.875  18.135  0.00  0.00    +0.000 A 
ATOM     22  C   UNL     1      -1.757   9.922  17.370  0.00  0.00    +0.000 A 
ATOM     23  C   UNL     1      -3.140  10.027  17.196  0.00  0.00    +0.000 A 
ATOM     24  C   UNL     1      -3.829  11.107  17.744  0.00  0.00    +0.000 A 
ATOM     25 CL   UNL     1      -5.533  11.225  17.538  0.00  0.00    +0.000 Cl
ATOM     26  C   UNL     1      -3.149  12.094  18.451  0.00  0.00    +0.000 A 
ATOM     27  C   UNL     1      -1.772  11.979  18.642  0.00  0.00    +0.000 A 
ATOM     28 CL   UNL     1      -0.962  13.228  19.520  0.00  0.00    +0.000 Cl
ENDBRANCH  20  21
ENDBRANCH   6  20
TORSDOF 5
ENDMDL
MODEL 7
REMARK VINA RESULT:      -7.0      2.882      7.184
REMARK  Name = 
REMARK  5 active torsions:
REMARK  status: ('A' for Active; 'I' for Inactive)
REMARK    1  A    between atoms: O_1  and  C_2
REMARK    2  A    between atoms: C_5  and  O_6
REMARK    3  A    between atoms: O_6  and  C_7
REMARK    4  A    between atoms: C_16  and  O_17
REMARK    5  A    between atoms: O_17  and  C_18
REMARK                            x       y       z     vdW  Elec       q    Type
REMARK                         _______ _______ _______ _____ _____    ______ ____
ROOT
ATOM      1  C   UNL     1       1.553   8.479  20.743  0.00  0.00    +0.000 A 
ATOM      2  C   UNL     1       1.067   9.700  20.250  0.00  0.00    +0.000 A 
ATOM      3 CL   UNL     1       0.328  10.779  21.391  0.00  0.00    +0.000 Cl
ATOM      4  C   UNL     1       1.131   9.964  18.875  0.00  0.00    +0.000 A 
ATOM      5  C   UNL     1       1.539   8.944  18.001  0.00  0.00    +0.000 A 
ATOM      6  C   UNL     1       1.882   7.676  18.485  0.00  0.00    +0.000 A 
ATOM      7  C   UNL     1       1.958   7.466  19.868  0.00  0.00    +0.000 A 
ATOM      8 CL   UNL     1       2.516   5.949  20.489  0.00  0.00    +0.000 Cl
ENDROOT
BRANCH   1   9
ATOM      9  O   UNL     1       1.631   8.261  22.101  0.00  0.00    +0.000 OA
ATOM     10  H   UNL     1       1.922   7.342  22.248  0.00  0.00    +0.000 HD
ENDBRANCH   1   9
BRANCH   4  11
ATOM     11  O   UNL     1       0.722  11.100  18.217  0.00  0.00    +0.000 OA
BRANCH  11  12
ATOM     12  C   UNL     1       1.320  12.321  18.437  0.00  0.00    +0.000 A 
ATOM     13  C   UNL     1       2.665  12.594  18.161  0.00  0.00    +0.000 A 
ATOM     14  C   UNL     1       3.218  13.818  18.536  0.00  0.00    +0.000 A 
ATOM     15  C   UNL     1       2.410  14.798  19.118  0.00  0.00    +0.000 A 
ATOM     16 CL   UNL     1       3.110  16.284  19.631  0.00  0.00    +0.000 Cl
ATOM     17  C   UNL     1       1.050  14.580  19.295  0.00  0.00    +0.000 A 
ATOM     18  C   UNL     1       0.507  13.342  18.949  0.00  0.00    +0.000 A 
ATOM     19 CL   UNL     1      -1.192  13.105  19.175  0.00  0.00    +0.000 Cl
ENDBRANCH  11  12
ENDBRANCH   4  11
BRANCH   6  20
ATOM     20  O   UNL     1       2.216   6.631  17.651  0.00  0.00    +0.000 OA
BRANCH  20  21
ATOM     21  C   UNL     1       3.523   6.194  17.572  0.00  0.00    +0.000 A 
ATOM     22  C   UNL     1       4.626   7.055  17.489  0.00  0.00    +0.000 A 
ATOM     23  C   UNL     1       5.921   6.532  17.442  0.00  0.00    +0.000 A 
ATOM     24  C   UNL     1       6.115   5.152  17.429  0.00  0.00    +0.000 A 
ATOM     25 CL   UNL     1       7.711   4.514  17.384  0.00  0.00    +0.000 Cl
ATOM     26  C   UNL     1       5.025   4.286  17.446  0.00  0.00    +0.000 A 
ATOM     27  C   UNL     1       3.732   4.808  17.513  0.00  0.00    +0.000 A 
ATOM     28 CL   UNL     1       2.405   3.701  17.525  0.00  0.00    +0.000 Cl
ENDBRANCH  20  21
ENDBRANCH   6  20
TORSDOF 5
ENDMDL
MODEL 8
REMARK VINA RESULT:      -6.9      2.705      4.464
REMARK  Name = 
REMARK  5 active torsions:
REMARK  status: ('A' for Active; 'I' for Inactive)
REMARK    1  A    between atoms: O_1  and  C_2
REMARK    2  A    between atoms: C_5  and  O_6
REMARK    3  A    between atoms: O_6  and  C_7
REMARK    4  A    between atoms: C_16  and  O_17
REMARK    5  A    between atoms: O_17  and  C_18
REMARK                            x       y       z     vdW  Elec       q    Type
REMARK                         _______ _______ _______ _____ _____    ______ ____
ROOT
ATOM      1  C   UNL     1       1.517   8.132  20.575  0.00  0.00    +0.000 A 
ATOM      2  C   UNL     1       2.221   7.359  19.639  0.00  0.00    +0.000 A 
ATOM      3 CL   UNL     1       3.251   6.107  20.258  0.00  0.00    +0.000 Cl
ATOM      4  C   UNL     1       2.123   7.668  18.275  0.00  0.00    +0.000 A 
ATOM      5  C   UNL     1       1.446   8.833  17.885  0.00  0.00    +0.000 A 
ATOM      6  C   UNL     1       0.870   9.684  18.835  0.00  0.00    +0.000 A 
ATOM      7  C   UNL     1       0.844   9.293  20.180  0.00  0.00    +0.000 A 
ATOM      8 CL   UNL     1       0.014  10.261  21.353  0.00  0.00    +0.000 Cl
ENDROOT
BRANCH   1   9
ATOM      9  O   UNL     1       1.485   7.759  21.901  0.00  0.00    +0.000 OA
ATOM     10  H   UNL     1       2.273   8.126  22.342  0.00  0.00    +0.000 HD
ENDBRANCH   1   9
BRANCH   4  11
ATOM     11  O   UNL     1       2.723   7.018  17.222  0.00  0.00    +0.000 OA
BRANCH  11  12
ATOM     12  C   UNL     1       3.970   6.447  17.335  0.00  0.00    +0.000 A 
ATOM     13  C   UNL     1       5.159   7.179  17.432  0.00  0.00    +0.000 A 
ATOM     14  C   UNL     1       6.387   6.518  17.412  0.00  0.00    +0.000 A 
ATOM     15  C   UNL     1       6.426   5.122  17.372  0.00  0.00    +0.000 A 
ATOM     16 CL   UNL     1       7.943   4.315  17.289  0.00  0.00    +0.000 Cl
ATOM     17  C   UNL     1       5.251   4.381  17.388  0.00  0.00    +0.000 A 
ATOM     18  C   UNL     1       4.025   5.046  17.375  0.00  0.00    +0.000 A 
ATOM     19 CL   UNL     1       2.580   4.095  17.402  0.00  0.00    +0.000 Cl
ENDBRANCH  11  12
ENDBRANCH   4  11
BRANCH   6  20
ATOM     20  O   UNL     1       0.263  10.872  18.493  0.00  0.00    +0.000 OA
BRANCH  20  21
ATOM     21  C   UNL     1      -1.091  10.912  18.228  0.00  0.00    +0.000 A 
ATOM     22  C   UNL     1      -1.740  10.015  17.368  0.00  0.00    +0.000 A 
ATOM     23  C   UNL     1      -3.122  10.103  17.176  0.00  0.00    +0.000 A 
ATOM     24  C   UNL     1      -3.848  11.113  17.802  0.00  0.00    +0.000 A 
ATOM     25 CL   UNL     1      -5.550  11.209  17.573  0.00  0.00    +0.000 Cl
ATOM     26  C   UNL     1      -3.207  12.049  18.609  0.00  0.00    +0.000 A 
ATOM     27  C   UNL     1      -1.830  11.949  18.817  0.00  0.00    +0.000 A 
ATOM     28 CL   UNL     1      -1.068  13.133  19.819  0.00  0.00    +0.000 Cl
ENDBRANCH  20  21
ENDBRANCH   6  20
TORSDOF 5
ENDMDL
MODEL 9
REMARK VINA RESULT:      -6.9      5.453      9.151
REMARK  Name = 
REMARK  5 active torsions:
REMARK  status: ('A' for Active; 'I' for Inactive)
REMARK    1  A    between atoms: O_1  and  C_2
REMARK    2  A    between atoms: C_5  and  O_6
REMARK    3  A    between atoms: O_6  and  C_7
REMARK    4  A    between atoms: C_16  and  O_17
REMARK    5  A    between atoms: O_17  and  C_18
REMARK                            x       y       z     vdW  Elec       q    Type
REMARK                         _______ _______ _______ _____ _____    ______ ____
ROOT
ATOM      1  C   UNL     1       0.885   9.312  20.294  0.00  0.00    +0.000 A 
ATOM      2  C   UNL     1       0.320   9.847  19.126  0.00  0.00    +0.000 A 
ATOM      3 CL   UNL     1       0.905   9.238  17.610  0.00  0.00    +0.000 Cl
ATOM      4  C   UNL     1      -0.622  10.880  19.226  0.00  0.00    +0.000 A 
ATOM      5  C   UNL     1      -0.869  11.462  20.479  0.00  0.00    +0.000 A 
ATOM      6  C   UNL     1      -0.191  11.024  21.622  0.00  0.00    +0.000 A 
ATOM      7  C   UNL     1       0.636   9.896  21.540  0.00  0.00    +0.000 A 
ATOM      8 CL   UNL     1       1.374   9.252  22.969  0.00  0.00    +0.000 Cl
ENDROOT
BRANCH   1   9
ATOM      9  O   UNL     1       1.702   8.205  20.226  0.00  0.00    +0.000 OA
ATOM     10  H   UNL     1       2.327   8.329  19.488  0.00  0.00    +0.000 HD
ENDBRANCH   1   9
BRANCH   4  11
ATOM     11  O   UNL     1      -1.289  11.511  18.202  0.00  0.00    +0.000 OA
BRANCH  11  12
ATOM     12  C   UNL     1      -2.658  11.657  18.207  0.00  0.00    +0.000 A 
ATOM     13  C   UNL     1      -3.378  12.246  19.253  0.00  0.00    +0.000 A 
ATOM     14  C   UNL     1      -4.772  12.234  19.232  0.00  0.00    +0.000 A 
ATOM     15  C   UNL     1      -5.447  11.702  18.131  0.00  0.00    +0.000 A 
ATOM     16 CL   UNL     1      -7.166  11.637  18.136  0.00  0.00    +0.000 Cl
ATOM     17  C   UNL     1      -4.743  11.216  17.037  0.00  0.00    +0.000 A 
ATOM     18  C   UNL     1      -3.348  11.198  17.075  0.00  0.00    +0.000 A 
ATOM     19 CL   UNL     1      -2.501  10.593  15.694  0.00  0.00    +0.000 Cl
ENDBRANCH  11  12
ENDBRANCH   4  11
BRANCH   6  20
ATOM     20  O   UNL     1      -0.354  11.620  22.853  0.00  0.00    +0.000 OA
BRANCH  20  21
ATOM     21  C   UNL     1      -1.462  12.404  23.106  0.00  0.00    +0.000 A 
ATOM     22  C   UNL     1      -2.716  11.885  23.455  0.00  0.00    +0.000 A 
ATOM     23  C   UNL     1      -3.782  12.749  23.725  0.00  0.00    +0.000 A 
ATOM     24  C   UNL     1      -3.610  14.126  23.599  0.00  0.00    +0.000 A 
ATOM     25 CL   UNL     1      -4.921  15.185  23.944  0.00  0.00    +0.000 Cl
ATOM     26  C   UNL     1      -2.388  14.651  23.191  0.00  0.00    +0.000 A 
ATOM     27  C   UNL     1      -1.318  13.790  22.941  0.00  0.00    +0.000 A 
ATOM     28 CL   UNL     1       0.182  14.479  22.430  0.00  0.00    +0.000 Cl
ENDBRANCH  20  21
ENDBRANCH   6  20
TORSDOF 5
ENDMDL
