MODEL 1
REMARK VINA RESULT:      -7.8      0.000      0.000
REMARK  Name = 
REMARK  3 active torsions:
REMARK  status: ('A' for Active; 'I' for Inactive)
REMARK    1  A    between atoms: C_1  and  C_2
REMARK    2  A    between atoms: C_11  and  O_12
REMARK    3  A    between atoms: C_20  and  O_21
REMARK                            x       y       z     vdW  Elec       q    Type
REMARK                         _______ _______ _______ _____ _____    ______ ____
ROOT
ATOM      1  C   UNL     1       1.875   8.001  17.601  0.00  0.00    +0.000 C 
ATOM      2  C   UNL     1       2.565   7.121  18.678  0.00  0.00    +0.000 C 
ATOM      3  C   UNL     1       4.071   7.348  18.454  0.00  0.00    +0.000 C 
ATOM      4  C   UNL     1       4.602   6.430  17.355  0.00  0.00    +0.000 C 
ATOM      5  C   UNL     1       4.769   4.948  17.796  0.00  0.00    +0.000 C 
ATOM      6  C   UNL     1       5.625   4.771  19.072  0.00  0.00    +0.000 C 
ATOM      7  C   UNL     1       7.040   5.338  18.966  0.00  0.00    +0.000 C 
ATOM      8  C   UNL     1       7.791   4.634  17.859  0.00  0.00    +0.000 C 
ATOM      9  C   UNL     1       6.986   4.672  16.586  0.00  0.00    +0.000 A 
ATOM     10  C   UNL     1       7.612   5.042  15.393  0.00  0.00    +0.000 A 
ATOM     11  C   UNL     1       6.954   4.840  14.197  0.00  0.00    +0.000 A 
ATOM     12  C   UNL     1       5.754   4.134  14.186  0.00  0.00    +0.000 A 
ATOM     13  C   UNL     1       5.057   3.898  15.389  0.00  0.00    +0.000 A 
ATOM     14  C   UNL     1       5.605   4.336  16.603  0.00  0.00    +0.000 A 
ATOM     15  C   UNL     1       3.315   4.474  18.131  0.00  0.00    +0.000 C 
ATOM     16  C   UNL     1       2.269   5.561  18.674  0.00  0.00    +0.000 C 
ATOM     17  C   UNL     1       1.963   5.242  20.154  0.00  0.00    +0.000 C 
ATOM     18  C   UNL     1       1.254   6.463  20.688  0.00  0.00    +0.000 C 
ATOM     19  C   UNL     1       2.039   7.628  20.082  0.00  0.00    +0.000 C 
ENDROOT
BRANCH  11  20
ATOM     20  O   UNL     1       7.479   5.324  13.034  0.00  0.00    +0.000 OA
ATOM     21  H   UNL     1       8.234   5.899  13.271  0.00  0.00    +0.000 HD
ENDBRANCH  11  20
BRANCH  19  22
ATOM     22  O   UNL     1       1.183   8.767  20.053  0.00  0.00    +0.000 OA
ATOM     23  H   UNL     1       0.332   8.512  20.457  0.00  0.00    +0.000 HD
ENDBRANCH  19  22
TORSDOF 2
ENDMDL
MODEL 2
REMARK VINA RESULT:      -7.0      2.145      3.345
REMARK  Name = 
REMARK  3 active torsions:
REMARK  status: ('A' for Active; 'I' for Inactive)
REMARK    1  A    between atoms: C_1  and  C_2
REMARK    2  A    between atoms: C_11  and  O_12
REMARK    3  A    between atoms: C_20  and  O_21
REMARK                            x       y       z     vdW  Elec       q    Type
REMARK                         _______ _______ _______ _____ _____    ______ ____
ROOT
ATOM      1  C   UNL     1       1.862   1.701  18.274  0.00  0.00    +0.000 C 
ATOM      2  C   UNL     1       2.009   3.071  18.988  0.00  0.00    +0.000 C 
ATOM      3  C   UNL     1       2.048   4.099  17.843  0.00  0.00    +0.000 C 
ATOM      4  C   UNL     1       3.461   4.234  17.280  0.00  0.00    +0.000 C 
ATOM      5  C   UNL     1       4.431   5.035  18.193  0.00  0.00    +0.000 C 
ATOM      6  C   UNL     1       3.900   6.434  18.589  0.00  0.00    +0.000 C 
ATOM      7  C   UNL     1       3.588   7.348  17.405  0.00  0.00    +0.000 C 
ATOM      8  C   UNL     1       4.844   7.592  16.602  0.00  0.00    +0.000 C 
ATOM      9  C   UNL     1       5.490   6.278  16.246  0.00  0.00    +0.000 A 
ATOM     10  C   UNL     1       5.910   6.057  14.932  0.00  0.00    +0.000 A 
ATOM     11  C   UNL     1       6.719   4.972  14.658  0.00  0.00    +0.000 A 
ATOM     12  C   UNL     1       7.225   4.211  15.708  0.00  0.00    +0.000 A 
ATOM     13  C   UNL     1       6.685   4.341  17.004  0.00  0.00    +0.000 A 
ATOM     14  C   UNL     1       5.667   5.276  17.239  0.00  0.00    +0.000 A 
ATOM     15  C   UNL     1       4.533   4.180  19.501  0.00  0.00    +0.000 C 
ATOM     16  C   UNL     1       3.268   3.296  19.930  0.00  0.00    +0.000 C 
ATOM     17  C   UNL     1       2.662   3.907  21.213  0.00  0.00    +0.000 C 
ATOM     18  C   UNL     1       1.312   3.248  21.370  0.00  0.00    +0.000 C 
ATOM     19  C   UNL     1       0.757   3.221  19.945  0.00  0.00    +0.000 C 
ENDROOT
BRANCH  11  20
ATOM     20  O   UNL     1       7.022   4.651  13.366  0.00  0.00    +0.000 OA
ATOM     21  H   UNL     1       7.381   5.456  12.942  0.00  0.00    +0.000 HD
ENDBRANCH  11  20
BRANCH  19  22
ATOM     22  O   UNL     1      -0.212   2.179  19.871  0.00  0.00    +0.000 OA
ATOM     23  H   UNL     1       0.265   1.328  19.822  0.00  0.00    +0.000 HD
ENDBRANCH  19  22
TORSDOF 2
ENDMDL
MODEL 3
REMARK VINA RESULT:      -6.4      2.602      3.755
REMARK  Name = 
REMARK  3 active torsions:
REMARK  status: ('A' for Active; 'I' for Inactive)
REMARK    1  A    between atoms: C_1  and  C_2
REMARK    2  A    between atoms: C_11  and  O_12
REMARK    3  A    between atoms: C_20  and  O_21
REMARK                            x       y       z     vdW  Elec       q    Type
REMARK                         _______ _______ _______ _____ _____    ______ ____
ROOT
ATOM      1  C   UNL     1       2.700   4.518  21.504  0.00  0.00    +0.000 C 
ATOM      2  C   UNL     1       2.583   3.770  20.149  0.00  0.00    +0.000 C 
ATOM      3  C   UNL     1       4.040   3.537  19.710  0.00  0.00    +0.000 C 
ATOM      4  C   UNL     1       4.595   4.765  18.992  0.00  0.00    +0.000 C 
ATOM      5  C   UNL     1       4.061   4.943  17.542  0.00  0.00    +0.000 C 
ATOM      6  C   UNL     1       4.255   3.694  16.650  0.00  0.00    +0.000 C 
ATOM      7  C   UNL     1       5.706   3.239  16.508  0.00  0.00    +0.000 C 
ATOM      8  C   UNL     1       6.526   4.337  15.871  0.00  0.00    +0.000 C 
ATOM      9  C   UNL     1       6.328   5.628  16.622  0.00  0.00    +0.000 A 
ATOM     10  C   UNL     1       7.444   6.392  16.974  0.00  0.00    +0.000 A 
ATOM     11  C   UNL     1       7.259   7.681  17.432  0.00  0.00    +0.000 A 
ATOM     12  C   UNL     1       5.989   8.248  17.390  0.00  0.00    +0.000 A 
ATOM     13  C   UNL     1       4.855   7.436  17.181  0.00  0.00    +0.000 A 
ATOM     14  C   UNL     1       5.019   6.061  16.967  0.00  0.00    +0.000 A 
ATOM     15  C   UNL     1       2.521   5.166  17.718  0.00  0.00    +0.000 C 
ATOM     16  C   UNL     1       1.792   4.477  18.967  0.00  0.00    +0.000 C 
ATOM     17  C   UNL     1       0.861   3.366  18.433  0.00  0.00    +0.000 C 
ATOM     18  C   UNL     1       0.471   2.554  19.645  0.00  0.00    +0.000 C 
ATOM     19  C   UNL     1       1.777   2.439  20.435  0.00  0.00    +0.000 C 
ENDROOT
BRANCH  11  20
ATOM     20  O   UNL     1       8.317   8.394  17.918  0.00  0.00    +0.000 OA
ATOM     21  H   UNL     1       9.114   7.834  17.828  0.00  0.00    +0.000 HD
ENDBRANCH  11  20
BRANCH  19  22
ATOM     22  O   UNL     1       1.444   2.191  21.798  0.00  0.00    +0.000 OA
ATOM     23  H   UNL     1       1.892   2.866  22.343  0.00  0.00    +0.000 HD
ENDBRANCH  19  22
TORSDOF 2
ENDMDL
MODEL 4
REMARK VINA RESULT:      -6.3      9.292     11.741
REMARK  Name = 
REMARK  3 active torsions:
REMARK  status: ('A' for Active; 'I' for Inactive)
REMARK    1  A    between atoms: C_1  and  C_2
REMARK    2  A    between atoms: C_11  and  O_12
REMARK    3  A    between atoms: C_20  and  O_21
REMARK                            x       y       z     vdW  Elec       q    Type
REMARK                         _______ _______ _______ _____ _____    ______ ____
ROOT
ATOM      1  C   UNL     1       8.989  16.490  17.875  0.00  0.00    +0.000 C 
ATOM      2  C   UNL     1       9.975  15.362  18.279  0.00  0.00    +0.000 C 
ATOM      3  C   UNL     1       9.072  14.162  18.613  0.00  0.00    +0.000 C 
ATOM      4  C   UNL     1       8.566  14.244  20.052  0.00  0.00    +0.000 C 
ATOM      5  C   UNL     1       9.639  13.887  21.119  0.00  0.00    +0.000 C 
ATOM      6  C   UNL     1      10.313  12.513  20.889  0.00  0.00    +0.000 C 
ATOM      7  C   UNL     1       9.343  11.333  20.859  0.00  0.00    +0.000 C 
ATOM      8  C   UNL     1       8.624  11.228  22.184  0.00  0.00    +0.000 C 
ATOM      9  C   UNL     1       8.008  12.555  22.542  0.00  0.00    +0.000 A 
ATOM     10  C   UNL     1       6.682  12.597  22.980  0.00  0.00    +0.000 A 
ATOM     11  C   UNL     1       6.196  13.761  23.542  0.00  0.00    +0.000 A 
ATOM     12  C   UNL     1       7.070  14.812  23.804  0.00  0.00    +0.000 A 
ATOM     13  C   UNL     1       8.358  14.826  23.230  0.00  0.00    +0.000 A 
ATOM     14  C   UNL     1       8.771  13.749  22.433  0.00  0.00    +0.000 A 
ATOM     15  C   UNL     1      10.739  14.988  20.952  0.00  0.00    +0.000 C 
ATOM     16  C   UNL     1      10.958  15.627  19.498  0.00  0.00    +0.000 C 
ATOM     17  C   UNL     1      12.333  15.164  18.968  0.00  0.00    +0.000 C 
ATOM     18  C   UNL     1      12.333  15.513  17.499  0.00  0.00    +0.000 C 
ATOM     19  C   UNL     1      10.927  15.126  17.037  0.00  0.00    +0.000 C 
ENDROOT
BRANCH  11  20
ATOM     20  O   UNL     1       4.870  13.876  23.843  0.00  0.00    +0.000 OA
ATOM     21  H   UNL     1       4.708  13.353  24.654  0.00  0.00    +0.000 HD
ENDBRANCH  11  20
BRANCH  19  22
ATOM     22  O   UNL     1      10.626  15.880  15.867  0.00  0.00    +0.000 OA
ATOM     23  H   UNL     1      10.509  15.253  15.128  0.00  0.00    +0.000 HD
ENDBRANCH  19  22
TORSDOF 2
ENDMDL
MODEL 5
REMARK VINA RESULT:      -6.3      2.243      3.968
REMARK  Name = 
REMARK  3 active torsions:
REMARK  status: ('A' for Active; 'I' for Inactive)
REMARK    1  A    between atoms: C_1  and  C_2
REMARK    2  A    between atoms: C_11  and  O_12
REMARK    3  A    between atoms: C_20  and  O_21
REMARK                            x       y       z     vdW  Elec       q    Type
REMARK                         _______ _______ _______ _____ _____    ______ ____
ROOT
ATOM      1  C   UNL     1       2.192   8.976  21.843  0.00  0.00    +0.000 C 
ATOM      2  C   UNL     1       1.280   8.485  20.687  0.00  0.00    +0.000 C 
ATOM      3  C   UNL     1       1.570   6.977  20.581  0.00  0.00    +0.000 C 
ATOM      4  C   UNL     1       2.807   6.719  19.724  0.00  0.00    +0.000 C 
ATOM      5  C   UNL     1       2.567   6.902  18.199  0.00  0.00    +0.000 C 
ATOM      6  C   UNL     1       1.380   6.072  17.652  0.00  0.00    +0.000 C 
ATOM      7  C   UNL     1       1.506   4.567  17.879  0.00  0.00    +0.000 C 
ATOM      8  C   UNL     1       2.738   4.045  17.176  0.00  0.00    +0.000 C 
ATOM      9  C   UNL     1       3.942   4.857  17.577  0.00  0.00    +0.000 A 
ATOM     10  C   UNL     1       5.117   4.199  17.949  0.00  0.00    +0.000 A 
ATOM     11  C   UNL     1       6.284   4.926  18.072  0.00  0.00    +0.000 A 
ATOM     12  C   UNL     1       6.306   6.260  17.677  0.00  0.00    +0.000 A 
ATOM     13  C   UNL     1       5.099   6.954  17.449  0.00  0.00    +0.000 A 
ATOM     14  C   UNL     1       3.878   6.277  17.576  0.00  0.00    +0.000 A 
ATOM     15  C   UNL     1       2.200   8.415  18.039  0.00  0.00    +0.000 C 
ATOM     16  C   UNL     1       1.460   9.149  19.255  0.00  0.00    +0.000 C 
ATOM     17  C   UNL     1       0.015   9.475  18.818  0.00  0.00    +0.000 C 
ATOM     18  C   UNL     1      -0.712   9.850  20.087  0.00  0.00    +0.000 C 
ATOM     19  C   UNL     1      -0.207   8.827  21.106  0.00  0.00    +0.000 C 
ENDROOT
BRANCH  11  20
ATOM     20  O   UNL     1       7.409   4.337  18.574  0.00  0.00    +0.000 OA
ATOM     21  H   UNL     1       8.078   4.331  17.861  0.00  0.00    +0.000 HD
ENDBRANCH  11  20
BRANCH  19  22
ATOM     22  O   UNL     1      -0.376   9.383  22.407  0.00  0.00    +0.000 OA
ATOM     23  H   UNL     1       0.254  10.122  22.501  0.00  0.00    +0.000 HD
ENDBRANCH  19  22
TORSDOF 2
ENDMDL
MODEL 6
REMARK VINA RESULT:      -6.0      8.942     11.672
REMARK  Name = 
REMARK  3 active torsions:
REMARK  status: ('A' for Active; 'I' for Inactive)
REMARK    1  A    between atoms: C_1  and  C_2
REMARK    2  A    between atoms: C_11  and  O_12
REMARK    3  A    between atoms: C_20  and  O_21
REMARK                            x       y       z     vdW  Elec       q    Type
REMARK                         _______ _______ _______ _____ _____    ______ ____
ROOT
ATOM      1  C   UNL     1       9.851  11.133  18.727  0.00  0.00    +0.000 C 
ATOM      2  C   UNL     1      10.363  12.588  18.905  0.00  0.00    +0.000 C 
ATOM      3  C   UNL     1      10.524  12.756  20.426  0.00  0.00    +0.000 C 
ATOM      4  C   UNL     1       9.196  13.138  21.076  0.00  0.00    +0.000 C 
ATOM      5  C   UNL     1       8.778  14.616  20.836  0.00  0.00    +0.000 C 
ATOM      6  C   UNL     1       9.862  15.644  21.241  0.00  0.00    +0.000 C 
ATOM      7  C   UNL     1      10.292  15.563  22.704  0.00  0.00    +0.000 C 
ATOM      8  C   UNL     1       9.106  15.833  23.601  0.00  0.00    +0.000 C 
ATOM      9  C   UNL     1       7.956  14.937  23.219  0.00  0.00    +0.000 A 
ATOM     10  C   UNL     1       7.265  14.248  24.219  0.00  0.00    +0.000 A 
ATOM     11  C   UNL     1       6.070  13.631  23.908  0.00  0.00    +0.000 A 
ATOM     12  C   UNL     1       5.499  13.835  22.654  0.00  0.00    +0.000 A 
ATOM     13  C   UNL     1       6.262  14.398  21.609  0.00  0.00    +0.000 A 
ATOM     14  C   UNL     1       7.583  14.796  21.855  0.00  0.00    +0.000 A 
ATOM     15  C   UNL     1       8.582  14.720  19.286  0.00  0.00    +0.000 C 
ATOM     16  C   UNL     1       9.467  13.773  18.344  0.00  0.00    +0.000 C 
ATOM     17  C   UNL     1      10.470  14.658  17.572  0.00  0.00    +0.000 C 
ATOM     18  C   UNL     1      11.471  13.699  16.973  0.00  0.00    +0.000 C 
ATOM     19  C   UNL     1      11.721  12.692  18.098  0.00  0.00    +0.000 C 
ENDROOT
BRANCH  11  20
ATOM     20  O   UNL     1       5.451  12.832  24.825  0.00  0.00    +0.000 OA
ATOM     21  H   UNL     1       5.835  11.937  24.739  0.00  0.00    +0.000 HD
ENDBRANCH  11  20
BRANCH  19  22
ATOM     22  O   UNL     1      12.190  11.483  17.509  0.00  0.00    +0.000 OA
ATOM     23  H   UNL     1      12.897  11.713  16.875  0.00  0.00    +0.000 HD
ENDBRANCH  19  22
TORSDOF 2
ENDMDL
MODEL 7
REMARK VINA RESULT:      -6.0      8.980     11.616
REMARK  Name = 
REMARK  3 active torsions:
REMARK  status: ('A' for Active; 'I' for Inactive)
REMARK    1  A    between atoms: C_1  and  C_2
REMARK    2  A    between atoms: C_11  and  O_12
REMARK    3  A    between atoms: C_20  and  O_21
REMARK                            x       y       z     vdW  Elec       q    Type
REMARK                         _______ _______ _______ _____ _____    ______ ____
ROOT
ATOM      1  C   UNL     1      10.300  10.919  19.134  0.00  0.00    +0.000 C 
ATOM      2  C   UNL     1      10.439  12.465  19.164  0.00  0.00    +0.000 C 
ATOM      3  C   UNL     1      10.866  12.785  20.608  0.00  0.00    +0.000 C 
ATOM      4  C   UNL     1       9.650  12.870  21.529  0.00  0.00    +0.000 C 
ATOM      5  C   UNL     1       8.819  14.173  21.358  0.00  0.00    +0.000 C 
ATOM      6  C   UNL     1       9.657  15.467  21.492  0.00  0.00    +0.000 C 
ATOM      7  C   UNL     1      10.389  15.610  22.824  0.00  0.00    +0.000 C 
ATOM      8  C   UNL     1       9.389  15.642  23.957  0.00  0.00    +0.000 C 
ATOM      9  C   UNL     1       8.461  14.460  23.858  0.00  0.00    +0.000 A 
ATOM     10  C   UNL     1       8.200  13.698  25.000  0.00  0.00    +0.000 A 
ATOM     11  C   UNL     1       7.170  12.779  24.975  0.00  0.00    +0.000 A 
ATOM     12  C   UNL     1       6.317  12.736  23.876  0.00  0.00    +0.000 A 
ATOM     13  C   UNL     1       6.669  13.390  22.677  0.00  0.00    +0.000 A 
ATOM     14  C   UNL     1       7.861  14.125  22.614  0.00  0.00    +0.000 A 
ATOM     15  C   UNL     1       8.283  14.105  19.889  0.00  0.00    +0.000 C 
ATOM     16  C   UNL     1       9.167  13.340  18.793  0.00  0.00    +0.000 C 
ATOM     17  C   UNL     1       9.718  14.386  17.799  0.00  0.00    +0.000 C 
ATOM     18  C   UNL     1      10.787  13.666  17.013  0.00  0.00    +0.000 C 
ATOM     19  C   UNL     1      11.522  12.844  18.074  0.00  0.00    +0.000 C 
ENDROOT
BRANCH  11  20
ATOM     20  O   UNL     1       6.989  11.924  26.022  0.00  0.00    +0.000 OA
ATOM     21  H   UNL     1       7.728  11.283  26.009  0.00  0.00    +0.000 HD
ENDBRANCH  11  20
BRANCH  19  22
ATOM     22  O   UNL     1      12.157  11.750  17.419  0.00  0.00    +0.000 OA
ATOM     23  H   UNL     1      13.089  11.725  17.712  0.00  0.00    +0.000 HD
ENDBRANCH  19  22
TORSDOF 2
ENDMDL
MODEL 8
REMARK VINA RESULT:      -5.9      1.695      2.170
REMARK  Name = 
REMARK  3 active torsions:
REMARK  status: ('A' for Active; 'I' for Inactive)
REMARK    1  A    between atoms: C_1  and  C_2
REMARK    2  A    between atoms: C_11  and  O_12
REMARK    3  A    between atoms: C_20  and  O_21
REMARK                            x       y       z     vdW  Elec       q    Type
REMARK                         _______ _______ _______ _____ _____    ______ ____
ROOT
ATOM      1  C   UNL     1       1.018   4.394  17.978  0.00  0.00    +0.000 C 
ATOM      2  C   UNL     1       2.138   4.264  19.046  0.00  0.00    +0.000 C 
ATOM      3  C   UNL     1       3.113   5.410  18.722  0.00  0.00    +0.000 C 
ATOM      4  C   UNL     1       4.097   4.995  17.631  0.00  0.00    +0.000 C 
ATOM      5  C   UNL     1       5.210   4.026  18.120  0.00  0.00    +0.000 C 
ATOM      6  C   UNL     1       5.994   4.548  19.348  0.00  0.00    +0.000 C 
ATOM      7  C   UNL     1       6.678   5.896  19.134  0.00  0.00    +0.000 C 
ATOM      8  C   UNL     1       7.686   5.786  18.013  0.00  0.00    +0.000 C 
ATOM      9  C   UNL     1       7.033   5.195  16.790  0.00  0.00    +0.000 A 
ATOM     10  C   UNL     1       7.235   5.801  15.547  0.00  0.00    +0.000 A 
ATOM     11  C   UNL     1       6.852   5.131  14.402  0.00  0.00    +0.000 A 
ATOM     12  C   UNL     1       6.419   3.812  14.493  0.00  0.00    +0.000 A 
ATOM     13  C   UNL     1       6.075   3.261  15.745  0.00  0.00    +0.000 A 
ATOM     14  C   UNL     1       6.220   4.035  16.904  0.00  0.00    +0.000 A 
ATOM     15  C   UNL     1       4.440   2.737  18.562  0.00  0.00    +0.000 C 
ATOM     16  C   UNL     1       2.948   2.900  19.123  0.00  0.00    +0.000 C 
ATOM     17  C   UNL     1       2.957   2.564  20.631  0.00  0.00    +0.000 C 
ATOM     18  C   UNL     1       1.628   3.050  21.158  0.00  0.00    +0.000 C 
ATOM     19  C   UNL     1       1.435   4.397  20.458  0.00  0.00    +0.000 C 
ENDROOT
BRANCH  11  20
ATOM     20  O   UNL     1       6.904   5.758  13.191  0.00  0.00    +0.000 OA
ATOM     21  H   UNL     1       6.472   6.630  13.294  0.00  0.00    +0.000 HD
ENDBRANCH  11  20
BRANCH  19  22
ATOM     22  O   UNL     1       0.040   4.684  20.436  0.00  0.00    +0.000 OA
ATOM     23  H   UNL     1      -0.068   5.634  20.237  0.00  0.00    +0.000 HD
ENDBRANCH  19  22
TORSDOF 2
ENDMDL
MODEL 9
REMARK VINA RESULT:      -5.8      6.696      9.999
REMARK  Name = 
REMARK  3 active torsions:
REMARK  status: ('A' for Active; 'I' for Inactive)
REMARK    1  A    between atoms: C_1  and  C_2
REMARK    2  A    between atoms: C_11  and  O_12
REMARK    3  A    between atoms: C_20  and  O_21
REMARK                            x       y       z     vdW  Elec       q    Type
REMARK                         _______ _______ _______ _____ _____    ______ ____
ROOT
ATOM      1  C   UNL     1       3.173  14.998  18.985  0.00  0.00    +0.000 C 
ATOM      2  C   UNL     1       1.748  15.299  19.523  0.00  0.00    +0.000 C 
ATOM      3  C   UNL     1       1.692  14.585  20.885  0.00  0.00    +0.000 C 
ATOM      4  C   UNL     1       1.324  13.113  20.715  0.00  0.00    +0.000 C 
ATOM      5  C   UNL     1      -0.177  12.871  20.392  0.00  0.00    +0.000 C 
ATOM      6  C   UNL     1      -1.146  13.529  21.405  0.00  0.00    +0.000 C 
ATOM      7  C   UNL     1      -0.950  13.076  22.850  0.00  0.00    +0.000 C 
ATOM      8  C   UNL     1      -1.186  11.587  22.955  0.00  0.00    +0.000 C 
ATOM      9  C   UNL     1      -0.349  10.860  21.935  0.00  0.00    +0.000 A 
ATOM     10  C   UNL     1       0.392   9.743  22.330  0.00  0.00    +0.000 A 
ATOM     11  C   UNL     1       0.954   8.933  21.364  0.00  0.00    +0.000 A 
ATOM     12  C   UNL     1       0.647   9.150  20.024  0.00  0.00    +0.000 A 
ATOM     13  C   UNL     1       0.031  10.354  19.622  0.00  0.00    +0.000 A 
ATOM     14  C   UNL     1      -0.315  11.309  20.587  0.00  0.00    +0.000 A 
ATOM     15  C   UNL     1      -0.397  13.567  19.007  0.00  0.00    +0.000 C 
ATOM     16  C   UNL     1       0.504  14.843  18.648  0.00  0.00    +0.000 C 
ATOM     17  C   UNL     1      -0.408  16.090  18.629  0.00  0.00    +0.000 C 
ATOM     18  C   UNL     1       0.531  17.272  18.618  0.00  0.00    +0.000 C 
ATOM     19  C   UNL     1       1.621  16.873  19.615  0.00  0.00    +0.000 C 
ENDROOT
BRANCH  11  20
ATOM     20  O   UNL     1       1.800   7.924  21.722  0.00  0.00    +0.000 OA
ATOM     21  H   UNL     1       2.317   7.680  20.928  0.00  0.00    +0.000 HD
ENDBRANCH  11  20
BRANCH  19  22
ATOM     22  O   UNL     1       2.797  17.613  19.299  0.00  0.00    +0.000 OA
ATOM     23  H   UNL     1       3.555  17.168  19.725  0.00  0.00    +0.000 HD
ENDBRANCH  19  22
TORSDOF 2
ENDMDL
