MODEL 1
REMARK VINA RESULT:      -8.1      0.000      0.000
REMARK  Name = 
REMARK  3 active torsions:
REMARK  status: ('A' for Active; 'I' for Inactive)
REMARK    1  A    between atoms: C_2  and  O_3
REMARK    2  A    between atoms: C_2  and  C_14
REMARK    3  A    between atoms: O_3  and  C_4
REMARK                            x       y       z     vdW  Elec       q    Type
REMARK                         _______ _______ _______ _____ _____    ______ ____
ROOT
ATOM      1  C   UNL     1       5.253   4.221  17.919  0.00  0.00    +0.000 A 
ATOM      2  C   UNL     1       5.753   4.778  19.103  0.00  0.00    +0.000 A 
ATOM      3  C   UNL     1       6.893   5.608  19.089  0.00  0.00    +0.000 A 
ATOM      4  C   UNL     1       7.561   5.881  17.893  0.00  0.00    +0.000 A 
ATOM      5  C   UNL     1       7.068   5.297  16.743  0.00  0.00    +0.000 A 
ATOM      6  O   UNL     1       7.610   5.451  15.476  0.00  0.00    +0.000 OA
ATOM      7  C   UNL     1       6.746   4.687  14.688  0.00  0.00    +0.000 A 
ATOM      8  O   UNL     1       6.864   4.560  13.478  0.00  0.00    +0.000 OA
ATOM      9  N   UNL     1       5.766   4.113  15.455  0.00  0.00    +0.000 N 
ATOM     10  C   UNL     1       5.946   4.490  16.756  0.00  0.00    +0.000 A 
ATOM     11  H   UNL     1       4.990   3.561  15.100  0.00  0.00    +0.000 HD
ENDROOT
BRANCH   1  12
ATOM     12  O   UNL     1       4.080   3.448  18.069  0.00  0.00    +0.000 OA
BRANCH  12  14
ATOM     13  O   UNL     1       2.002   3.381  16.999  0.00  0.00    +0.000 OA
ATOM     14  C   UNL     1       2.789   3.875  17.795  0.00  0.00    +0.000 C 
BRANCH  14  15
ATOM     15  C   UNL     1       2.440   5.081  18.596  0.00  0.00    +0.000 A 
ATOM     16  C   UNL     1       1.973   4.869  19.903  0.00  0.00    +0.000 A 
ATOM     17  C   UNL     1       1.652   5.949  20.730  0.00  0.00    +0.000 A 
ATOM     18  C   UNL     1       1.798   7.247  20.251  0.00  0.00    +0.000 A 
ATOM     19 CL   UNL     1       1.436   8.579  21.278  0.00  0.00    +0.000 Cl
ATOM     20  C   UNL     1       2.241   7.473  18.947  0.00  0.00    +0.000 A 
ATOM     21  C   UNL     1       2.562   6.391  18.116  0.00  0.00    +0.000 A 
ENDBRANCH  14  15
ENDBRANCH  12  14
ENDBRANCH   1  12
TORSDOF 3
ENDMDL
MODEL 2
REMARK VINA RESULT:      -8.0      0.072      1.084
REMARK  Name = 
REMARK  3 active torsions:
REMARK  status: ('A' for Active; 'I' for Inactive)
REMARK    1  A    between atoms: C_2  and  O_3
REMARK    2  A    between atoms: C_2  and  C_14
REMARK    3  A    between atoms: O_3  and  C_4
REMARK                            x       y       z     vdW  Elec       q    Type
REMARK                         _______ _______ _______ _____ _____    ______ ____
ROOT
ATOM      1  C   UNL     1       5.220   4.191  17.882  0.00  0.00    +0.000 A 
ATOM      2  C   UNL     1       5.707   4.726  19.082  0.00  0.00    +0.000 A 
ATOM      3  C   UNL     1       6.847   5.555  19.097  0.00  0.00    +0.000 A 
ATOM      4  C   UNL     1       7.530   5.850  17.914  0.00  0.00    +0.000 A 
ATOM      5  C   UNL     1       7.049   5.289  16.748  0.00  0.00    +0.000 A 
ATOM      6  O   UNL     1       7.606   5.467  15.490  0.00  0.00    +0.000 OA
ATOM      7  C   UNL     1       6.751   4.718  14.678  0.00  0.00    +0.000 A 
ATOM      8  O   UNL     1       6.883   4.615  13.467  0.00  0.00    +0.000 OA
ATOM      9  N   UNL     1       5.761   4.131  15.422  0.00  0.00    +0.000 N 
ATOM     10  C   UNL     1       5.926   4.483  16.732  0.00  0.00    +0.000 A 
ATOM     11  H   UNL     1       4.990   3.586  15.048  0.00  0.00    +0.000 HD
ENDROOT
BRANCH   1  12
ATOM     12  O   UNL     1       4.045   3.417  18.003  0.00  0.00    +0.000 OA
BRANCH  12  14
ATOM     13  O   UNL     1       1.946   3.450  16.973  0.00  0.00    +0.000 OA
ATOM     14  C   UNL     1       2.752   3.870  17.793  0.00  0.00    +0.000 C 
BRANCH  14  15
ATOM     15  C   UNL     1       2.424   5.004  18.701  0.00  0.00    +0.000 A 
ATOM     16  C   UNL     1       2.565   6.302  18.183  0.00  0.00    +0.000 A 
ATOM     17  C   UNL     1       2.250   7.418  18.962  0.00  0.00    +0.000 A 
ATOM     18  C   UNL     1       1.791   7.240  20.263  0.00  0.00    +0.000 A 
ATOM     19 CL   UNL     1       1.370   8.612  21.212  0.00  0.00    +0.000 Cl
ATOM     20  C   UNL     1       1.666   5.958  20.799  0.00  0.00    +0.000 A 
ATOM     21  C   UNL     1       1.983   4.836  20.019  0.00  0.00    +0.000 A 
ENDBRANCH  14  15
ENDBRANCH  12  14
ENDBRANCH   1  12
TORSDOF 3
ENDMDL
MODEL 3
REMARK VINA RESULT:      -7.8      2.700      3.588
REMARK  Name = 
REMARK  3 active torsions:
REMARK  status: ('A' for Active; 'I' for Inactive)
REMARK    1  A    between atoms: C_2  and  O_3
REMARK    2  A    between atoms: C_2  and  C_14
REMARK    3  A    between atoms: O_3  and  C_4
REMARK                            x       y       z     vdW  Elec       q    Type
REMARK                         _______ _______ _______ _____ _____    ______ ____
ROOT
ATOM      1  C   UNL     1       5.290   6.567  17.141  0.00  0.00    +0.000 A 
ATOM      2  C   UNL     1       5.004   6.151  15.834  0.00  0.00    +0.000 A 
ATOM      3  C   UNL     1       5.739   5.111  15.228  0.00  0.00    +0.000 A 
ATOM      4  C   UNL     1       6.782   4.481  15.912  0.00  0.00    +0.000 A 
ATOM      5  C   UNL     1       7.064   4.928  17.187  0.00  0.00    +0.000 A 
ATOM      6  O   UNL     1       8.066   4.426  18.003  0.00  0.00    +0.000 OA
ATOM      7  C   UNL     1       7.920   5.193  19.161  0.00  0.00    +0.000 A 
ATOM      8  O   UNL     1       8.617   5.060  20.157  0.00  0.00    +0.000 OA
ATOM      9  N   UNL     1       6.898   6.096  19.022  0.00  0.00    +0.000 N 
ATOM     10  C   UNL     1       6.339   5.942  17.785  0.00  0.00    +0.000 A 
ATOM     11  H   UNL     1       6.565   6.722  19.749  0.00  0.00    +0.000 HD
ENDROOT
BRANCH   1  12
ATOM     12  O   UNL     1       4.449   7.585  17.644  0.00  0.00    +0.000 OA
BRANCH  12  14
ATOM     13  O   UNL     1       2.285   8.357  17.213  0.00  0.00    +0.000 OA
ATOM     14  C   UNL     1       3.064   7.542  17.687  0.00  0.00    +0.000 C 
BRANCH  14  15
ATOM     15  C   UNL     1       2.586   6.344  18.433  0.00  0.00    +0.000 A 
ATOM     16  C   UNL     1       2.614   6.408  19.835  0.00  0.00    +0.000 A 
ATOM     17  C   UNL     1       2.156   5.338  20.607  0.00  0.00    +0.000 A 
ATOM     18  C   UNL     1       1.664   4.198  19.977  0.00  0.00    +0.000 A 
ATOM     19 CL   UNL     1       1.067   2.892  20.926  0.00  0.00    +0.000 Cl
ATOM     20  C   UNL     1       1.649   4.112  18.585  0.00  0.00    +0.000 A 
ATOM     21  C   UNL     1       2.111   5.184  17.809  0.00  0.00    +0.000 A 
ENDBRANCH  14  15
ENDBRANCH  12  14
ENDBRANCH   1  12
TORSDOF 3
ENDMDL
MODEL 4
REMARK VINA RESULT:      -7.7      1.378      2.634
REMARK  Name = 
REMARK  3 active torsions:
REMARK  status: ('A' for Active; 'I' for Inactive)
REMARK    1  A    between atoms: C_2  and  O_3
REMARK    2  A    between atoms: C_2  and  C_14
REMARK    3  A    between atoms: O_3  and  C_4
REMARK                            x       y       z     vdW  Elec       q    Type
REMARK                         _______ _______ _______ _____ _____    ______ ____
ROOT
ATOM      1  C   UNL     1       5.211   4.097  16.699  0.00  0.00    +0.000 A 
ATOM      2  C   UNL     1       5.162   3.507  15.429  0.00  0.00    +0.000 A 
ATOM      3  C   UNL     1       6.039   3.920  14.405  0.00  0.00    +0.000 A 
ATOM      4  C   UNL     1       6.967   4.939  14.628  0.00  0.00    +0.000 A 
ATOM      5  C   UNL     1       6.978   5.525  15.878  0.00  0.00    +0.000 A 
ATOM      6  O   UNL     1       7.823   6.552  16.270  0.00  0.00    +0.000 OA
ATOM      7  C   UNL     1       7.444   6.759  17.598  0.00  0.00    +0.000 A 
ATOM      8  O   UNL     1       7.962   7.591  18.330  0.00  0.00    +0.000 OA
ATOM      9  N   UNL     1       6.430   5.909  17.955  0.00  0.00    +0.000 N 
ATOM     10  C   UNL     1       6.124   5.115  16.885  0.00  0.00    +0.000 A 
ATOM     11  H   UNL     1       6.028   5.832  18.884  0.00  0.00    +0.000 HD
ENDROOT
BRANCH   1  12
ATOM     12  O   UNL     1       4.310   3.558  17.646  0.00  0.00    +0.000 OA
BRANCH  12  14
ATOM     13  O   UNL     1       2.091   3.162  17.024  0.00  0.00    +0.000 OA
ATOM     14  C   UNL     1       2.939   3.766  17.667  0.00  0.00    +0.000 C 
BRANCH  14  15
ATOM     15  C   UNL     1       2.578   4.880  18.588  0.00  0.00    +0.000 A 
ATOM     16  C   UNL     1       2.762   6.189  18.114  0.00  0.00    +0.000 A 
ATOM     17  C   UNL     1       2.420   7.288  18.906  0.00  0.00    +0.000 A 
ATOM     18  C   UNL     1       1.890   7.081  20.175  0.00  0.00    +0.000 A 
ATOM     19 CL   UNL     1       1.436   8.433  21.138  0.00  0.00    +0.000 Cl
ATOM     20  C   UNL     1       1.721   5.787  20.668  0.00  0.00    +0.000 A 
ATOM     21  C   UNL     1       2.065   4.683  19.876  0.00  0.00    +0.000 A 
ENDBRANCH  14  15
ENDBRANCH  12  14
ENDBRANCH   1  12
TORSDOF 3
ENDMDL
MODEL 5
REMARK VINA RESULT:      -7.7      1.712      2.619
REMARK  Name = 
REMARK  3 active torsions:
REMARK  status: ('A' for Active; 'I' for Inactive)
REMARK    1  A    between atoms: C_2  and  O_3
REMARK    2  A    between atoms: C_2  and  C_14
REMARK    3  A    between atoms: O_3  and  C_4
REMARK                            x       y       z     vdW  Elec       q    Type
REMARK                         _______ _______ _______ _____ _____    ______ ____
ROOT
ATOM      1  C   UNL     1       5.048   3.967  17.261  0.00  0.00    +0.000 A 
ATOM      2  C   UNL     1       5.055   4.195  15.879  0.00  0.00    +0.000 A 
ATOM      3  C   UNL     1       6.055   4.990  15.281  0.00  0.00    +0.000 A 
ATOM      4  C   UNL     1       7.054   5.583  16.057  0.00  0.00    +0.000 A 
ATOM      5  C   UNL     1       7.010   5.368  17.419  0.00  0.00    +0.000 A 
ATOM      6  O   UNL     1       7.912   5.885  18.337  0.00  0.00    +0.000 OA
ATOM      7  C   UNL     1       7.440   5.365  19.544  0.00  0.00    +0.000 A 
ATOM      8  O   UNL     1       7.968   5.575  20.627  0.00  0.00    +0.000 OA
ATOM      9  N   UNL     1       6.321   4.600  19.341  0.00  0.00    +0.000 N 
ATOM     10  C   UNL     1       6.035   4.582  18.005  0.00  0.00    +0.000 A 
ATOM     11  H   UNL     1       5.833   4.072  20.058  0.00  0.00    +0.000 HD
ENDROOT
BRANCH   1  12
ATOM     12  O   UNL     1       4.020   3.115  17.723  0.00  0.00    +0.000 OA
BRANCH  12  14
ATOM     13  O   UNL     1       1.769   2.802  17.175  0.00  0.00    +0.000 OA
ATOM     14  C   UNL     1       2.666   3.415  17.737  0.00  0.00    +0.000 C 
BRANCH  14  15
ATOM     15  C   UNL     1       2.395   4.645  18.532  0.00  0.00    +0.000 A 
ATOM     16  C   UNL     1       1.957   4.470  19.854  0.00  0.00    +0.000 A 
ATOM     17  C   UNL     1       1.709   5.573  20.675  0.00  0.00    +0.000 A 
ATOM     18  C   UNL     1       1.900   6.857  20.175  0.00  0.00    +0.000 A 
ATOM     19 CL   UNL     1       1.628   8.216  21.195  0.00  0.00    +0.000 Cl
ATOM     20  C   UNL     1       2.315   7.047  18.857  0.00  0.00    +0.000 A 
ATOM     21  C   UNL     1       2.563   5.942  18.031  0.00  0.00    +0.000 A 
ENDBRANCH  14  15
ENDBRANCH  12  14
ENDBRANCH   1  12
TORSDOF 3
ENDMDL
MODEL 6
REMARK VINA RESULT:      -7.7      2.833      5.544
REMARK  Name = 
REMARK  3 active torsions:
REMARK  status: ('A' for Active; 'I' for Inactive)
REMARK    1  A    between atoms: C_2  and  O_3
REMARK    2  A    between atoms: C_2  and  C_14
REMARK    3  A    between atoms: O_3  and  C_4
REMARK                            x       y       z     vdW  Elec       q    Type
REMARK                         _______ _______ _______ _____ _____    ______ ____
ROOT
ATOM      1  C   UNL     1       3.797   3.224  17.638  0.00  0.00    +0.000 A 
ATOM      2  C   UNL     1       2.593   3.874  17.337  0.00  0.00    +0.000 A 
ATOM      3  C   UNL     1       1.612   4.078  18.328  0.00  0.00    +0.000 A 
ATOM      4  C   UNL     1       1.810   3.621  19.634  0.00  0.00    +0.000 A 
ATOM      5  C   UNL     1       2.992   2.957  19.900  0.00  0.00    +0.000 A 
ATOM      6  O   UNL     1       3.349   2.431  21.132  0.00  0.00    +0.000 OA
ATOM      7  C   UNL     1       4.612   1.895  20.872  0.00  0.00    +0.000 A 
ATOM      8  O   UNL     1       5.298   1.334  21.714  0.00  0.00    +0.000 OA
ATOM      9  N   UNL     1       4.964   2.090  19.562  0.00  0.00    +0.000 N 
ATOM     10  C   UNL     1       3.957   2.765  18.930  0.00  0.00    +0.000 A 
ATOM     11  H   UNL     1       5.858   1.840  19.151  0.00  0.00    +0.000 HD
ENDROOT
BRANCH   1  12
ATOM     12  O   UNL     1       4.712   3.128  16.566  0.00  0.00    +0.000 OA
BRANCH  12  14
ATOM     13  O   UNL     1       4.907   4.394  14.610  0.00  0.00    +0.000 OA
ATOM     14  C   UNL     1       5.161   4.184  15.789  0.00  0.00    +0.000 C 
BRANCH  14  15
ATOM     15  C   UNL     1       6.058   5.082  16.568  0.00  0.00    +0.000 A 
ATOM     16  C   UNL     1       5.859   6.465  16.428  0.00  0.00    +0.000 A 
ATOM     17  C   UNL     1       6.639   7.374  17.148  0.00  0.00    +0.000 A 
ATOM     18  C   UNL     1       7.622   6.902  18.012  0.00  0.00    +0.000 A 
ATOM     19 CL   UNL     1       8.561   8.018  18.925  0.00  0.00    +0.000 Cl
ATOM     20  C   UNL     1       7.845   5.531  18.146  0.00  0.00    +0.000 A 
ATOM     21  C   UNL     1       7.065   4.618  17.423  0.00  0.00    +0.000 A 
ENDBRANCH  14  15
ENDBRANCH  12  14
ENDBRANCH   1  12
TORSDOF 3
ENDMDL
MODEL 7
REMARK VINA RESULT:      -7.7      0.946      1.003
REMARK  Name = 
REMARK  3 active torsions:
REMARK  status: ('A' for Active; 'I' for Inactive)
REMARK    1  A    between atoms: C_2  and  O_3
REMARK    2  A    between atoms: C_2  and  C_14
REMARK    3  A    between atoms: O_3  and  C_4
REMARK                            x       y       z     vdW  Elec       q    Type
REMARK                         _______ _______ _______ _____ _____    ______ ____
ROOT
ATOM      1  C   UNL     1       6.041   4.496  18.346  0.00  0.00    +0.000 A 
ATOM      2  C   UNL     1       6.644   5.484  19.135  0.00  0.00    +0.000 A 
ATOM      3  C   UNL     1       7.464   6.474  18.556  0.00  0.00    +0.000 A 
ATOM      4  C   UNL     1       7.708   6.482  17.181  0.00  0.00    +0.000 A 
ATOM      5  C   UNL     1       7.127   5.482  16.427  0.00  0.00    +0.000 A 
ATOM      6  O   UNL     1       7.270   5.333  15.056  0.00  0.00    +0.000 OA
ATOM      7  C   UNL     1       6.487   4.206  14.796  0.00  0.00    +0.000 A 
ATOM      8  O   UNL     1       6.329   3.731  13.681  0.00  0.00    +0.000 OA
ATOM      9  N   UNL     1       5.931   3.722  15.951  0.00  0.00    +0.000 N 
ATOM     10  C   UNL     1       6.317   4.517  16.994  0.00  0.00    +0.000 A 
ATOM     11  H   UNL     1       5.278   2.946  16.008  0.00  0.00    +0.000 HD
ENDROOT
BRANCH   1  12
ATOM     12  O   UNL     1       5.207   3.595  19.046  0.00  0.00    +0.000 OA
BRANCH  12  14
ATOM     13  O   UNL     1       3.194   2.498  18.588  0.00  0.00    +0.000 OA
ATOM     14  C   UNL     1       3.831   3.492  18.908  0.00  0.00    +0.000 C 
BRANCH  14  15
ATOM     15  C   UNL     1       3.164   4.795  19.183  0.00  0.00    +0.000 A 
ATOM     16  C   UNL     1       2.555   4.951  20.438  0.00  0.00    +0.000 A 
ATOM     17  C   UNL     1       1.933   6.153  20.784  0.00  0.00    +0.000 A 
ATOM     18  C   UNL     1       1.919   7.206  19.875  0.00  0.00    +0.000 A 
ATOM     19 CL   UNL     1       1.184   8.699  20.312  0.00  0.00    +0.000 Cl
ATOM     20  C   UNL     1       2.502   7.059  18.615  0.00  0.00    +0.000 A 
ATOM     21  C   UNL     1       3.125   5.853  18.266  0.00  0.00    +0.000 A 
ENDBRANCH  14  15
ENDBRANCH  12  14
ENDBRANCH   1  12
TORSDOF 3
ENDMDL
MODEL 8
REMARK VINA RESULT:      -7.7      3.556      6.399
REMARK  Name = 
REMARK  3 active torsions:
REMARK  status: ('A' for Active; 'I' for Inactive)
REMARK    1  A    between atoms: C_2  and  O_3
REMARK    2  A    between atoms: C_2  and  C_14
REMARK    3  A    between atoms: O_3  and  C_4
REMARK                            x       y       z     vdW  Elec       q    Type
REMARK                         _______ _______ _______ _____ _____    ______ ____
ROOT
ATOM      1  C   UNL     1       3.167   4.022  18.807  0.00  0.00    +0.000 A 
ATOM      2  C   UNL     1       1.853   4.479  18.971  0.00  0.00    +0.000 A 
ATOM      3  C   UNL     1       1.085   4.091  20.088  0.00  0.00    +0.000 A 
ATOM      4  C   UNL     1       1.612   3.227  21.051  0.00  0.00    +0.000 A 
ATOM      5  C   UNL     1       2.898   2.767  20.854  0.00  0.00    +0.000 A 
ATOM      6  O   UNL     1       3.572   1.900  21.700  0.00  0.00    +0.000 OA
ATOM      7  C   UNL     1       4.811   1.770  21.068  0.00  0.00    +0.000 A 
ATOM      8  O   UNL     1       5.726   1.085  21.501  0.00  0.00    +0.000 OA
ATOM      9  N   UNL     1       4.850   2.510  19.915  0.00  0.00    +0.000 N 
ATOM     10  C   UNL     1       3.654   3.154  19.763  0.00  0.00    +0.000 A 
ATOM     11  H   UNL     1       5.662   2.620  19.315  0.00  0.00    +0.000 HD
ENDROOT
BRANCH   1  12
ATOM     12  O   UNL     1       3.839   4.524  17.670  0.00  0.00    +0.000 OA
BRANCH  12  14
ATOM     13  O   UNL     1       5.800   5.440  18.555  0.00  0.00    +0.000 OA
ATOM     14  C   UNL     1       5.157   4.955  17.634  0.00  0.00    +0.000 C 
BRANCH  14  15
ATOM     15  C   UNL     1       5.744   4.778  16.277  0.00  0.00    +0.000 A 
ATOM     16  C   UNL     1       4.974   4.084  15.331  0.00  0.00    +0.000 A 
ATOM     17  C   UNL     1       5.441   3.901  14.026  0.00  0.00    +0.000 A 
ATOM     18  C   UNL     1       6.681   4.416  13.663  0.00  0.00    +0.000 A 
ATOM     19 CL   UNL     1       7.243   4.222  12.048  0.00  0.00    +0.000 Cl
ATOM     20  C   UNL     1       7.467   5.090  14.598  0.00  0.00    +0.000 A 
ATOM     21  C   UNL     1       7.001   5.273  15.908  0.00  0.00    +0.000 A 
ENDBRANCH  14  15
ENDBRANCH  12  14
ENDBRANCH   1  12
TORSDOF 3
ENDMDL
MODEL 9
REMARK VINA RESULT:      -7.6      2.722      5.322
REMARK  Name = 
REMARK  3 active torsions:
REMARK  status: ('A' for Active; 'I' for Inactive)
REMARK    1  A    between atoms: C_2  and  O_3
REMARK    2  A    between atoms: C_2  and  C_14
REMARK    3  A    between atoms: O_3  and  C_4
REMARK                            x       y       z     vdW  Elec       q    Type
REMARK                         _______ _______ _______ _____ _____    ______ ____
ROOT
ATOM      1  C   UNL     1       3.414   4.127  18.098  0.00  0.00    +0.000 A 
ATOM      2  C   UNL     1       2.343   4.995  18.349  0.00  0.00    +0.000 A 
ATOM      3  C   UNL     1       1.739   5.051  19.622  0.00  0.00    +0.000 A 
ATOM      4  C   UNL     1       2.185   4.228  20.660  0.00  0.00    +0.000 A 
ATOM      5  C   UNL     1       3.222   3.361  20.381  0.00  0.00    +0.000 A 
ATOM      6  O   UNL     1       3.781   2.471  21.285  0.00  0.00    +0.000 OA
ATOM      7  C   UNL     1       4.778   1.859  20.523  0.00  0.00    +0.000 A 
ATOM      8  O   UNL     1       5.531   0.998  20.954  0.00  0.00    +0.000 OA
ATOM      9  N   UNL     1       4.791   2.357  19.246  0.00  0.00    +0.000 N 
ATOM     10  C   UNL     1       3.820   3.312  19.135  0.00  0.00    +0.000 A 
ATOM     11  H   UNL     1       5.463   2.109  18.526  0.00  0.00    +0.000 HD
ENDROOT
BRANCH   1  12
ATOM     12  O   UNL     1       3.957   4.205  16.795  0.00  0.00    +0.000 OA
BRANCH  12  14
ATOM     13  O   UNL     1       5.844   3.205  15.846  0.00  0.00    +0.000 OA
ATOM     14  C   UNL     1       5.301   4.105  16.472  0.00  0.00    +0.000 C 
BRANCH  14  15
ATOM     15  C   UNL     1       6.072   5.260  17.011  0.00  0.00    +0.000 A 
ATOM     16  C   UNL     1       7.086   4.976  17.939  0.00  0.00    +0.000 A 
ATOM     17  C   UNL     1       7.874   6.001  18.470  0.00  0.00    +0.000 A 
ATOM     18  C   UNL     1       7.651   7.315  18.071  0.00  0.00    +0.000 A 
ATOM     19 CL   UNL     1       8.643   8.574  18.697  0.00  0.00    +0.000 Cl
ATOM     20  C   UNL     1       6.634   7.615  17.164  0.00  0.00    +0.000 A 
ATOM     21  C   UNL     1       5.841   6.589  16.633  0.00  0.00    +0.000 A 
ENDBRANCH  14  15
ENDBRANCH  12  14
ENDBRANCH   1  12
TORSDOF 3
ENDMDL
