MODEL 1
REMARK VINA RESULT:      -7.2      0.000      0.000
REMARK  Name = 
REMARK  4 active torsions:
REMARK  status: ('A' for Active; 'I' for Inactive)
REMARK    1  A    between atoms: C_1  and  C_2
REMARK    2  A    between atoms: C_2  and  C_3
REMARK    3  A    between atoms: C_2  and  C_4
REMARK    4  A    between atoms: C_9  and  O_10
REMARK                            x       y       z     vdW  Elec       q    Type
REMARK                         _______ _______ _______ _____ _____    ______ ____
ROOT
ATOM      1  C   UNL     1       6.011   4.805  15.072  0.00  0.00    +0.000 C 
ATOM      2  O   UNL     1       6.121   6.003  15.328  0.00  0.00    +0.000 OA
ATOM      3  N   UNL     1       5.267   3.900  15.794  0.00  0.00    +0.000 N 
ATOM      4  C   UNL     1       4.443   4.248  16.866  0.00  0.00    +0.000 A 
ATOM      5  N   UNL     1       4.105   5.526  17.053  0.00  0.00    +0.000 NA
ATOM      6  C   UNL     1       3.332   5.789  18.102  0.00  0.00    +0.000 A 
ATOM      7  C   UNL     1       2.863   4.863  18.998  0.00  0.00    +0.000 A 
ATOM      8  C   UNL     1       3.279   3.567  18.744  0.00  0.00    +0.000 A 
ATOM      9  N   UNL     1       4.033   3.240  17.660  0.00  0.00    +0.000 NA
ATOM     10  C   UNL     1       2.899   2.448  19.685  0.00  0.00    +0.000 C 
ATOM     11  C   UNL     1       2.404   2.942  21.048  0.00  0.00    +0.000 C 
ATOM     12  C   UNL     1       1.383   4.061  20.865  0.00  0.00    +0.000 C 
ATOM     13  C   UNL     1       2.045   5.258  20.188  0.00  0.00    +0.000 C 
ATOM     14  H   UNL     1       5.377   2.907  15.669  0.00  0.00    +0.000 HD
ENDROOT
BRANCH   1  16
ATOM     15  C   UNL     1       5.801   3.608  12.867  0.00  0.00    +0.000 C 
ATOM     16  C   UNL     1       6.772   4.200  13.883  0.00  0.00    +0.000 C 
ATOM     17  C   UNL     1       7.649   5.249  13.185  0.00  0.00    +0.000 C 
ENDBRANCH   1  16
BRANCH   6  18
ATOM     18  O   UNL     1       3.058   7.108  18.241  0.00  0.00    +0.000 OA
ATOM     19  H   UNL     1       2.757   7.117  19.170  0.00  0.00    +0.000 HD
ENDBRANCH   6  18
TORSDOF 2
ENDMDL
MODEL 2
REMARK VINA RESULT:      -7.2      1.377      1.412
REMARK  Name = 
REMARK  4 active torsions:
REMARK  status: ('A' for Active; 'I' for Inactive)
REMARK    1  A    between atoms: C_1  and  C_2
REMARK    2  A    between atoms: C_2  and  C_3
REMARK    3  A    between atoms: C_2  and  C_4
REMARK    4  A    between atoms: C_9  and  O_10
REMARK                            x       y       z     vdW  Elec       q    Type
REMARK                         _______ _______ _______ _____ _____    ______ ____
ROOT
ATOM      1  C   UNL     1       6.507   4.190  15.143  0.00  0.00    +0.000 C 
ATOM      2  O   UNL     1       7.375   4.387  15.992  0.00  0.00    +0.000 OA
ATOM      3  N   UNL     1       5.160   4.065  15.393  0.00  0.00    +0.000 N 
ATOM      4  C   UNL     1       4.580   4.253  16.649  0.00  0.00    +0.000 A 
ATOM      5  N   UNL     1       5.274   4.860  17.614  0.00  0.00    +0.000 NA
ATOM      6  C   UNL     1       4.667   4.991  18.790  0.00  0.00    +0.000 A 
ATOM      7  C   UNL     1       3.402   4.555  19.087  0.00  0.00    +0.000 A 
ATOM      8  C   UNL     1       2.762   3.916  18.038  0.00  0.00    +0.000 A 
ATOM      9  N   UNL     1       3.322   3.796  16.804  0.00  0.00    +0.000 NA
ATOM     10  C   UNL     1       1.388   3.319  18.235  0.00  0.00    +0.000 C 
ATOM     11  C   UNL     1       1.006   3.150  19.710  0.00  0.00    +0.000 C 
ATOM     12  C   UNL     1       1.318   4.425  20.485  0.00  0.00    +0.000 C 
ATOM     13  C   UNL     1       2.820   4.691  20.460  0.00  0.00    +0.000 C 
ATOM     14  H   UNL     1       4.525   3.700  14.701  0.00  0.00    +0.000 HD
ENDROOT
BRANCH   1  16
ATOM     15  C   UNL     1       5.671   3.721  12.815  0.00  0.00    +0.000 C 
ATOM     16  C   UNL     1       6.899   4.022  13.667  0.00  0.00    +0.000 C 
ATOM     17  C   UNL     1       7.589   5.281  13.124  0.00  0.00    +0.000 C 
ENDBRANCH   1  16
BRANCH   6  18
ATOM     18  O   UNL     1       5.445   5.589  19.723  0.00  0.00    +0.000 OA
ATOM     19  H   UNL     1       4.756   6.038  20.249  0.00  0.00    +0.000 HD
ENDBRANCH   6  18
TORSDOF 2
ENDMDL
MODEL 3
REMARK VINA RESULT:      -6.9      1.554      1.869
REMARK  Name = 
REMARK  4 active torsions:
REMARK  status: ('A' for Active; 'I' for Inactive)
REMARK    1  A    between atoms: C_1  and  C_2
REMARK    2  A    between atoms: C_2  and  C_3
REMARK    3  A    between atoms: C_2  and  C_4
REMARK    4  A    between atoms: C_9  and  O_10
REMARK                            x       y       z     vdW  Elec       q    Type
REMARK                         _______ _______ _______ _____ _____    ______ ____
ROOT
ATOM      1  C   UNL     1       6.499   4.612  14.841  0.00  0.00    +0.000 C 
ATOM      2  O   UNL     1       7.464   4.611  15.604  0.00  0.00    +0.000 OA
ATOM      3  N   UNL     1       5.191   4.403  15.211  0.00  0.00    +0.000 N 
ATOM      4  C   UNL     1       4.767   4.266  16.534  0.00  0.00    +0.000 A 
ATOM      5  N   UNL     1       5.578   4.632  17.530  0.00  0.00    +0.000 NA
ATOM      6  C   UNL     1       5.118   4.458  18.765  0.00  0.00    +0.000 A 
ATOM      7  C   UNL     1       3.892   3.938  19.093  0.00  0.00    +0.000 A 
ATOM      8  C   UNL     1       3.125   3.564  18.003  0.00  0.00    +0.000 A 
ATOM      9  N   UNL     1       3.531   3.761  16.720  0.00  0.00    +0.000 NA
ATOM     10  C   UNL     1       1.778   2.911  18.208  0.00  0.00    +0.000 C 
ATOM     11  C   UNL     1       1.573   2.378  19.631  0.00  0.00    +0.000 C 
ATOM     12  C   UNL     1       1.989   3.429  20.654  0.00  0.00    +0.000 C 
ATOM     13  C   UNL     1       3.481   3.722  20.516  0.00  0.00    +0.000 C 
ATOM     14  H   UNL     1       4.474   4.207  14.530  0.00  0.00    +0.000 HD
ENDROOT
BRANCH   1  16
ATOM     15  C   UNL     1       8.137   5.279  13.049  0.00  0.00    +0.000 C 
ATOM     16  C   UNL     1       6.711   4.819  13.334  0.00  0.00    +0.000 C 
ATOM     17  C   UNL     1       6.433   3.531  12.546  0.00  0.00    +0.000 C 
ENDBRANCH   1  16
BRANCH   6  18
ATOM     18  O   UNL     1       6.008   4.824  19.718  0.00  0.00    +0.000 OA
ATOM     19  H   UNL     1       5.982   5.793  19.604  0.00  0.00    +0.000 HD
ENDBRANCH   6  18
TORSDOF 2
ENDMDL
MODEL 4
REMARK VINA RESULT:      -6.7      2.749      4.017
REMARK  Name = 
REMARK  4 active torsions:
REMARK  status: ('A' for Active; 'I' for Inactive)
REMARK    1  A    between atoms: C_1  and  C_2
REMARK    2  A    between atoms: C_2  and  C_3
REMARK    3  A    between atoms: C_2  and  C_4
REMARK    4  A    between atoms: C_9  and  O_10
REMARK                            x       y       z     vdW  Elec       q    Type
REMARK                         _______ _______ _______ _____ _____    ______ ____
ROOT
ATOM      1  C   UNL     1       4.865   4.414  17.006  0.00  0.00    +0.000 C 
ATOM      2  O   UNL     1       4.390   3.590  17.785  0.00  0.00    +0.000 OA
ATOM      3  N   UNL     1       4.546   5.752  16.967  0.00  0.00    +0.000 N 
ATOM      4  C   UNL     1       3.707   6.380  17.890  0.00  0.00    +0.000 A 
ATOM      5  N   UNL     1       3.410   5.767  19.038  0.00  0.00    +0.000 NA
ATOM      6  C   UNL     1       2.592   6.414  19.863  0.00  0.00    +0.000 A 
ATOM      7  C   UNL     1       2.035   7.645  19.630  0.00  0.00    +0.000 A 
ATOM      8  C   UNL     1       2.377   8.199  18.407  0.00  0.00    +0.000 A 
ATOM      9  N   UNL     1       3.243   7.598  17.548  0.00  0.00    +0.000 NA
ATOM     10  C   UNL     1       1.784   9.521  17.980  0.00  0.00    +0.000 C 
ATOM     11  C   UNL     1       0.553   9.928  18.797  0.00  0.00    +0.000 C 
ATOM     12  C   UNL     1       0.825   9.748  20.287  0.00  0.00    +0.000 C 
ATOM     13  C   UNL     1       1.075   8.273  20.592  0.00  0.00    +0.000 C 
ATOM     14  H   UNL     1       4.800   6.334  16.185  0.00  0.00    +0.000 HD
ENDROOT
BRANCH   1  16
ATOM     15  C   UNL     1       5.434   4.433  14.554  0.00  0.00    +0.000 C 
ATOM     16  C   UNL     1       5.875   3.969  15.938  0.00  0.00    +0.000 C 
ATOM     17  C   UNL     1       7.278   4.521  16.227  0.00  0.00    +0.000 C 
ENDBRANCH   1  16
BRANCH   6  18
ATOM     18  O   UNL     1       2.316   5.716  20.990  0.00  0.00    +0.000 OA
ATOM     19  H   UNL     1       2.269   6.450  21.631  0.00  0.00    +0.000 HD
ENDBRANCH   6  18
TORSDOF 2
ENDMDL
MODEL 5
REMARK VINA RESULT:      -6.6      0.657      1.075
REMARK  Name = 
REMARK  4 active torsions:
REMARK  status: ('A' for Active; 'I' for Inactive)
REMARK    1  A    between atoms: C_1  and  C_2
REMARK    2  A    between atoms: C_2  and  C_3
REMARK    3  A    between atoms: C_2  and  C_4
REMARK    4  A    between atoms: C_9  and  O_10
REMARK                            x       y       z     vdW  Elec       q    Type
REMARK                         _______ _______ _______ _____ _____    ______ ____
ROOT
ATOM      1  C   UNL     1       5.492   5.452  15.268  0.00  0.00    +0.000 C 
ATOM      2  O   UNL     1       5.509   6.623  15.644  0.00  0.00    +0.000 OA
ATOM      3  N   UNL     1       4.911   4.405  15.946  0.00  0.00    +0.000 N 
ATOM      4  C   UNL     1       4.161   4.554  17.114  0.00  0.00    +0.000 A 
ATOM      5  N   UNL     1       3.719   5.763  17.467  0.00  0.00    +0.000 NA
ATOM      6  C   UNL     1       3.026   5.835  18.599  0.00  0.00    +0.000 A 
ATOM      7  C   UNL     1       2.734   4.780  19.424  0.00  0.00    +0.000 A 
ATOM      8  C   UNL     1       3.249   3.567  18.996  0.00  0.00    +0.000 A 
ATOM      9  N   UNL     1       3.927   3.433  17.824  0.00  0.00    +0.000 NA
ATOM     10  C   UNL     1       3.070   2.325  19.837  0.00  0.00    +0.000 C 
ATOM     11  C   UNL     1       2.658   2.625  21.283  0.00  0.00    +0.000 C 
ATOM     12  C   UNL     1       1.520   3.641  21.307  0.00  0.00    +0.000 C 
ATOM     13  C   UNL     1       1.997   4.964  20.714  0.00  0.00    +0.000 C 
ATOM     14  H   UNL     1       5.105   3.446  15.705  0.00  0.00    +0.000 HD
ENDROOT
BRANCH   1  16
ATOM     15  C   UNL     1       7.710   5.129  14.121  0.00  0.00    +0.000 C 
ATOM     16  C   UNL     1       6.195   5.053  13.962  0.00  0.00    +0.000 C 
ATOM     17  C   UNL     1       5.808   3.633  13.527  0.00  0.00    +0.000 C 
ENDBRANCH   1  16
BRANCH   6  18
ATOM     18  O   UNL     1       2.638   7.097  18.903  0.00  0.00    +0.000 OA
ATOM     19  H   UNL     1       2.160   7.325  18.083  0.00  0.00    +0.000 HD
ENDBRANCH   6  18
TORSDOF 2
ENDMDL
MODEL 6
REMARK VINA RESULT:      -6.5      3.390      4.677
REMARK  Name = 
REMARK  4 active torsions:
REMARK  status: ('A' for Active; 'I' for Inactive)
REMARK    1  A    between atoms: C_1  and  C_2
REMARK    2  A    between atoms: C_2  and  C_3
REMARK    3  A    between atoms: C_2  and  C_4
REMARK    4  A    between atoms: C_9  and  O_10
REMARK                            x       y       z     vdW  Elec       q    Type
REMARK                         _______ _______ _______ _____ _____    ______ ____
ROOT
ATOM      1  C   UNL     1       4.265   5.916  17.296  0.00  0.00    +0.000 C 
ATOM      2  O   UNL     1       4.604   6.859  16.584  0.00  0.00    +0.000 OA
ATOM      3  N   UNL     1       3.383   5.989  18.350  0.00  0.00    +0.000 N 
ATOM      4  C   UNL     1       2.667   7.138  18.688  0.00  0.00    +0.000 A 
ATOM      5  N   UNL     1       2.579   8.144  17.815  0.00  0.00    +0.000 NA
ATOM      6  C   UNL     1       1.896   9.215  18.209  0.00  0.00    +0.000 A 
ATOM      7  C   UNL     1       1.284   9.367  19.426  0.00  0.00    +0.000 A 
ATOM      8  C   UNL     1       1.443   8.287  20.279  0.00  0.00    +0.000 A 
ATOM      9  N   UNL     1       2.094   7.152  19.908  0.00  0.00    +0.000 NA
ATOM     10  C   UNL     1       0.884   8.336  21.681  0.00  0.00    +0.000 C 
ATOM     11  C   UNL     1       0.525   9.754  22.142  0.00  0.00    +0.000 C 
ATOM     12  C   UNL     1      -0.272  10.474  21.060  0.00  0.00    +0.000 C 
ATOM     13  C   UNL     1       0.586  10.635  19.807  0.00  0.00    +0.000 C 
ATOM     14  H   UNL     1       3.301   5.244  19.023  0.00  0.00    +0.000 HD
ENDROOT
BRANCH   1  16
ATOM     15  C   UNL     1       3.825   3.437  17.307  0.00  0.00    +0.000 C 
ATOM     16  C   UNL     1       4.868   4.522  17.065  0.00  0.00    +0.000 C 
ATOM     17  C   UNL     1       5.419   4.378  15.640  0.00  0.00    +0.000 C 
ENDBRANCH   1  16
BRANCH   6  18
ATOM     18  O   UNL     1       1.878  10.202  17.281  0.00  0.00    +0.000 OA
ATOM     19  H   UNL     1       1.884   9.663  16.467  0.00  0.00    +0.000 HD
ENDBRANCH   6  18
TORSDOF 2
ENDMDL
MODEL 7
REMARK VINA RESULT:      -6.5      2.851      3.862
REMARK  Name = 
REMARK  4 active torsions:
REMARK  status: ('A' for Active; 'I' for Inactive)
REMARK    1  A    between atoms: C_1  and  C_2
REMARK    2  A    between atoms: C_2  and  C_3
REMARK    3  A    between atoms: C_2  and  C_4
REMARK    4  A    between atoms: C_9  and  O_10
REMARK                            x       y       z     vdW  Elec       q    Type
REMARK                         _______ _______ _______ _____ _____    ______ ____
ROOT
ATOM      1  C   UNL     1       4.865   5.927  16.586  0.00  0.00    +0.000 C 
ATOM      2  O   UNL     1       5.123   6.982  16.008  0.00  0.00    +0.000 OA
ATOM      3  N   UNL     1       3.991   5.788  17.639  0.00  0.00    +0.000 N 
ATOM      4  C   UNL     1       3.189   6.821  18.128  0.00  0.00    +0.000 A 
ATOM      5  N   UNL     1       3.014   7.925  17.398  0.00  0.00    +0.000 NA
ATOM      6  C   UNL     1       2.253   8.875  17.931  0.00  0.00    +0.000 A 
ATOM      7  C   UNL     1       1.642   8.813  19.156  0.00  0.00    +0.000 A 
ATOM      8  C   UNL     1       1.893   7.646  19.857  0.00  0.00    +0.000 A 
ATOM      9  N   UNL     1       2.629   6.625  19.338  0.00  0.00    +0.000 NA
ATOM     10  C   UNL     1       1.345   7.462  21.252  0.00  0.00    +0.000 C 
ATOM     11  C   UNL     1       0.879   8.771  21.899  0.00  0.00    +0.000 C 
ATOM     12  C   UNL     1       0.018   9.565  20.922  0.00  0.00    +0.000 C 
ATOM     13  C   UNL     1       0.849   9.960  19.704  0.00  0.00    +0.000 C 
ATOM     14  H   UNL     1       3.974   4.955  18.206  0.00  0.00    +0.000 HD
ENDROOT
BRANCH   1  16
ATOM     15  C   UNL     1       5.552   4.465  14.656  0.00  0.00    +0.000 C 
ATOM     16  C   UNL     1       5.575   4.630  16.171  0.00  0.00    +0.000 C 
ATOM     17  C   UNL     1       7.032   4.608  16.655  0.00  0.00    +0.000 C 
ENDBRANCH   1  16
BRANCH   6  18
ATOM     18  O   UNL     1       2.148   9.973  17.144  0.00  0.00    +0.000 OA
ATOM     19  H   UNL     1       2.255  10.670  17.819  0.00  0.00    +0.000 HD
ENDBRANCH   6  18
TORSDOF 2
ENDMDL
MODEL 8
REMARK VINA RESULT:      -6.5      3.399      6.549
REMARK  Name = 
REMARK  4 active torsions:
REMARK  status: ('A' for Active; 'I' for Inactive)
REMARK    1  A    between atoms: C_1  and  C_2
REMARK    2  A    between atoms: C_2  and  C_3
REMARK    3  A    between atoms: C_2  and  C_4
REMARK    4  A    between atoms: C_9  and  O_10
REMARK                            x       y       z     vdW  Elec       q    Type
REMARK                         _______ _______ _______ _____ _____    ______ ____
ROOT
ATOM      1  C   UNL     1       1.234   8.850  20.771  0.00  0.00    +0.000 C 
ATOM      2  O   UNL     1       1.490   9.304  19.658  0.00  0.00    +0.000 OA
ATOM      3  N   UNL     1       1.323   7.525  21.133  0.00  0.00    +0.000 N 
ATOM      4  C   UNL     1       1.826   6.523  20.301  0.00  0.00    +0.000 A 
ATOM      5  N   UNL     1       2.526   6.855  19.214  0.00  0.00    +0.000 NA
ATOM      6  C   UNL     1       2.960   5.851  18.457  0.00  0.00    +0.000 A 
ATOM      7  C   UNL     1       2.747   4.519  18.701  0.00  0.00    +0.000 A 
ATOM      8  C   UNL     1       1.994   4.264  19.835  0.00  0.00    +0.000 A 
ATOM      9  N   UNL     1       1.564   5.253  20.665  0.00  0.00    +0.000 NA
ATOM     10  C   UNL     1       1.617   2.846  20.195  0.00  0.00    +0.000 C 
ATOM     11  C   UNL     1       1.793   1.859  19.037  0.00  0.00    +0.000 C 
ATOM     12  C   UNL     1       3.151   2.060  18.372  0.00  0.00    +0.000 C 
ATOM     13  C   UNL     1       3.223   3.457  17.760  0.00  0.00    +0.000 C 
ATOM     14  H   UNL     1       0.907   7.179  21.982  0.00  0.00    +0.000 HD
ENDROOT
BRANCH   1  16
ATOM     15  C   UNL     1       0.265  11.112  21.302  0.00  0.00    +0.000 C 
ATOM     16  C   UNL     1       0.730   9.781  21.884  0.00  0.00    +0.000 C 
ATOM     17  C   UNL     1      -0.428   9.145  22.666  0.00  0.00    +0.000 C 
ENDBRANCH   1  16
BRANCH   6  18
ATOM     18  O   UNL     1       3.635   6.269  17.359  0.00  0.00    +0.000 OA
ATOM     19  H   UNL     1       3.102   5.837  16.665  0.00  0.00    +0.000 HD
ENDBRANCH   6  18
TORSDOF 2
ENDMDL
MODEL 9
REMARK VINA RESULT:      -6.4      2.800      4.116
REMARK  Name = 
REMARK  4 active torsions:
REMARK  status: ('A' for Active; 'I' for Inactive)
REMARK    1  A    between atoms: C_1  and  C_2
REMARK    2  A    between atoms: C_2  and  C_3
REMARK    3  A    between atoms: C_2  and  C_4
REMARK    4  A    between atoms: C_9  and  O_10
REMARK                            x       y       z     vdW  Elec       q    Type
REMARK                         _______ _______ _______ _____ _____    ______ ____
ROOT
ATOM      1  C   UNL     1       4.919   5.330  16.637  0.00  0.00    +0.000 C 
ATOM      2  O   UNL     1       4.586   4.333  17.276  0.00  0.00    +0.000 OA
ATOM      3  N   UNL     1       4.445   6.605  16.844  0.00  0.00    +0.000 N 
ATOM      4  C   UNL     1       3.592   6.959  17.891  0.00  0.00    +0.000 A 
ATOM      5  N   UNL     1       3.432   6.129  18.924  0.00  0.00    +0.000 NA
ATOM      6  C   UNL     1       2.592   6.520  19.877  0.00  0.00    +0.000 A 
ATOM      7  C   UNL     1       1.884   7.694  19.882  0.00  0.00    +0.000 A 
ATOM      8  C   UNL     1       2.091   8.486  18.765  0.00  0.00    +0.000 A 
ATOM      9  N   UNL     1       2.972   8.151  17.784  0.00  0.00    +0.000 NA
ATOM     10  C   UNL     1       1.327   9.778  18.596  0.00  0.00    +0.000 C 
ATOM     11  C   UNL     1       0.104   9.885  19.514  0.00  0.00    +0.000 C 
ATOM     12  C   UNL     1       0.478   9.490  20.939  0.00  0.00    +0.000 C 
ATOM     13  C   UNL     1       0.913   8.027  20.972  0.00  0.00    +0.000 C 
ATOM     14  H   UNL     1       4.587   7.338  16.168  0.00  0.00    +0.000 HD
ENDROOT
BRANCH   1  16
ATOM     15  C   UNL     1       7.282   4.763  15.982  0.00  0.00    +0.000 C 
ATOM     16  C   UNL     1       5.913   5.201  15.473  0.00  0.00    +0.000 C 
ATOM     17  C   UNL     1       5.422   4.192  14.426  0.00  0.00    +0.000 C 
ENDBRANCH   1  16
BRANCH   6  18
ATOM     18  O   UNL     1       2.461   5.612  20.874  0.00  0.00    +0.000 OA
ATOM     19  H   UNL     1       1.489   5.530  20.895  0.00  0.00    +0.000 HD
ENDBRANCH   6  18
TORSDOF 2
ENDMDL
