MODEL 1
REMARK VINA RESULT:      -7.9      0.000      0.000
REMARK  Name = 
REMARK  8 active torsions:
REMARK  status: ('A' for Active; 'I' for Inactive)
REMARK    1  A    between atoms: N_3  and  C_4
REMARK    2  A    between atoms: C_4  and  C_5
REMARK    3  A    between atoms: C_5  and  C_6
REMARK    4  A    between atoms: C_6  and  N_7
REMARK    5  A    between atoms: C_10  and  C_11
REMARK    6  A    between atoms: C_11  and  C_12
REMARK    7  A    between atoms: N_21  and  C_22
REMARK    8  A    between atoms: C_25  and  C_26
REMARK                            x       y       z     vdW  Elec       q    Type
REMARK                         _______ _______ _______ _____ _____    ______ ____
ROOT
ATOM      1  C   UNL     1       8.206   8.284  17.673  0.00  0.00    +0.000 C 
ENDROOT
BRANCH   1   4
ATOM      2  O   UNL     1       6.854   6.040  18.528  0.00  0.00    +0.000 OA
ATOM      3  C   UNL     1       6.267   6.801  17.765  0.00  0.00    +0.000 C 
ATOM      4  N   UNL     1       6.866   7.930  17.254  0.00  0.00    +0.000 N 
ATOM      5  N   UNL     1       4.986   6.654  17.284  0.00  0.00    +0.000 N 
ATOM      6  H   UNL     1       6.255   8.686  16.984  0.00  0.00    +0.000 HD
ATOM      7  H   UNL     1       4.770   7.166  16.443  0.00  0.00    +0.000 HD
BRANCH   5   8
ATOM      8  C   UNL     1       4.051   5.693  17.717  0.00  0.00    +0.000 A 
ATOM      9  C   UNL     1       3.954   4.422  17.144  0.00  0.00    +0.000 A 
ATOM     10  C   UNL     1       3.038   3.488  17.629  0.00  0.00    +0.000 A 
ATOM     11  C   UNL     1       2.201   3.804  18.704  0.00  0.00    +0.000 A 
ATOM     12  C   UNL     1       2.288   5.084  19.272  0.00  0.00    +0.000 A 
ATOM     13  C   UNL     1       3.212   6.019  18.787  0.00  0.00    +0.000 A 
BRANCH  11  14
ATOM     14  C   UNL     1       1.240   2.781  19.257  0.00  0.00    +0.000 C 
ATOM     15  F   UNL     1       1.815   1.573  19.512  0.00  0.00    +0.000 F 
ATOM     16  F   UNL     1       0.683   3.182  20.433  0.00  0.00    +0.000 F 
ATOM     17  F   UNL     1       0.199   2.530  18.416  0.00  0.00    +0.000 F 
ENDBRANCH  11  14
ENDBRANCH   5   8
ENDBRANCH   1   4
BRANCH   1  18
ATOM     18  C   UNL     1       8.222   9.610  18.436  0.00  0.00    +0.000 C 
BRANCH  18  19
ATOM     19  C   UNL     1       9.190  10.616  17.808  0.00  0.00    +0.000 C 
BRANCH  19  20
ATOM     20  N   UNL     1       9.765  11.561  18.781  0.00  0.00    +0.000 NA
ATOM     21  C   UNL     1       9.166  12.898  18.663  0.00  0.00    +0.000 C 
ATOM     22  C   UNL     1       9.768  13.869  19.674  0.00  0.00    +0.000 C 
ATOM     23  C   UNL     1       9.583  13.373  21.111  0.00  0.00    +0.000 C 
ATOM     24  C   UNL     1      10.218  11.976  21.204  0.00  0.00    +0.000 C 
ATOM     25  C   UNL     1       9.670  11.012  20.143  0.00  0.00    +0.000 C 
BRANCH  23  26
ATOM     26  C   UNL     1       8.104  13.339  21.566  0.00  0.00    +0.000 C 
BRANCH  26  27
ATOM     27  C   UNL     1       7.893  12.926  23.005  0.00  0.00    +0.000 A 
ATOM     28  C   UNL     1       7.016  11.874  23.318  0.00  0.00    +0.000 A 
ATOM     29  C   UNL     1       6.816  11.492  24.645  0.00  0.00    +0.000 A 
ATOM     30  C   UNL     1       7.493  12.158  25.659  0.00  0.00    +0.000 A 
ATOM     31  F   UNL     1       7.297  11.794  26.932  0.00  0.00    +0.000 F 
ATOM     32  C   UNL     1       8.372  13.194  25.370  0.00  0.00    +0.000 A 
ATOM     33  C   UNL     1       8.576  13.576  24.043  0.00  0.00    +0.000 A 
ENDBRANCH  26  27
ENDBRANCH  23  26
ENDBRANCH  19  20
ENDBRANCH  18  19
ENDBRANCH   1  18
TORSDOF 8
ENDMDL
MODEL 2
REMARK VINA RESULT:      -7.7      6.603      9.794
REMARK  Name = 
REMARK  8 active torsions:
REMARK  status: ('A' for Active; 'I' for Inactive)
REMARK    1  A    between atoms: N_3  and  C_4
REMARK    2  A    between atoms: C_4  and  C_5
REMARK    3  A    between atoms: C_5  and  C_6
REMARK    4  A    between atoms: C_6  and  N_7
REMARK    5  A    between atoms: C_10  and  C_11
REMARK    6  A    between atoms: C_11  and  C_12
REMARK    7  A    between atoms: N_21  and  C_22
REMARK    8  A    between atoms: C_25  and  C_26
REMARK                            x       y       z     vdW  Elec       q    Type
REMARK                         _______ _______ _______ _____ _____    ______ ____
ROOT
ATOM      1  C   UNL     1       2.208   9.472  18.288  0.00  0.00    +0.000 C 
ENDROOT
BRANCH   1   4
ATOM      2  O   UNL     1      -0.233   9.747  19.538  0.00  0.00    +0.000 OA
ATOM      3  C   UNL     1      -0.150  10.105  18.367  0.00  0.00    +0.000 C 
ATOM      4  N   UNL     1       1.014   9.977  17.643  0.00  0.00    +0.000 N 
ATOM      5  N   UNL     1      -1.159  10.639  17.599  0.00  0.00    +0.000 N 
ATOM      6  H   UNL     1       1.145  10.618  16.874  0.00  0.00    +0.000 HD
ATOM      7  H   UNL     1      -1.031  10.581  16.600  0.00  0.00    +0.000 HD
BRANCH   5   8
ATOM      8  C   UNL     1      -2.427  11.035  18.067  0.00  0.00    +0.000 A 
ATOM      9  C   UNL     1      -2.596  11.955  19.105  0.00  0.00    +0.000 A 
ATOM     10  C   UNL     1      -3.871  12.347  19.513  0.00  0.00    +0.000 A 
ATOM     11  C   UNL     1      -5.009  11.829  18.886  0.00  0.00    +0.000 A 
ATOM     12  C   UNL     1      -4.842  10.895  17.852  0.00  0.00    +0.000 A 
ATOM     13  C   UNL     1      -3.561  10.507  17.440  0.00  0.00    +0.000 A 
BRANCH  11  14
ATOM     14  C   UNL     1      -6.388  12.283  19.296  0.00  0.00    +0.000 C 
ATOM     15  F   UNL     1      -6.762  11.844  20.531  0.00  0.00    +0.000 F 
ATOM     16  F   UNL     1      -6.492  13.640  19.339  0.00  0.00    +0.000 F 
ATOM     17  F   UNL     1      -7.357  11.860  18.440  0.00  0.00    +0.000 F 
ENDBRANCH  11  14
ENDBRANCH   5   8
ENDBRANCH   1   4
BRANCH   1  18
ATOM     18  C   UNL     1       2.385   7.973  18.046  0.00  0.00    +0.000 C 
BRANCH  18  19
ATOM     19  C   UNL     1       2.255   7.168  19.342  0.00  0.00    +0.000 C 
BRANCH  19  20
ATOM     20  N   UNL     1       2.538   5.732  19.171  0.00  0.00    +0.000 NA
ATOM     21  C   UNL     1       2.121   5.247  17.848  0.00  0.00    +0.000 C 
ATOM     22  C   UNL     1       2.419   3.760  17.681  0.00  0.00    +0.000 C 
ATOM     23  C   UNL     1       3.909   3.459  17.868  0.00  0.00    +0.000 C 
ATOM     24  C   UNL     1       4.315   3.977  19.258  0.00  0.00    +0.000 C 
ATOM     25  C   UNL     1       3.954   5.454  19.461  0.00  0.00    +0.000 C 
BRANCH  23  26
ATOM     26  C   UNL     1       4.805   4.073  16.766  0.00  0.00    +0.000 C 
BRANCH  26  27
ATOM     27  C   UNL     1       5.839   5.057  17.265  0.00  0.00    +0.000 A 
ATOM     28  C   UNL     1       6.939   4.607  18.014  0.00  0.00    +0.000 A 
ATOM     29  C   UNL     1       7.894   5.512  18.481  0.00  0.00    +0.000 A 
ATOM     30  C   UNL     1       7.750   6.865  18.198  0.00  0.00    +0.000 A 
ATOM     31  F   UNL     1       8.663   7.733  18.649  0.00  0.00    +0.000 F 
ATOM     32  C   UNL     1       6.675   7.329  17.450  0.00  0.00    +0.000 A 
ATOM     33  C   UNL     1       5.720   6.424  16.981  0.00  0.00    +0.000 A 
ENDBRANCH  26  27
ENDBRANCH  23  26
ENDBRANCH  19  20
ENDBRANCH  18  19
ENDBRANCH   1  18
TORSDOF 8
ENDMDL
MODEL 3
REMARK VINA RESULT:      -7.6      6.980      9.945
REMARK  Name = 
REMARK  8 active torsions:
REMARK  status: ('A' for Active; 'I' for Inactive)
REMARK    1  A    between atoms: N_3  and  C_4
REMARK    2  A    between atoms: C_4  and  C_5
REMARK    3  A    between atoms: C_5  and  C_6
REMARK    4  A    between atoms: C_6  and  N_7
REMARK    5  A    between atoms: C_10  and  C_11
REMARK    6  A    between atoms: C_11  and  C_12
REMARK    7  A    between atoms: N_21  and  C_22
REMARK    8  A    between atoms: C_25  and  C_26
REMARK                            x       y       z     vdW  Elec       q    Type
REMARK                         _______ _______ _______ _____ _____    ______ ____
ROOT
ATOM      1  C   UNL     1       2.569   3.444  21.207  0.00  0.00    +0.000 C 
ENDROOT
BRANCH   1   4
ATOM      2  O   UNL     1       0.657   5.301  20.506  0.00  0.00    +0.000 OA
ATOM      3  C   UNL     1       1.811   5.696  20.638  0.00  0.00    +0.000 C 
ATOM      4  N   UNL     1       2.845   4.842  20.951  0.00  0.00    +0.000 N 
ATOM      5  N   UNL     1       2.261   6.986  20.473  0.00  0.00    +0.000 N 
ATOM      6  H   UNL     1       3.641   5.246  21.423  0.00  0.00    +0.000 HD
ATOM      7  H   UNL     1       3.249   7.089  20.301  0.00  0.00    +0.000 HD
BRANCH   5   8
ATOM      8  C   UNL     1       1.449   8.123  20.293  0.00  0.00    +0.000 A 
ATOM      9  C   UNL     1       0.609   8.617  21.293  0.00  0.00    +0.000 A 
ATOM     10  C   UNL     1      -0.151   9.769  21.085  0.00  0.00    +0.000 A 
ATOM     11  C   UNL     1      -0.082  10.455  19.868  0.00  0.00    +0.000 A 
ATOM     12  C   UNL     1       0.751   9.953  18.857  0.00  0.00    +0.000 A 
ATOM     13  C   UNL     1       1.517   8.800  19.071  0.00  0.00    +0.000 A 
BRANCH  11  14
ATOM     14  C   UNL     1      -0.870  11.724  19.655  0.00  0.00    +0.000 C 
ATOM     15  F   UNL     1      -2.207  11.515  19.492  0.00  0.00    +0.000 F 
ATOM     16  F   UNL     1      -0.755  12.584  20.704  0.00  0.00    +0.000 F 
ATOM     17  F   UNL     1      -0.464  12.417  18.556  0.00  0.00    +0.000 F 
ENDBRANCH  11  14
ENDBRANCH   5   8
ENDBRANCH   1   4
BRANCH   1  18
ATOM     18  C   UNL     1       3.526   2.534  20.436  0.00  0.00    +0.000 C 
BRANCH  18  19
ATOM     19  C   UNL     1       3.414   2.740  18.923  0.00  0.00    +0.000 C 
BRANCH  19  20
ATOM     20  N   UNL     1       4.030   3.995  18.456  0.00  0.00    +0.000 NA
ATOM     21  C   UNL     1       5.400   4.151  18.961  0.00  0.00    +0.000 C 
ATOM     22  C   UNL     1       6.030   5.452  18.473  0.00  0.00    +0.000 C 
ATOM     23  C   UNL     1       6.058   5.524  16.943  0.00  0.00    +0.000 C 
ATOM     24  C   UNL     1       4.613   5.357  16.444  0.00  0.00    +0.000 C 
ATOM     25  C   UNL     1       3.948   4.087  16.990  0.00  0.00    +0.000 C 
BRANCH  23  26
ATOM     26  C   UNL     1       6.992   4.474  16.294  0.00  0.00    +0.000 C 
BRANCH  26  27
ATOM     27  C   UNL     1       7.069   4.541  14.785  0.00  0.00    +0.000 A 
ATOM     28  C   UNL     1       6.291   3.677  13.998  0.00  0.00    +0.000 A 
ATOM     29  C   UNL     1       6.362   3.733  12.605  0.00  0.00    +0.000 A 
ATOM     30  C   UNL     1       7.208   4.653  12.000  0.00  0.00    +0.000 A 
ATOM     31  F   UNL     1       7.280   4.704  10.664  0.00  0.00    +0.000 F 
ATOM     32  C   UNL     1       7.979   5.524  12.761  0.00  0.00    +0.000 A 
ATOM     33  C   UNL     1       7.907   5.471  14.154  0.00  0.00    +0.000 A 
ENDBRANCH  26  27
ENDBRANCH  23  26
ENDBRANCH  19  20
ENDBRANCH  18  19
ENDBRANCH   1  18
TORSDOF 8
ENDMDL
MODEL 4
REMARK VINA RESULT:      -7.6      6.634     10.270
REMARK  Name = 
REMARK  8 active torsions:
REMARK  status: ('A' for Active; 'I' for Inactive)
REMARK    1  A    between atoms: N_3  and  C_4
REMARK    2  A    between atoms: C_4  and  C_5
REMARK    3  A    between atoms: C_5  and  C_6
REMARK    4  A    between atoms: C_6  and  N_7
REMARK    5  A    between atoms: C_10  and  C_11
REMARK    6  A    between atoms: C_11  and  C_12
REMARK    7  A    between atoms: N_21  and  C_22
REMARK    8  A    between atoms: C_25  and  C_26
REMARK                            x       y       z     vdW  Elec       q    Type
REMARK                         _______ _______ _______ _____ _____    ______ ____
ROOT
ATOM      1  C   UNL     1       1.787   9.200  18.697  0.00  0.00    +0.000 C 
ENDROOT
BRANCH   1   4
ATOM      2  O   UNL     1      -0.867   9.532  19.361  0.00  0.00    +0.000 OA
ATOM      3  C   UNL     1      -0.485  10.003  18.294  0.00  0.00    +0.000 C 
ATOM      4  N   UNL     1       0.812   9.861  17.855  0.00  0.00    +0.000 N 
ATOM      5  N   UNL     1      -1.250  10.691  17.380  0.00  0.00    +0.000 N 
ATOM      6  H   UNL     1       1.157  10.566  17.221  0.00  0.00    +0.000 HD
ATOM      7  H   UNL     1      -0.886  10.728  16.440  0.00  0.00    +0.000 HD
BRANCH   5   8
ATOM      8  C   UNL     1      -2.572  11.133  17.582  0.00  0.00    +0.000 A 
ATOM      9  C   UNL     1      -2.983  11.777  18.751  0.00  0.00    +0.000 A 
ATOM     10  C   UNL     1      -4.294  12.233  18.894  0.00  0.00    +0.000 A 
ATOM     11  C   UNL     1      -5.224  12.056  17.864  0.00  0.00    +0.000 A 
ATOM     12  C   UNL     1      -4.817  11.397  16.694  0.00  0.00    +0.000 A 
ATOM     13  C   UNL     1      -3.499  10.947  16.551  0.00  0.00    +0.000 A 
BRANCH  11  14
ATOM     14  C   UNL     1      -6.631  12.584  17.999  0.00  0.00    +0.000 C 
ATOM     15  F   UNL     1      -7.258  12.779  16.805  0.00  0.00    +0.000 F 
ATOM     16  F   UNL     1      -7.433  11.739  18.705  0.00  0.00    +0.000 F 
ATOM     17  F   UNL     1      -6.683  13.779  18.648  0.00  0.00    +0.000 F 
ENDBRANCH  11  14
ENDBRANCH   5   8
ENDBRANCH   1   4
BRANCH   1  18
ATOM     18  C   UNL     1       2.224   7.860  18.103  0.00  0.00    +0.000 C 
BRANCH  18  19
ATOM     19  C   UNL     1       3.544   7.980  17.338  0.00  0.00    +0.000 C 
BRANCH  19  20
ATOM     20  N   UNL     1       4.492   6.891  17.631  0.00  0.00    +0.000 NA
ATOM     21  C   UNL     1       4.135   6.173  18.862  0.00  0.00    +0.000 C 
ATOM     22  C   UNL     1       5.122   5.048  19.157  0.00  0.00    +0.000 C 
ATOM     23  C   UNL     1       5.193   4.043  18.004  0.00  0.00    +0.000 C 
ATOM     24  C   UNL     1       5.567   4.822  16.733  0.00  0.00    +0.000 C 
ATOM     25  C   UNL     1       4.621   6.000  16.467  0.00  0.00    +0.000 C 
BRANCH  23  26
ATOM     26  C   UNL     1       3.881   3.248  17.798  0.00  0.00    +0.000 C 
BRANCH  26  27
ATOM     27  C   UNL     1       3.044   3.074  19.046  0.00  0.00    +0.000 A 
ATOM     28  C   UNL     1       3.616   2.541  20.212  0.00  0.00    +0.000 A 
ATOM     29  C   UNL     1       2.846   2.375  21.365  0.00  0.00    +0.000 A 
ATOM     30  C   UNL     1       1.507   2.743  21.352  0.00  0.00    +0.000 A 
ATOM     31  F   UNL     1       0.768   2.580  22.456  0.00  0.00    +0.000 F 
ATOM     32  C   UNL     1       0.924   3.281  20.211  0.00  0.00    +0.000 A 
ATOM     33  C   UNL     1       1.694   3.450  19.058  0.00  0.00    +0.000 A 
ENDBRANCH  26  27
ENDBRANCH  23  26
ENDBRANCH  19  20
ENDBRANCH  18  19
ENDBRANCH   1  18
TORSDOF 8
ENDMDL
MODEL 5
REMARK VINA RESULT:      -7.5      0.363      1.076
REMARK  Name = 
REMARK  8 active torsions:
REMARK  status: ('A' for Active; 'I' for Inactive)
REMARK    1  A    between atoms: N_3  and  C_4
REMARK    2  A    between atoms: C_4  and  C_5
REMARK    3  A    between atoms: C_5  and  C_6
REMARK    4  A    between atoms: C_6  and  N_7
REMARK    5  A    between atoms: C_10  and  C_11
REMARK    6  A    between atoms: C_11  and  C_12
REMARK    7  A    between atoms: N_21  and  C_22
REMARK    8  A    between atoms: C_25  and  C_26
REMARK                            x       y       z     vdW  Elec       q    Type
REMARK                         _______ _______ _______ _____ _____    ______ ____
ROOT
ATOM      1  C   UNL     1       8.381   8.431  17.734  0.00  0.00    +0.000 C 
ENDROOT
BRANCH   1   4
ATOM      2  O   UNL     1       7.078   6.197  18.686  0.00  0.00    +0.000 OA
ATOM      3  C   UNL     1       6.500   6.876  17.843  0.00  0.00    +0.000 C 
ATOM      4  N   UNL     1       7.079   7.991  17.278  0.00  0.00    +0.000 N 
ATOM      5  N   UNL     1       5.251   6.640  17.314  0.00  0.00    +0.000 N 
ATOM      6  H   UNL     1       6.452   8.699  16.926  0.00  0.00    +0.000 HD
ATOM      7  H   UNL     1       5.057   7.082  16.428  0.00  0.00    +0.000 HD
BRANCH   5   8
ATOM      8  C   UNL     1       4.335   5.673  17.771  0.00  0.00    +0.000 A 
ATOM      9  C   UNL     1       3.206   6.000  18.527  0.00  0.00    +0.000 A 
ATOM     10  C   UNL     1       2.304   5.014  18.927  0.00  0.00    +0.000 A 
ATOM     11  C   UNL     1       2.509   3.676  18.575  0.00  0.00    +0.000 A 
ATOM     12  C   UNL     1       3.650   3.344  17.827  0.00  0.00    +0.000 A 
ATOM     13  C   UNL     1       4.551   4.336  17.421  0.00  0.00    +0.000 A 
BRANCH  11  14
ATOM     14  C   UNL     1       1.514   2.614  18.971  0.00  0.00    +0.000 C 
ATOM     15  F   UNL     1       1.214   2.615  20.300  0.00  0.00    +0.000 F 
ATOM     16  F   UNL     1       0.324   2.757  18.323  0.00  0.00    +0.000 F 
ATOM     17  F   UNL     1       1.947   1.356  18.686  0.00  0.00    +0.000 F 
ENDBRANCH  11  14
ENDBRANCH   5   8
ENDBRANCH   1   4
BRANCH   1  18
ATOM     18  C   UNL     1       8.299   9.785  18.441  0.00  0.00    +0.000 C 
BRANCH  18  19
ATOM     19  C   UNL     1       9.249  10.811  17.817  0.00  0.00    +0.000 C 
BRANCH  19  20
ATOM     20  N   UNL     1       9.836  11.738  18.801  0.00  0.00    +0.000 NA
ATOM     21  C   UNL     1       9.248  13.081  18.704  0.00  0.00    +0.000 C 
ATOM     22  C   UNL     1       9.863  14.034  19.725  0.00  0.00    +0.000 C 
ATOM     23  C   UNL     1       9.681  13.519  21.156  0.00  0.00    +0.000 C 
ATOM     24  C   UNL     1      10.305  12.115  21.226  0.00  0.00    +0.000 C 
ATOM     25  C   UNL     1       9.744  11.171  20.155  0.00  0.00    +0.000 C 
BRANCH  23  26
ATOM     26  C   UNL     1       8.204  13.491  21.618  0.00  0.00    +0.000 C 
BRANCH  26  27
ATOM     27  C   UNL     1       7.998  13.066  23.054  0.00  0.00    +0.000 A 
ATOM     28  C   UNL     1       7.349  11.855  23.347  0.00  0.00    +0.000 A 
ATOM     29  C   UNL     1       7.152  11.460  24.671  0.00  0.00    +0.000 A 
ATOM     30  C   UNL     1       7.607  12.273  25.702  0.00  0.00    +0.000 A 
ATOM     31  F   UNL     1       7.415  11.896  26.972  0.00  0.00    +0.000 F 
ATOM     32  C   UNL     1       8.261  13.469  25.434  0.00  0.00    +0.000 A 
ATOM     33  C   UNL     1       8.460  13.864  24.110  0.00  0.00    +0.000 A 
ENDBRANCH  26  27
ENDBRANCH  23  26
ENDBRANCH  19  20
ENDBRANCH  18  19
ENDBRANCH   1  18
TORSDOF 8
ENDMDL
MODEL 6
REMARK VINA RESULT:      -7.3      6.087      7.734
REMARK  Name = 
REMARK  8 active torsions:
REMARK  status: ('A' for Active; 'I' for Inactive)
REMARK    1  A    between atoms: N_3  and  C_4
REMARK    2  A    between atoms: C_4  and  C_5
REMARK    3  A    between atoms: C_5  and  C_6
REMARK    4  A    between atoms: C_6  and  N_7
REMARK    5  A    between atoms: C_10  and  C_11
REMARK    6  A    between atoms: C_11  and  C_12
REMARK    7  A    between atoms: N_21  and  C_22
REMARK    8  A    between atoms: C_25  and  C_26
REMARK                            x       y       z     vdW  Elec       q    Type
REMARK                         _______ _______ _______ _____ _____    ______ ____
ROOT
ATOM      1  C   UNL     1      -0.891  10.269  23.034  0.00  0.00    +0.000 C 
ENDROOT
BRANCH   1   4
ATOM      2  O   UNL     1      -0.713   7.961  21.538  0.00  0.00    +0.000 OA
ATOM      3  C   UNL     1       0.322   8.589  21.740  0.00  0.00    +0.000 C 
ATOM      4  N   UNL     1       0.346   9.734  22.503  0.00  0.00    +0.000 N 
ATOM      5  N   UNL     1       1.582   8.261  21.291  0.00  0.00    +0.000 N 
ATOM      6  H   UNL     1       1.086  10.394  22.311  0.00  0.00    +0.000 HD
ATOM      7  H   UNL     1       2.351   8.679  21.794  0.00  0.00    +0.000 HD
BRANCH   5   8
ATOM      8  C   UNL     1       1.887   7.238  20.372  0.00  0.00    +0.000 A 
ATOM      9  C   UNL     1       2.400   7.496  19.099  0.00  0.00    +0.000 A 
ATOM     10  C   UNL     1       2.724   6.451  18.233  0.00  0.00    +0.000 A 
ATOM     11  C   UNL     1       2.544   5.120  18.626  0.00  0.00    +0.000 A 
ATOM     12  C   UNL     1       2.016   4.860  19.900  0.00  0.00    +0.000 A 
ATOM     13  C   UNL     1       1.697   5.911  20.769  0.00  0.00    +0.000 A 
BRANCH  11  14
ATOM     14  C   UNL     1       2.932   3.988  17.709  0.00  0.00    +0.000 C 
ATOM     15  F   UNL     1       1.866   3.345  17.154  0.00  0.00    +0.000 F 
ATOM     16  F   UNL     1       3.695   4.411  16.662  0.00  0.00    +0.000 F 
ATOM     17  F   UNL     1       3.661   3.027  18.339  0.00  0.00    +0.000 F 
ENDBRANCH  11  14
ENDBRANCH   5   8
ENDBRANCH   1   4
BRANCH   1  18
ATOM     18  C   UNL     1      -0.982  11.781  22.826  0.00  0.00    +0.000 C 
BRANCH  18  19
ATOM     19  C   UNL     1      -2.207  12.168  21.993  0.00  0.00    +0.000 C 
BRANCH  19  20
ATOM     20  N   UNL     1      -1.864  12.759  20.687  0.00  0.00    +0.000 NA
ATOM     21  C   UNL     1      -0.850  13.815  20.816  0.00  0.00    +0.000 C 
ATOM     22  C   UNL     1      -0.502  14.421  19.460  0.00  0.00    +0.000 C 
ATOM     23  C   UNL     1       0.014  13.359  18.484  0.00  0.00    +0.000 C 
ATOM     24  C   UNL     1      -1.066  12.271  18.371  0.00  0.00    +0.000 C 
ATOM     25  C   UNL     1      -1.474  11.706  19.737  0.00  0.00    +0.000 C 
BRANCH  23  26
ATOM     26  C   UNL     1       1.374  12.748  18.900  0.00  0.00    +0.000 C 
BRANCH  26  27
ATOM     27  C   UNL     1       2.487  13.753  19.094  0.00  0.00    +0.000 A 
ATOM     28  C   UNL     1       2.965  14.498  18.004  0.00  0.00    +0.000 A 
ATOM     29  C   UNL     1       3.995  15.424  18.178  0.00  0.00    +0.000 A 
ATOM     30  C   UNL     1       4.545  15.606  19.440  0.00  0.00    +0.000 A 
ATOM     31  F   UNL     1       5.536  16.491  19.606  0.00  0.00    +0.000 F 
ATOM     32  C   UNL     1       4.080  14.886  20.534  0.00  0.00    +0.000 A 
ATOM     33  C   UNL     1       3.048  13.961  20.362  0.00  0.00    +0.000 A 
ENDBRANCH  26  27
ENDBRANCH  23  26
ENDBRANCH  19  20
ENDBRANCH  18  19
ENDBRANCH   1  18
TORSDOF 8
ENDMDL
MODEL 7
REMARK VINA RESULT:      -7.3      2.214      2.770
REMARK  Name = 
REMARK  8 active torsions:
REMARK  status: ('A' for Active; 'I' for Inactive)
REMARK    1  A    between atoms: N_3  and  C_4
REMARK    2  A    between atoms: C_4  and  C_5
REMARK    3  A    between atoms: C_5  and  C_6
REMARK    4  A    between atoms: C_6  and  N_7
REMARK    5  A    between atoms: C_10  and  C_11
REMARK    6  A    between atoms: C_11  and  C_12
REMARK    7  A    between atoms: N_21  and  C_22
REMARK    8  A    between atoms: C_25  and  C_26
REMARK                            x       y       z     vdW  Elec       q    Type
REMARK                         _______ _______ _______ _____ _____    ______ ____
ROOT
ATOM      1  C   UNL     1       8.185   8.039  17.420  0.00  0.00    +0.000 C 
ENDROOT
BRANCH   1   4
ATOM      2  O   UNL     1       6.800   5.991  18.639  0.00  0.00    +0.000 OA
ATOM      3  C   UNL     1       6.247   6.581  17.716  0.00  0.00    +0.000 C 
ATOM      4  N   UNL     1       6.866   7.594  17.019  0.00  0.00    +0.000 N 
ATOM      5  N   UNL     1       4.990   6.328  17.216  0.00  0.00    +0.000 N 
ATOM      6  H   UNL     1       6.267   8.276  16.579  0.00  0.00    +0.000 HD
ATOM      7  H   UNL     1       4.811   6.663  16.282  0.00  0.00    +0.000 HD
BRANCH   5   8
ATOM      8  C   UNL     1       4.038   5.460  17.788  0.00  0.00    +0.000 A 
ATOM      9  C   UNL     1       3.222   5.834  18.858  0.00  0.00    +0.000 A 
ATOM     10  C   UNL     1       2.266   4.955  19.368  0.00  0.00    +0.000 A 
ATOM     11  C   UNL     1       2.102   3.681  18.814  0.00  0.00    +0.000 A 
ATOM     12  C   UNL     1       2.931   3.300  17.747  0.00  0.00    +0.000 A 
ATOM     13  C   UNL     1       3.886   4.185  17.233  0.00  0.00    +0.000 A 
BRANCH  11  14
ATOM     14  C   UNL     1       1.042   2.745  19.337  0.00  0.00    +0.000 C 
ATOM     15  F   UNL     1       0.234   3.307  20.280  0.00  0.00    +0.000 F 
ATOM     16  F   UNL     1       0.210   2.307  18.351  0.00  0.00    +0.000 F 
ATOM     17  F   UNL     1       1.564   1.627  19.910  0.00  0.00    +0.000 F 
ENDBRANCH  11  14
ENDBRANCH   5   8
ENDBRANCH   1   4
BRANCH   1  18
ATOM     18  C   UNL     1       8.115   9.320  18.253  0.00  0.00    +0.000 C 
BRANCH  18  19
ATOM     19  C   UNL     1       9.064  10.397  17.721  0.00  0.00    +0.000 C 
BRANCH  19  20
ATOM     20  N   UNL     1      10.045  10.858  18.720  0.00  0.00    +0.000 NA
ATOM     21  C   UNL     1      11.067  11.726  18.119  0.00  0.00    +0.000 C 
ATOM     22  C   UNL     1      12.078  12.198  19.160  0.00  0.00    +0.000 C 
ATOM     23  C   UNL     1      11.397  12.958  20.303  0.00  0.00    +0.000 C 
ATOM     24  C   UNL     1      10.335  12.026  20.909  0.00  0.00    +0.000 C 
ATOM     25  C   UNL     1       9.357  11.489  19.857  0.00  0.00    +0.000 C 
BRANCH  23  26
ATOM     26  C   UNL     1      10.767  14.301  19.861  0.00  0.00    +0.000 C 
BRANCH  26  27
ATOM     27  C   UNL     1       9.944  14.994  20.923  0.00  0.00    +0.000 A 
ATOM     28  C   UNL     1      10.566  15.525  22.066  0.00  0.00    +0.000 A 
ATOM     29  C   UNL     1       9.809  16.161  23.051  0.00  0.00    +0.000 A 
ATOM     30  C   UNL     1       8.433  16.270  22.893  0.00  0.00    +0.000 A 
ATOM     31  F   UNL     1       7.707  16.877  23.840  0.00  0.00    +0.000 F 
ATOM     32  C   UNL     1       7.800  15.761  21.766  0.00  0.00    +0.000 A 
ATOM     33  C   UNL     1       8.556  15.126  20.778  0.00  0.00    +0.000 A 
ENDBRANCH  26  27
ENDBRANCH  23  26
ENDBRANCH  19  20
ENDBRANCH  18  19
ENDBRANCH   1  18
TORSDOF 8
ENDMDL
MODEL 8
REMARK VINA RESULT:      -7.3      3.599     11.317
REMARK  Name = 
REMARK  8 active torsions:
REMARK  status: ('A' for Active; 'I' for Inactive)
REMARK    1  A    between atoms: N_3  and  C_4
REMARK    2  A    between atoms: C_4  and  C_5
REMARK    3  A    between atoms: C_5  and  C_6
REMARK    4  A    between atoms: C_6  and  N_7
REMARK    5  A    between atoms: C_10  and  C_11
REMARK    6  A    between atoms: C_11  and  C_12
REMARK    7  A    between atoms: N_21  and  C_22
REMARK    8  A    between atoms: C_25  and  C_26
REMARK                            x       y       z     vdW  Elec       q    Type
REMARK                         _______ _______ _______ _____ _____    ______ ____
ROOT
ATOM      1  C   UNL     1       8.967   8.998  18.059  0.00  0.00    +0.000 C 
ENDROOT
BRANCH   1   4
ATOM      2  O   UNL     1      10.126  11.493  17.895  0.00  0.00    +0.000 OA
ATOM      3  C   UNL     1       9.439  11.249  18.882  0.00  0.00    +0.000 C 
ATOM      4  N   UNL     1       8.846  10.022  19.076  0.00  0.00    +0.000 N 
ATOM      5  N   UNL     1       9.179  12.101  19.932  0.00  0.00    +0.000 N 
ATOM      6  H   UNL     1       8.015  10.003  19.648  0.00  0.00    +0.000 HD
ATOM      7  H   UNL     1       8.881  11.663  20.791  0.00  0.00    +0.000 HD
BRANCH   5   8
ATOM      8  C   UNL     1       9.511  13.469  19.982  0.00  0.00    +0.000 A 
ATOM      9  C   UNL     1       8.852  14.434  19.218  0.00  0.00    +0.000 A 
ATOM     10  C   UNL     1       9.188  15.784  19.327  0.00  0.00    +0.000 A 
ATOM     11  C   UNL     1      10.191  16.198  20.209  0.00  0.00    +0.000 A 
ATOM     12  C   UNL     1      10.864  15.228  20.968  0.00  0.00    +0.000 A 
ATOM     13  C   UNL     1      10.521  13.874  20.861  0.00  0.00    +0.000 A 
BRANCH  11  14
ATOM     14  C   UNL     1      10.528  17.661  20.359  0.00  0.00    +0.000 C 
ATOM     15  F   UNL     1       9.681  18.334  21.188  0.00  0.00    +0.000 F 
ATOM     16  F   UNL     1      11.776  17.852  20.871  0.00  0.00    +0.000 F 
ATOM     17  F   UNL     1      10.503  18.330  19.175  0.00  0.00    +0.000 F 
ENDBRANCH  11  14
ENDBRANCH   5   8
ENDBRANCH   1   4
BRANCH   1  18
ATOM     18  C   UNL     1       7.645   8.260  17.847  0.00  0.00    +0.000 C 
BRANCH  18  19
ATOM     19  C   UNL     1       7.707   6.820  18.364  0.00  0.00    +0.000 C 
BRANCH  19  20
ATOM     20  N   UNL     1       6.822   5.896  17.632  0.00  0.00    +0.000 NA
ATOM     21  C   UNL     1       6.130   4.971  18.539  0.00  0.00    +0.000 C 
ATOM     22  C   UNL     1       5.217   4.018  17.773  0.00  0.00    +0.000 C 
ATOM     23  C   UNL     1       4.171   4.778  16.952  0.00  0.00    +0.000 C 
ATOM     24  C   UNL     1       4.924   5.737  16.015  0.00  0.00    +0.000 C 
ATOM     25  C   UNL     1       5.898   6.650  16.771  0.00  0.00    +0.000 C 
BRANCH  23  26
ATOM     26  C   UNL     1       3.146   5.546  17.821  0.00  0.00    +0.000 C 
BRANCH  26  27
ATOM     27  C   UNL     1       2.507   4.727  18.919  0.00  0.00    +0.000 A 
ATOM     28  C   UNL     1       2.798   5.000  20.266  0.00  0.00    +0.000 A 
ATOM     29  C   UNL     1       2.213   4.243  21.283  0.00  0.00    +0.000 A 
ATOM     30  C   UNL     1       1.338   3.217  20.954  0.00  0.00    +0.000 A 
ATOM     31  F   UNL     1       0.780   2.488  21.929  0.00  0.00    +0.000 F 
ATOM     32  C   UNL     1       1.029   2.937  19.629  0.00  0.00    +0.000 A 
ATOM     33  C   UNL     1       1.610   3.694  18.610  0.00  0.00    +0.000 A 
ENDBRANCH  26  27
ENDBRANCH  23  26
ENDBRANCH  19  20
ENDBRANCH  18  19
ENDBRANCH   1  18
TORSDOF 8
ENDMDL
MODEL 9
REMARK VINA RESULT:      -7.3      7.440     11.005
REMARK  Name = 
REMARK  8 active torsions:
REMARK  status: ('A' for Active; 'I' for Inactive)
REMARK    1  A    between atoms: N_3  and  C_4
REMARK    2  A    between atoms: C_4  and  C_5
REMARK    3  A    between atoms: C_5  and  C_6
REMARK    4  A    between atoms: C_6  and  N_7
REMARK    5  A    between atoms: C_10  and  C_11
REMARK    6  A    between atoms: C_11  and  C_12
REMARK    7  A    between atoms: N_21  and  C_22
REMARK    8  A    between atoms: C_25  and  C_26
REMARK                            x       y       z     vdW  Elec       q    Type
REMARK                         _______ _______ _______ _____ _____    ______ ____
ROOT
ATOM      1  C   UNL     1       1.812   9.636  18.290  0.00  0.00    +0.000 C 
ENDROOT
BRANCH   1   4
ATOM      2  O   UNL     1      -0.625   9.874  19.555  0.00  0.00    +0.000 OA
ATOM      3  C   UNL     1      -0.552  10.247  18.389  0.00  0.00    +0.000 C 
ATOM      4  N   UNL     1       0.610  10.138  17.657  0.00  0.00    +0.000 N 
ATOM      5  N   UNL     1      -1.570  10.781  17.632  0.00  0.00    +0.000 N 
ATOM      6  H   UNL     1       0.730  10.789  16.896  0.00  0.00    +0.000 HD
ATOM      7  H   UNL     1      -1.446  10.736  16.632  0.00  0.00    +0.000 HD
BRANCH   5   8
ATOM      8  C   UNL     1      -2.839  11.160  18.113  0.00  0.00    +0.000 A 
ATOM      9  C   UNL     1      -4.029  10.672  17.568  0.00  0.00    +0.000 A 
ATOM     10  C   UNL     1      -5.264  11.044  18.100  0.00  0.00    +0.000 A 
ATOM     11  C   UNL     1      -5.335  11.912  19.195  0.00  0.00    +0.000 A 
ATOM     12  C   UNL     1      -4.141  12.413  19.735  0.00  0.00    +0.000 A 
ATOM     13  C   UNL     1      -2.902  12.034  19.203  0.00  0.00    +0.000 A 
BRANCH  11  14
ATOM     14  C   UNL     1      -6.667  12.283  19.797  0.00  0.00    +0.000 C 
ATOM     15  F   UNL     1      -7.617  11.316  19.659  0.00  0.00    +0.000 F 
ATOM     16  F   UNL     1      -6.577  12.526  21.134  0.00  0.00    +0.000 F 
ATOM     17  F   UNL     1      -7.197  13.409  19.247  0.00  0.00    +0.000 F 
ENDBRANCH  11  14
ENDBRANCH   5   8
ENDBRANCH   1   4
BRANCH   1  18
ATOM     18  C   UNL     1       2.200   8.261  17.744  0.00  0.00    +0.000 C 
BRANCH  18  19
ATOM     19  C   UNL     1       2.495   7.265  18.869  0.00  0.00    +0.000 C 
BRANCH  19  20
ATOM     20  N   UNL     1       3.711   6.466  18.640  0.00  0.00    +0.000 NA
ATOM     21  C   UNL     1       3.406   5.036  18.498  0.00  0.00    +0.000 C 
ATOM     22  C   UNL     1       4.672   4.217  18.262  0.00  0.00    +0.000 C 
ATOM     23  C   UNL     1       5.421   4.687  17.011  0.00  0.00    +0.000 C 
ATOM     24  C   UNL     1       5.725   6.184  17.188  0.00  0.00    +0.000 C 
ATOM     25  C   UNL     1       4.467   7.004  17.498  0.00  0.00    +0.000 C 
BRANCH  23  26
ATOM     26  C   UNL     1       4.645   4.432  15.696  0.00  0.00    +0.000 C 
BRANCH  26  27
ATOM     27  C   UNL     1       5.514   4.287  14.466  0.00  0.00    +0.000 A 
ATOM     28  C   UNL     1       5.089   3.491  13.390  0.00  0.00    +0.000 A 
ATOM     29  C   UNL     1       5.889   3.351  12.255  0.00  0.00    +0.000 A 
ATOM     30  C   UNL     1       7.111   4.008  12.195  0.00  0.00    +0.000 A 
ATOM     31  F   UNL     1       7.881   3.870  11.108  0.00  0.00    +0.000 F 
ATOM     32  C   UNL     1       7.545   4.808  13.244  0.00  0.00    +0.000 A 
ATOM     33  C   UNL     1       6.745   4.952  14.379  0.00  0.00    +0.000 A 
ENDBRANCH  26  27
ENDBRANCH  23  26
ENDBRANCH  19  20
ENDBRANCH  18  19
ENDBRANCH   1  18
TORSDOF 8
ENDMDL
