MODEL 1
REMARK VINA RESULT:      -8.1      0.000      0.000
REMARK  Name = 
REMARK  8 active torsions:
REMARK  status: ('A' for Active; 'I' for Inactive)
REMARK    1  A    between atoms: C_1  and  O_2
REMARK    2  A    between atoms: O_2  and  C_3
REMARK    3  A    between atoms: C_11  and  C_12
REMARK    4  A    between atoms: C_15  and  O_16
REMARK    5  A    between atoms: C_18  and  O_19
REMARK    6  A    between atoms: C_22  and  C_23
REMARK    7  A    between atoms: C_22  and  C_24
REMARK    8  A    between atoms: C_25  and  C_26
REMARK                            x       y       z     vdW  Elec       q    Type
REMARK                         _______ _______ _______ _____ _____    ______ ____
ROOT
ATOM      1  C   UNL     1       2.801   5.270  19.908  0.00  0.00    +0.000 A 
ATOM      2  C   UNL     1       3.768   4.375  19.435  0.00  0.00    +0.000 A 
ATOM      3  C   UNL     1       4.614   4.783  18.422  0.00  0.00    +0.000 A 
ATOM      4  C   UNL     1       4.537   6.034  17.846  0.00  0.00    +0.000 A 
ATOM      5  C   UNL     1       3.565   6.917  18.297  0.00  0.00    +0.000 A 
ATOM      6  O   UNL     1       3.489   8.190  17.704  0.00  0.00    +0.000 OA
ATOM      7  C   UNL     1       2.554   9.145  18.094  0.00  0.00    +0.000 A 
ATOM      8  O   UNL     1       2.541  10.259  17.581  0.00  0.00    +0.000 OA
ATOM      9  C   UNL     1       1.617   8.748  19.179  0.00  0.00    +0.000 A 
ATOM     10  C   UNL     1       1.685   7.532  19.745  0.00  0.00    +0.000 A 
ATOM     11  C   UNL     1       2.683   6.551  19.322  0.00  0.00    +0.000 A 
ATOM     12  C   UNL     1       5.583   6.168  16.786  0.00  0.00    +0.000 C 
ATOM     13  C   UNL     1       6.608   7.254  17.147  0.00  0.00    +0.000 C 
ATOM     14  C   UNL     1       4.966   6.481  15.417  0.00  0.00    +0.000 C 
ATOM     15  C   UNL     1       6.253   4.756  16.890  0.00  0.00    +0.000 C 
ATOM     16  C   UNL     1       6.255   3.901  15.626  0.00  0.00    +0.000 C 
ATOM     17  O   UNL     1       5.588   3.973  17.917  0.00  0.00    +0.000 OA
ENDROOT
BRANCH   9  18
ATOM     18  C   UNL     1       0.598   9.703  19.646  0.00  0.00    +0.000 A 
ATOM     19  C   UNL     1       0.620  10.144  20.980  0.00  0.00    +0.000 A 
ATOM     20  C   UNL     1      -0.326  11.067  21.439  0.00  0.00    +0.000 A 
ATOM     21  C   UNL     1      -1.299  11.540  20.565  0.00  0.00    +0.000 A 
ATOM     22  C   UNL     1      -1.345  11.113  19.243  0.00  0.00    +0.000 A 
ATOM     23  C   UNL     1      -0.395  10.198  18.787  0.00  0.00    +0.000 A 
BRANCH  21  24
ATOM     24  O   UNL     1      -2.241  12.439  20.973  0.00  0.00    +0.000 OA
ATOM     25  H   UNL     1      -1.802  13.149  21.471  0.00  0.00    +0.000 HD
ENDBRANCH  21  24
BRANCH  23  26
ATOM     26  O   UNL     1      -0.425   9.774  17.487  0.00  0.00    +0.000 OA
ATOM     27  H   UNL     1      -1.306   9.960  17.122  0.00  0.00    +0.000 HD
ENDBRANCH  23  26
ENDBRANCH   9  18
BRANCH   1  29
ATOM     28  C   UNL     1       2.156   3.706  21.566  0.00  0.00    +0.000 C 
ATOM     29  O   UNL     1       1.918   4.950  20.911  0.00  0.00    +0.000 OA
ENDBRANCH   1  29
TORSDOF 4
ENDMDL
MODEL 2
REMARK VINA RESULT:      -7.9      0.882      1.328
REMARK  Name = 
REMARK  8 active torsions:
REMARK  status: ('A' for Active; 'I' for Inactive)
REMARK    1  A    between atoms: C_1  and  O_2
REMARK    2  A    between atoms: O_2  and  C_3
REMARK    3  A    between atoms: C_11  and  C_12
REMARK    4  A    between atoms: C_15  and  O_16
REMARK    5  A    between atoms: C_18  and  O_19
REMARK    6  A    between atoms: C_22  and  C_23
REMARK    7  A    between atoms: C_22  and  C_24
REMARK    8  A    between atoms: C_25  and  C_26
REMARK                            x       y       z     vdW  Elec       q    Type
REMARK                         _______ _______ _______ _____ _____    ______ ____
ROOT
ATOM      1  C   UNL     1       2.571   5.385  19.854  0.00  0.00    +0.000 A 
ATOM      2  C   UNL     1       3.551   4.477  19.435  0.00  0.00    +0.000 A 
ATOM      3  C   UNL     1       4.458   4.874  18.471  0.00  0.00    +0.000 A 
ATOM      4  C   UNL     1       4.428   6.126  17.892  0.00  0.00    +0.000 A 
ATOM      5  C   UNL     1       3.444   7.022  18.289  0.00  0.00    +0.000 A 
ATOM      6  O   UNL     1       3.418   8.295  17.694  0.00  0.00    +0.000 OA
ATOM      7  C   UNL     1       2.475   9.262  18.032  0.00  0.00    +0.000 A 
ATOM      8  O   UNL     1       2.504  10.376  17.520  0.00  0.00    +0.000 OA
ATOM      9  C   UNL     1       1.474   8.878  19.064  0.00  0.00    +0.000 A 
ATOM     10  C   UNL     1       1.495   7.661  19.631  0.00  0.00    +0.000 A 
ATOM     11  C   UNL     1       2.502   6.667  19.263  0.00  0.00    +0.000 A 
ATOM     12  C   UNL     1       5.533   6.246  16.892  0.00  0.00    +0.000 C 
ATOM     13  C   UNL     1       6.550   7.320  17.311  0.00  0.00    +0.000 C 
ATOM     14  C   UNL     1       4.997   6.568  15.491  0.00  0.00    +0.000 C 
ATOM     15  C   UNL     1       6.178   4.826  17.032  0.00  0.00    +0.000 C 
ATOM     16  C   UNL     1       6.240   3.972  15.770  0.00  0.00    +0.000 C 
ATOM     17  O   UNL     1       5.448   4.052  18.020  0.00  0.00    +0.000 OA
ENDROOT
BRANCH   9  18
ATOM     18  C   UNL     1       0.442   9.845  19.474  0.00  0.00    +0.000 A 
ATOM     19  C   UNL     1      -0.608  10.155  18.594  0.00  0.00    +0.000 A 
ATOM     20  C   UNL     1      -1.610  11.054  18.972  0.00  0.00    +0.000 A 
ATOM     21  C   UNL     1      -1.557  11.649  20.227  0.00  0.00    +0.000 A 
ATOM     22  C   UNL     1      -0.524  11.363  21.114  0.00  0.00    +0.000 A 
ATOM     23  C   UNL     1       0.470  10.459  20.735  0.00  0.00    +0.000 A 
BRANCH  21  24
ATOM     24  O   UNL     1      -2.513  12.533  20.634  0.00  0.00    +0.000 OA
ATOM     25  H   UNL     1      -2.160  13.435  20.556  0.00  0.00    +0.000 HD
ENDBRANCH  21  24
BRANCH  23  26
ATOM     26  O   UNL     1       1.489  10.164  21.600  0.00  0.00    +0.000 OA
ATOM     27  H   UNL     1       1.507  10.840  22.298  0.00  0.00    +0.000 HD
ENDBRANCH  23  26
ENDBRANCH   9  18
BRANCH   1  29
ATOM     28  C   UNL     1       1.070   3.768  20.717  0.00  0.00    +0.000 C 
ATOM     29  O   UNL     1       1.630   5.076  20.807  0.00  0.00    +0.000 OA
ENDBRANCH   1  29
TORSDOF 4
ENDMDL
MODEL 3
REMARK VINA RESULT:      -6.9      2.015      8.562
REMARK  Name = 
REMARK  8 active torsions:
REMARK  status: ('A' for Active; 'I' for Inactive)
REMARK    1  A    between atoms: C_1  and  O_2
REMARK    2  A    between atoms: O_2  and  C_3
REMARK    3  A    between atoms: C_11  and  C_12
REMARK    4  A    between atoms: C_15  and  O_16
REMARK    5  A    between atoms: C_18  and  O_19
REMARK    6  A    between atoms: C_22  and  C_23
REMARK    7  A    between atoms: C_22  and  C_24
REMARK    8  A    between atoms: C_25  and  C_26
REMARK                            x       y       z     vdW  Elec       q    Type
REMARK                         _______ _______ _______ _____ _____    ______ ____
ROOT
ATOM      1  C   UNL     1      -1.836  10.872  18.067  0.00  0.00    +0.000 A 
ATOM      2  C   UNL     1      -2.772  11.825  18.486  0.00  0.00    +0.000 A 
ATOM      3  C   UNL     1      -2.685  12.322  19.772  0.00  0.00    +0.000 A 
ATOM      4  C   UNL     1      -1.723  11.906  20.668  0.00  0.00    +0.000 A 
ATOM      5  C   UNL     1      -0.806  10.944  20.263  0.00  0.00    +0.000 A 
ATOM      6  O   UNL     1       0.171  10.522  21.181  0.00  0.00    +0.000 OA
ATOM      7  C   UNL     1       1.135   9.569  20.865  0.00  0.00    +0.000 A 
ATOM      8  O   UNL     1       1.997   9.251  21.678  0.00  0.00    +0.000 OA
ATOM      9  C   UNL     1       1.079   9.001  19.491  0.00  0.00    +0.000 A 
ATOM     10  C   UNL     1       0.144   9.400  18.614  0.00  0.00    +0.000 A 
ATOM     11  C   UNL     1      -0.852  10.410  18.969  0.00  0.00    +0.000 A 
ATOM     12  C   UNL     1      -1.895  12.626  21.967  0.00  0.00    +0.000 C 
ATOM     13  C   UNL     1      -0.683  13.519  22.275  0.00  0.00    +0.000 C 
ATOM     14  C   UNL     1      -2.122  11.651  23.129  0.00  0.00    +0.000 C 
ATOM     15  C   UNL     1      -3.133  13.520  21.616  0.00  0.00    +0.000 C 
ATOM     16  C   UNL     1      -4.372  13.352  22.489  0.00  0.00    +0.000 C 
ATOM     17  O   UNL     1      -3.552  13.261  20.249  0.00  0.00    +0.000 OA
ENDROOT
BRANCH   9  18
ATOM     18  C   UNL     1       2.064   7.986  19.081  0.00  0.00    +0.000 A 
ATOM     19  C   UNL     1       2.830   8.192  17.921  0.00  0.00    +0.000 A 
ATOM     20  C   UNL     1       3.786   7.251  17.525  0.00  0.00    +0.000 A 
ATOM     21  C   UNL     1       3.969   6.101  18.285  0.00  0.00    +0.000 A 
ATOM     22  C   UNL     1       3.219   5.872  19.433  0.00  0.00    +0.000 A 
ATOM     23  C   UNL     1       2.270   6.818  19.829  0.00  0.00    +0.000 A 
BRANCH  21  24
ATOM     24  O   UNL     1       4.890   5.157  17.932  0.00  0.00    +0.000 OA
ATOM     25  H   UNL     1       5.216   4.722  18.737  0.00  0.00    +0.000 HD
ENDBRANCH  21  24
BRANCH  23  26
ATOM     26  O   UNL     1       1.530   6.608  20.959  0.00  0.00    +0.000 OA
ATOM     27  H   UNL     1       2.118   6.668  21.730  0.00  0.00    +0.000 HD
ENDBRANCH  23  26
ENDBRANCH   9  18
BRANCH   1  29
ATOM     28  C   UNL     1      -2.772  10.904  15.891  0.00  0.00    +0.000 C 
ATOM     29  O   UNL     1      -1.846  10.324  16.806  0.00  0.00    +0.000 OA
ENDBRANCH   1  29
TORSDOF 4
ENDMDL
MODEL 4
REMARK VINA RESULT:      -6.7      2.325      8.926
REMARK  Name = 
REMARK  8 active torsions:
REMARK  status: ('A' for Active; 'I' for Inactive)
REMARK    1  A    between atoms: C_1  and  O_2
REMARK    2  A    between atoms: O_2  and  C_3
REMARK    3  A    between atoms: C_11  and  C_12
REMARK    4  A    between atoms: C_15  and  O_16
REMARK    5  A    between atoms: C_18  and  O_19
REMARK    6  A    between atoms: C_22  and  C_23
REMARK    7  A    between atoms: C_22  and  C_24
REMARK    8  A    between atoms: C_25  and  C_26
REMARK                            x       y       z     vdW  Elec       q    Type
REMARK                         _______ _______ _______ _____ _____    ______ ____
ROOT
ATOM      1  C   UNL     1      -2.678  11.332  18.474  0.00  0.00    +0.000 A 
ATOM      2  C   UNL     1      -3.627  12.255  18.927  0.00  0.00    +0.000 A 
ATOM      3  C   UNL     1      -3.461  12.825  20.174  0.00  0.00    +0.000 A 
ATOM      4  C   UNL     1      -2.403  12.508  21.001  0.00  0.00    +0.000 A 
ATOM      5  C   UNL     1      -1.471  11.575  20.565  0.00  0.00    +0.000 A 
ATOM      6  O   UNL     1      -0.396  11.256  21.413  0.00  0.00    +0.000 OA
ATOM      7  C   UNL     1       0.591  10.339  21.060  0.00  0.00    +0.000 A 
ATOM      8  O   UNL     1       1.535  10.112  21.809  0.00  0.00    +0.000 OA
ATOM      9  C   UNL     1       0.450   9.697  19.726  0.00  0.00    +0.000 A 
ATOM     10  C   UNL     1      -0.577   9.998  18.915  0.00  0.00    +0.000 A 
ATOM     11  C   UNL     1      -1.595  10.971  19.308  0.00  0.00    +0.000 A 
ATOM     12  C   UNL     1      -2.506  13.287  22.273  0.00  0.00    +0.000 C 
ATOM     13  C   UNL     1      -1.325  14.258  22.430  0.00  0.00    +0.000 C 
ATOM     14  C   UNL     1      -2.576  12.365  23.497  0.00  0.00    +0.000 C 
ATOM     15  C   UNL     1      -3.818  14.094  21.990  0.00  0.00    +0.000 C 
ATOM     16  C   UNL     1      -4.966  13.908  22.976  0.00  0.00    +0.000 C 
ATOM     17  O   UNL     1      -4.336  13.740  20.679  0.00  0.00    +0.000 OA
ENDROOT
BRANCH   9  18
ATOM     18  C   UNL     1       1.453   8.715  19.280  0.00  0.00    +0.000 A 
ATOM     19  C   UNL     1       1.674   7.555  20.042  0.00  0.00    +0.000 A 
ATOM     20  C   UNL     1       2.607   6.598  19.626  0.00  0.00    +0.000 A 
ATOM     21  C   UNL     1       3.323   6.807  18.452  0.00  0.00    +0.000 A 
ATOM     22  C   UNL     1       3.126   7.951  17.685  0.00  0.00    +0.000 A 
ATOM     23  C   UNL     1       2.189   8.899  18.101  0.00  0.00    +0.000 A 
BRANCH  21  24
ATOM     24  O   UNL     1       4.243   5.901  18.013  0.00  0.00    +0.000 OA
ATOM     25  H   UNL     1       4.469   6.107  17.091  0.00  0.00    +0.000 HD
ENDBRANCH  21  24
BRANCH  23  26
ATOM     26  O   UNL     1       1.982  10.025  17.352  0.00  0.00    +0.000 OA
ATOM     27  H   UNL     1       1.086  10.355  17.532  0.00  0.00    +0.000 HD
ENDBRANCH  23  26
ENDBRANCH   9  18
BRANCH   1  29
ATOM     28  C   UNL     1      -3.850  11.136  16.424  0.00  0.00    +0.000 C 
ATOM     29  O   UNL     1      -2.764  10.717  17.247  0.00  0.00    +0.000 OA
ENDBRANCH   1  29
TORSDOF 4
ENDMDL
MODEL 5
REMARK VINA RESULT:      -6.7      1.744      4.013
REMARK  Name = 
REMARK  8 active torsions:
REMARK  status: ('A' for Active; 'I' for Inactive)
REMARK    1  A    between atoms: C_1  and  O_2
REMARK    2  A    between atoms: O_2  and  C_3
REMARK    3  A    between atoms: C_11  and  C_12
REMARK    4  A    between atoms: C_15  and  O_16
REMARK    5  A    between atoms: C_18  and  O_19
REMARK    6  A    between atoms: C_22  and  C_23
REMARK    7  A    between atoms: C_22  and  C_24
REMARK    8  A    between atoms: C_25  and  C_26
REMARK                            x       y       z     vdW  Elec       q    Type
REMARK                         _______ _______ _______ _____ _____    ______ ____
ROOT
ATOM      1  C   UNL     1       3.702   6.534  17.810  0.00  0.00    +0.000 A 
ATOM      2  C   UNL     1       4.168   5.214  17.799  0.00  0.00    +0.000 A 
ATOM      3  C   UNL     1       3.639   4.314  18.703  0.00  0.00    +0.000 A 
ATOM      4  C   UNL     1       2.678   4.666  19.629  0.00  0.00    +0.000 A 
ATOM      5  C   UNL     1       2.230   5.980  19.658  0.00  0.00    +0.000 A 
ATOM      6  O   UNL     1       1.252   6.334  20.604  0.00  0.00    +0.000 OA
ATOM      7  C   UNL     1       0.736   7.623  20.704  0.00  0.00    +0.000 A 
ATOM      8  O   UNL     1      -0.143   7.888  21.517  0.00  0.00    +0.000 OA
ATOM      9  C   UNL     1       1.280   8.629  19.753  0.00  0.00    +0.000 A 
ATOM     10  C   UNL     1       2.216   8.294  18.850  0.00  0.00    +0.000 A 
ATOM     11  C   UNL     1       2.734   6.930  18.761  0.00  0.00    +0.000 A 
ATOM     12  C   UNL     1       2.314   3.476  20.458  0.00  0.00    +0.000 C 
ATOM     13  C   UNL     1       0.846   3.075  20.244  0.00  0.00    +0.000 C 
ATOM     14  C   UNL     1       2.565   3.727  21.950  0.00  0.00    +0.000 C 
ATOM     15  C   UNL     1       3.253   2.401  19.812  0.00  0.00    +0.000 C 
ATOM     16  C   UNL     1       4.248   1.711  20.739  0.00  0.00    +0.000 C 
ATOM     17  O   UNL     1       4.032   3.009  18.747  0.00  0.00    +0.000 OA
ENDROOT
BRANCH   9  18
ATOM     18  C   UNL     1       0.786  10.015  19.796  0.00  0.00    +0.000 A 
ATOM     19  C   UNL     1       0.165  10.566  18.663  0.00  0.00    +0.000 A 
ATOM     20  C   UNL     1      -0.330  11.874  18.689  0.00  0.00    +0.000 A 
ATOM     21  C   UNL     1      -0.197  12.632  19.848  0.00  0.00    +0.000 A 
ATOM     22  C   UNL     1       0.419  12.111  20.980  0.00  0.00    +0.000 A 
ATOM     23  C   UNL     1       0.906  10.802  20.951  0.00  0.00    +0.000 A 
BRANCH  21  24
ATOM     24  O   UNL     1      -0.665  13.912  19.915  0.00  0.00    +0.000 OA
ATOM     25  H   UNL     1      -0.198  14.451  19.256  0.00  0.00    +0.000 HD
ENDBRANCH  21  24
BRANCH  23  26
ATOM     26  O   UNL     1       1.509  10.275  22.060  0.00  0.00    +0.000 OA
ATOM     27  H   UNL     1       2.051   9.516  21.786  0.00  0.00    +0.000 HD
ENDBRANCH  23  26
ENDBRANCH   9  18
BRANCH   1  29
ATOM     28  C   UNL     1       4.985   7.018  15.878  0.00  0.00    +0.000 C 
ATOM     29  O   UNL     1       4.171   7.495  16.947  0.00  0.00    +0.000 OA
ENDBRANCH   1  29
TORSDOF 4
ENDMDL
MODEL 6
REMARK VINA RESULT:      -6.6      1.586      3.803
REMARK  Name = 
REMARK  8 active torsions:
REMARK  status: ('A' for Active; 'I' for Inactive)
REMARK    1  A    between atoms: C_1  and  O_2
REMARK    2  A    between atoms: O_2  and  C_3
REMARK    3  A    between atoms: C_11  and  C_12
REMARK    4  A    between atoms: C_15  and  O_16
REMARK    5  A    between atoms: C_18  and  O_19
REMARK    6  A    between atoms: C_22  and  C_23
REMARK    7  A    between atoms: C_22  and  C_24
REMARK    8  A    between atoms: C_25  and  C_26
REMARK                            x       y       z     vdW  Elec       q    Type
REMARK                         _______ _______ _______ _____ _____    ______ ____
ROOT
ATOM      1  C   UNL     1       3.636   6.578  17.692  0.00  0.00    +0.000 A 
ATOM      2  C   UNL     1       4.071   5.247  17.708  0.00  0.00    +0.000 A 
ATOM      3  C   UNL     1       3.553   4.388  18.657  0.00  0.00    +0.000 A 
ATOM      4  C   UNL     1       2.634   4.792  19.604  0.00  0.00    +0.000 A 
ATOM      5  C   UNL     1       2.217   6.117  19.606  0.00  0.00    +0.000 A 
ATOM      6  O   UNL     1       1.282   6.523  20.574  0.00  0.00    +0.000 OA
ATOM      7  C   UNL     1       0.799   7.826  20.651  0.00  0.00    +0.000 A 
ATOM      8  O   UNL     1      -0.045   8.137  21.484  0.00  0.00    +0.000 OA
ATOM      9  C   UNL     1       1.332   8.789  19.649  0.00  0.00    +0.000 A 
ATOM     10  C   UNL     1       2.228   8.404  18.726  0.00  0.00    +0.000 A 
ATOM     11  C   UNL     1       2.712   7.026  18.663  0.00  0.00    +0.000 A 
ATOM     12  C   UNL     1       2.272   3.637  20.482  0.00  0.00    +0.000 C 
ATOM     13  C   UNL     1       0.789   3.265  20.332  0.00  0.00    +0.000 C 
ATOM     14  C   UNL     1       2.581   3.928  21.956  0.00  0.00    +0.000 C 
ATOM     15  C   UNL     1       3.163   2.521  19.839  0.00  0.00    +0.000 C 
ATOM     16  C   UNL     1       4.174   1.836  20.753  0.00  0.00    +0.000 C 
ATOM     17  O   UNL     1       3.918   3.076  18.729  0.00  0.00    +0.000 OA
ENDROOT
BRANCH   9  18
ATOM     18  C   UNL     1       0.872  10.188  19.666  0.00  0.00    +0.000 A 
ATOM     19  C   UNL     1       1.287  11.042  20.701  0.00  0.00    +0.000 A 
ATOM     20  C   UNL     1       0.879  12.380  20.725  0.00  0.00    +0.000 A 
ATOM     21  C   UNL     1       0.050  12.860  19.717  0.00  0.00    +0.000 A 
ATOM     22  C   UNL     1      -0.379  12.031  18.685  0.00  0.00    +0.000 A 
ATOM     23  C   UNL     1       0.037  10.699  18.662  0.00  0.00    +0.000 A 
BRANCH  21  24
ATOM     24  O   UNL     1      -0.372  14.157  19.703  0.00  0.00    +0.000 OA
ATOM     25  H   UNL     1      -1.210  14.209  19.214  0.00  0.00    +0.000 HD
ENDBRANCH  21  24
BRANCH  23  26
ATOM     26  O   UNL     1      -0.373   9.875  17.649  0.00  0.00    +0.000 OA
ATOM     27  H   UNL     1      -1.059  10.333  17.136  0.00  0.00    +0.000 HD
ENDBRANCH  23  26
ENDBRANCH   9  18
BRANCH   1  29
ATOM     28  C   UNL     1       5.014   7.003  15.812  0.00  0.00    +0.000 C 
ATOM     29  O   UNL     1       4.097   7.501  16.784  0.00  0.00    +0.000 OA
ENDBRANCH   1  29
TORSDOF 4
ENDMDL
MODEL 7
REMARK VINA RESULT:      -6.6      2.495      9.117
REMARK  Name = 
REMARK  8 active torsions:
REMARK  status: ('A' for Active; 'I' for Inactive)
REMARK    1  A    between atoms: C_1  and  O_2
REMARK    2  A    between atoms: O_2  and  C_3
REMARK    3  A    between atoms: C_11  and  C_12
REMARK    4  A    between atoms: C_15  and  O_16
REMARK    5  A    between atoms: C_18  and  O_19
REMARK    6  A    between atoms: C_22  and  C_23
REMARK    7  A    between atoms: C_22  and  C_24
REMARK    8  A    between atoms: C_25  and  C_26
REMARK                            x       y       z     vdW  Elec       q    Type
REMARK                         _______ _______ _______ _____ _____    ______ ____
ROOT
ATOM      1  C   UNL     1      -2.994  11.385  18.488  0.00  0.00    +0.000 A 
ATOM      2  C   UNL     1      -3.955  12.295  18.943  0.00  0.00    +0.000 A 
ATOM      3  C   UNL     1      -3.747  12.936  20.149  0.00  0.00    +0.000 A 
ATOM      4  C   UNL     1      -2.636  12.705  20.933  0.00  0.00    +0.000 A 
ATOM      5  C   UNL     1      -1.691  11.785  20.496  0.00  0.00    +0.000 A 
ATOM      6  O   UNL     1      -0.561  11.552  21.300  0.00  0.00    +0.000 OA
ATOM      7  C   UNL     1       0.442  10.656  20.943  0.00  0.00    +0.000 A 
ATOM      8  O   UNL     1       1.433  10.504  21.650  0.00  0.00    +0.000 OA
ATOM      9  C   UNL     1       0.258   9.938  19.652  0.00  0.00    +0.000 A 
ATOM     10  C   UNL     1      -0.821  10.156  18.884  0.00  0.00    +0.000 A 
ATOM     11  C   UNL     1      -1.856  11.110  19.280  0.00  0.00    +0.000 A 
ATOM     12  C   UNL     1      -2.703  13.546  22.167  0.00  0.00    +0.000 C 
ATOM     13  C   UNL     1      -1.556  14.568  22.209  0.00  0.00    +0.000 C 
ATOM     14  C   UNL     1      -2.673  12.689  23.439  0.00  0.00    +0.000 C 
ATOM     15  C   UNL     1      -4.060  14.287  21.913  0.00  0.00    +0.000 C 
ATOM     16  C   UNL     1      -5.147  14.111  22.968  0.00  0.00    +0.000 C 
ATOM     17  O   UNL     1      -4.630  13.845  20.653  0.00  0.00    +0.000 OA
ENDROOT
BRANCH   9  18
ATOM     18  C   UNL     1       1.275   8.971  19.205  0.00  0.00    +0.000 A 
ATOM     19  C   UNL     1       1.946   9.183  17.989  0.00  0.00    +0.000 A 
ATOM     20  C   UNL     1       2.931   8.289  17.555  0.00  0.00    +0.000 A 
ATOM     21  C   UNL     1       3.238   7.179  18.335  0.00  0.00    +0.000 A 
ATOM     22  C   UNL     1       2.584   6.945  19.540  0.00  0.00    +0.000 A 
ATOM     23  C   UNL     1       1.607   7.844  19.972  0.00  0.00    +0.000 A 
BRANCH  21  24
ATOM     24  O   UNL     1       4.190   6.282  17.948  0.00  0.00    +0.000 OA
ATOM     25  H   UNL     1       3.762   5.429  17.767  0.00  0.00    +0.000 HD
ENDBRANCH  21  24
BRANCH  23  26
ATOM     26  O   UNL     1       0.960   7.629  21.158  0.00  0.00    +0.000 OA
ATOM     27  H   UNL     1       1.589   7.773  21.884  0.00  0.00    +0.000 HD
ENDBRANCH  23  26
ENDBRANCH   9  18
BRANCH   1  29
ATOM     28  C   UNL     1      -4.150  11.163  16.432  0.00  0.00    +0.000 C 
ATOM     29  O   UNL     1      -3.119  10.702  17.301  0.00  0.00    +0.000 OA
ENDBRANCH   1  29
TORSDOF 4
ENDMDL
MODEL 8
REMARK VINA RESULT:      -6.5      8.301     10.037
REMARK  Name = 
REMARK  8 active torsions:
REMARK  status: ('A' for Active; 'I' for Inactive)
REMARK    1  A    between atoms: C_1  and  O_2
REMARK    2  A    between atoms: O_2  and  C_3
REMARK    3  A    between atoms: C_11  and  C_12
REMARK    4  A    between atoms: C_15  and  O_16
REMARK    5  A    between atoms: C_18  and  O_19
REMARK    6  A    between atoms: C_22  and  C_23
REMARK    7  A    between atoms: C_22  and  C_24
REMARK    8  A    between atoms: C_25  and  C_26
REMARK                            x       y       z     vdW  Elec       q    Type
REMARK                         _______ _______ _______ _____ _____    ______ ____
ROOT
ATOM      1  C   UNL     1       9.734  11.409  19.651  0.00  0.00    +0.000 A 
ATOM      2  C   UNL     1      10.449  11.924  18.564  0.00  0.00    +0.000 A 
ATOM      3  C   UNL     1      10.791  13.262  18.565  0.00  0.00    +0.000 A 
ATOM      4  C   UNL     1      10.443  14.118  19.590  0.00  0.00    +0.000 A 
ATOM      5  C   UNL     1       9.714  13.616  20.660  0.00  0.00    +0.000 A 
ATOM      6  O   UNL     1       9.361  14.494  21.700  0.00  0.00    +0.000 OA
ATOM      7  C   UNL     1       8.639  14.082  22.816  0.00  0.00    +0.000 A 
ATOM      8  O   UNL     1       8.380  14.866  23.724  0.00  0.00    +0.000 OA
ATOM      9  C   UNL     1       8.244  12.648  22.856  0.00  0.00    +0.000 A 
ATOM     10  C   UNL     1       8.577  11.809  21.862  0.00  0.00    +0.000 A 
ATOM     11  C   UNL     1       9.344  12.267  20.705  0.00  0.00    +0.000 A 
ATOM     12  C   UNL     1      10.957  15.492  19.297  0.00  0.00    +0.000 C 
ATOM     13  C   UNL     1      12.004  15.929  20.334  0.00  0.00    +0.000 C 
ATOM     14  C   UNL     1       9.822  16.523  19.250  0.00  0.00    +0.000 C 
ATOM     15  C   UNL     1      11.655  15.230  17.920  0.00  0.00    +0.000 C 
ATOM     16  C   UNL     1      11.166  16.054  16.733  0.00  0.00    +0.000 C 
ATOM     17  O   UNL     1      11.497  13.835  17.549  0.00  0.00    +0.000 OA
ENDROOT
BRANCH   9  18
ATOM     18  C   UNL     1       7.476  12.135  24.003  0.00  0.00    +0.000 A 
ATOM     19  C   UNL     1       6.197  11.592  23.795  0.00  0.00    +0.000 A 
ATOM     20  C   UNL     1       5.459  11.080  24.867  0.00  0.00    +0.000 A 
ATOM     21  C   UNL     1       5.998  11.118  26.149  0.00  0.00    +0.000 A 
ATOM     22  C   UNL     1       7.260  11.657  26.381  0.00  0.00    +0.000 A 
ATOM     23  C   UNL     1       7.995  12.160  25.306  0.00  0.00    +0.000 A 
BRANCH  21  24
ATOM     24  O   UNL     1       5.311  10.631  27.222  0.00  0.00    +0.000 OA
ATOM     25  H   UNL     1       5.022   9.725  27.023  0.00  0.00    +0.000 HD
ENDBRANCH  21  24
BRANCH  23  26
ATOM     26  O   UNL     1       9.240  12.687  25.520  0.00  0.00    +0.000 OA
ATOM     27  H   UNL     1       9.828  11.976  25.825  0.00  0.00    +0.000 HD
ENDBRANCH  23  26
ENDBRANCH   9  18
BRANCH   1  29
ATOM     28  C   UNL     1       8.713   9.562  18.574  0.00  0.00    +0.000 C 
ATOM     29  O   UNL     1       9.352  10.091  19.733  0.00  0.00    +0.000 OA
ENDBRANCH   1  29
TORSDOF 4
ENDMDL
MODEL 9
REMARK VINA RESULT:      -6.4      2.978      9.553
REMARK  Name = 
REMARK  8 active torsions:
REMARK  status: ('A' for Active; 'I' for Inactive)
REMARK    1  A    between atoms: C_1  and  O_2
REMARK    2  A    between atoms: O_2  and  C_3
REMARK    3  A    between atoms: C_11  and  C_12
REMARK    4  A    between atoms: C_15  and  O_16
REMARK    5  A    between atoms: C_18  and  O_19
REMARK    6  A    between atoms: C_22  and  C_23
REMARK    7  A    between atoms: C_22  and  C_24
REMARK    8  A    between atoms: C_25  and  C_26
REMARK                            x       y       z     vdW  Elec       q    Type
REMARK                         _______ _______ _______ _____ _____    ______ ____
ROOT
ATOM      1  C   UNL     1      -3.698  11.828  19.090  0.00  0.00    +0.000 A 
ATOM      2  C   UNL     1      -4.596  12.801  19.543  0.00  0.00    +0.000 A 
ATOM      3  C   UNL     1      -4.194  13.664  20.545  0.00  0.00    +0.000 A 
ATOM      4  C   UNL     1      -2.947  13.596  21.129  0.00  0.00    +0.000 A 
ATOM      5  C   UNL     1      -2.060  12.617  20.698  0.00  0.00    +0.000 A 
ATOM      6  O   UNL     1      -0.791  12.552  21.299  0.00  0.00    +0.000 OA
ATOM      7  C   UNL     1       0.166  11.612  20.929  0.00  0.00    +0.000 A 
ATOM      8  O   UNL     1       1.278  11.607  21.448  0.00  0.00    +0.000 OA
ATOM      9  C   UNL     1      -0.223  10.658  19.856  0.00  0.00    +0.000 A 
ATOM     10  C   UNL     1      -1.436  10.716  19.283  0.00  0.00    +0.000 A 
ATOM     11  C   UNL     1      -2.420  11.720  19.685  0.00  0.00    +0.000 A 
ATOM     12  C   UNL     1      -2.819  14.659  22.173  0.00  0.00    +0.000 C 
ATOM     13  C   UNL     1      -1.731  15.679  21.802  0.00  0.00    +0.000 C 
ATOM     14  C   UNL     1      -2.513  14.063  23.553  0.00  0.00    +0.000 C 
ATOM     15  C   UNL     1      -4.231  15.326  22.052  0.00  0.00    +0.000 C 
ATOM     16  C   UNL     1      -5.092  15.348  23.310  0.00  0.00    +0.000 C 
ATOM     17  O   UNL     1      -5.007  14.645  21.030  0.00  0.00    +0.000 OA
ENDROOT
BRANCH   9  18
ATOM     18  C   UNL     1       0.734   9.631  19.410  0.00  0.00    +0.000 A 
ATOM     19  C   UNL     1       1.263   9.694  18.110  0.00  0.00    +0.000 A 
ATOM     20  C   UNL     1       2.190   8.742  17.673  0.00  0.00    +0.000 A 
ATOM     21  C   UNL     1       2.580   7.723  18.534  0.00  0.00    +0.000 A 
ATOM     22  C   UNL     1       2.066   7.636  19.824  0.00  0.00    +0.000 A 
ATOM     23  C   UNL     1       1.146   8.592  20.258  0.00  0.00    +0.000 A 
BRANCH  21  24
ATOM     24  O   UNL     1       3.480   6.773  18.147  0.00  0.00    +0.000 OA
ATOM     25  H   UNL     1       3.582   6.813  17.182  0.00  0.00    +0.000 HD
ENDBRANCH  21  24
BRANCH  23  26
ATOM     26  O   UNL     1       0.637   8.522  21.526  0.00  0.00    +0.000 OA
ATOM     27  H   UNL     1       1.376   8.527  22.156  0.00  0.00    +0.000 HD
ENDBRANCH  23  26
ENDBRANCH   9  18
BRANCH   1  29
ATOM     28  C   UNL     1      -4.442  11.500  16.865  0.00  0.00    +0.000 C 
ATOM     29  O   UNL     1      -4.012  10.929  18.099  0.00  0.00    +0.000 OA
ENDBRANCH   1  29
TORSDOF 4
ENDMDL
