MODEL 1
REMARK VINA RESULT:      -9.4      0.000      0.000
REMARK  Name = 
REMARK  7 active torsions:
REMARK  status: ('A' for Active; 'I' for Inactive)
REMARK    1  A    between atoms: C_1  and  C_2
REMARK    2  A    between atoms: C_4  and  C_5
REMARK    3  A    between atoms: C_5  and  O_6
REMARK    4  A    between atoms: O_6  and  C_7
REMARK    5  A    between atoms: C_18  and  O_19
REMARK    6  A    between atoms: O_19  and  C_20
REMARK    7  A    between atoms: C_20  and  C_21
REMARK                            x       y       z     vdW  Elec       q    Type
REMARK                         _______ _______ _______ _____ _____    ______ ____
ROOT
ATOM      1  C   UNL     1       4.191   5.538  17.696  0.00  0.00    +0.000 A 
ATOM      2  C   UNL     1       4.055   6.764  17.069  0.00  0.00    +0.000 A 
ATOM      3  C   UNL     1       3.210   7.760  17.605  0.00  0.00    +0.000 A 
ATOM      4  C   UNL     1       2.465   7.554  18.776  0.00  0.00    +0.000 A 
ATOM      5  C   UNL     1       2.604   6.292  19.386  0.00  0.00    +0.000 A 
ATOM      6  C   UNL     1       3.438   5.287  18.835  0.00  0.00    +0.000 A 
ATOM      7  C   UNL     1       1.879   5.932  20.643  0.00  0.00    +0.000 C 
ATOM      8  C   UNL     1       1.059   7.043  21.281  0.00  0.00    +0.000 C 
ATOM      9  N   UNL     1       0.960   8.333  20.611  0.00  0.00    +0.000 N 
ATOM     10  C   UNL     1       1.569   8.604  19.387  0.00  0.00    +0.000 A 
ATOM     11  C   UNL     1       1.336   9.797  18.814  0.00  0.00    +0.000 A 
ATOM     12  C   UNL     1       0.464  10.730  19.551  0.00  0.00    +0.000 A 
ATOM     13  N   UNL     1      -0.043  10.523  20.708  0.00  0.00    +0.000 NA
ATOM     14  C   UNL     1       0.176   9.295  21.287  0.00  0.00    +0.000 A 
ATOM     15  O   UNL     1      -0.325   9.035  22.379  0.00  0.00    +0.000 OA
ENDROOT
BRANCH   1  16
ATOM     16  O   UNL     1       5.044   4.639  17.106  0.00  0.00    +0.000 OA
BRANCH  16  17
ATOM     17  C   UNL     1       6.401   5.072  16.924  0.00  0.00    +0.000 C 
BRANCH  17  21
ATOM     18  C   UNL     1       6.939   3.917  11.980  0.00  0.00    +0.000 C 
ATOM     19  C   UNL     1       7.034   4.451  13.358  0.00  0.00    +0.000 A 
ATOM     20  C   UNL     1       6.291   4.060  14.493  0.00  0.00    +0.000 A 
ATOM     21  C   UNL     1       6.742   4.886  15.499  0.00  0.00    +0.000 A 
ATOM     22  O   UNL     1       7.714   5.698  14.997  0.00  0.00    +0.000 OA
ATOM     23  N   UNL     1       7.896   5.427  13.652  0.00  0.00    +0.000 NA
ENDBRANCH  17  21
ENDBRANCH  16  17
ENDBRANCH   1  16
BRANCH  12  24
ATOM     24  O   UNL     1       0.223  11.878  18.840  0.00  0.00    +0.000 OA
BRANCH  24  25
ATOM     25  C   UNL     1      -0.975  12.679  19.106  0.00  0.00    +0.000 C 
BRANCH  25  26
ATOM     26  C   UNL     1      -2.361  11.965  19.166  0.00  0.00    +0.000 C 
ATOM     27  C   UNL     1      -2.789  11.546  17.771  0.00  0.00    +0.000 C 
ATOM     28  O   UNL     1      -3.888  10.646  17.869  0.00  0.00    +0.000 OA
ATOM     29  C   UNL     1      -4.921  11.308  18.470  0.00  0.00    +0.000 A 
ATOM     30  N   UNL     1      -6.128  11.001  17.949  0.00  0.00    +0.000 NA
ATOM     31  C   UNL     1      -7.181  11.677  18.439  0.00  0.00    +0.000 A 
ATOM     32  C   UNL     1      -7.088  12.568  19.497  0.00  0.00    +0.000 A 
ATOM     33  C   UNL     1      -5.824  12.849  20.035  0.00  0.00    +0.000 A 
ATOM     34  C   UNL     1      -4.693  12.262  19.468  0.00  0.00    +0.000 A 
ATOM     35  O   UNL     1      -3.428  12.711  19.824  0.00  0.00    +0.000 OA
ENDBRANCH  25  26
ENDBRANCH  24  25
ENDBRANCH  12  24
TORSDOF 6
ENDMDL
MODEL 2
REMARK VINA RESULT:      -9.4      3.355     11.593
REMARK  Name = 
REMARK  7 active torsions:
REMARK  status: ('A' for Active; 'I' for Inactive)
REMARK    1  A    between atoms: C_1  and  C_2
REMARK    2  A    between atoms: C_4  and  C_5
REMARK    3  A    between atoms: C_5  and  O_6
REMARK    4  A    between atoms: O_6  and  C_7
REMARK    5  A    between atoms: C_18  and  O_19
REMARK    6  A    between atoms: O_19  and  C_20
REMARK    7  A    between atoms: C_20  and  C_21
REMARK                            x       y       z     vdW  Elec       q    Type
REMARK                         _______ _______ _______ _____ _____    ______ ____
ROOT
ATOM      1  C   UNL     1      -0.665  11.101  22.643  0.00  0.00    +0.000 A 
ATOM      2  C   UNL     1      -0.396   9.817  23.084  0.00  0.00    +0.000 A 
ATOM      3  C   UNL     1       0.277   8.895  22.253  0.00  0.00    +0.000 A 
ATOM      4  C   UNL     1       0.688   9.225  20.952  0.00  0.00    +0.000 A 
ATOM      5  C   UNL     1       0.385  10.530  20.519  0.00  0.00    +0.000 A 
ATOM      6  C   UNL     1      -0.307  11.448  21.347  0.00  0.00    +0.000 A 
ATOM      7  C   UNL     1       0.770  11.026  19.161  0.00  0.00    +0.000 C 
ATOM      8  C   UNL     1       1.593  10.070  18.311  0.00  0.00    +0.000 C 
ATOM      9  N   UNL     1       1.885   8.735  18.816  0.00  0.00    +0.000 N 
ATOM     10  C   UNL     1       1.426   8.270  20.047  0.00  0.00    +0.000 A 
ATOM     11  C   UNL     1       1.677   6.990  20.373  0.00  0.00    +0.000 A 
ATOM     12  C   UNL     1       2.441   6.192  19.396  0.00  0.00    +0.000 A 
ATOM     13  N   UNL     1       2.929   6.626  18.295  0.00  0.00    +0.000 NA
ATOM     14  C   UNL     1       2.657   7.928  17.949  0.00  0.00    +0.000 A 
ATOM     15  O   UNL     1       3.070   8.378  16.883  0.00  0.00    +0.000 OA
ENDROOT
BRANCH   1  16
ATOM     16  O   UNL     1      -1.312  11.929  23.526  0.00  0.00    +0.000 OA
BRANCH  16  17
ATOM     17  C   UNL     1      -2.746  11.946  23.450  0.00  0.00    +0.000 C 
BRANCH  17  21
ATOM     18  C   UNL     1      -4.962  16.415  24.539  0.00  0.00    +0.000 C 
ATOM     19  C   UNL     1      -4.070  15.306  24.129  0.00  0.00    +0.000 A 
ATOM     20  C   UNL     1      -4.362  13.925  24.096  0.00  0.00    +0.000 A 
ATOM     21  C   UNL     1      -3.189  13.336  23.677  0.00  0.00    +0.000 A 
ATOM     22  O   UNL     1      -2.265  14.312  23.449  0.00  0.00    +0.000 OA
ATOM     23  N   UNL     1      -2.818  15.549  23.736  0.00  0.00    +0.000 NA
ENDBRANCH  17  21
ENDBRANCH  16  17
ENDBRANCH   1  16
BRANCH  12  24
ATOM     24  O   UNL     1       2.564   4.883  19.787  0.00  0.00    +0.000 OA
BRANCH  24  25
ATOM     25  C   UNL     1       3.866   4.350  20.198  0.00  0.00    +0.000 C 
BRANCH  25  26
ATOM     26  C   UNL     1       4.931   4.034  19.103  0.00  0.00    +0.000 C 
ATOM     27  C   UNL     1       6.032   5.079  19.133  0.00  0.00    +0.000 C 
ATOM     28  O   UNL     1       7.131   4.624  18.351  0.00  0.00    +0.000 OA
ATOM     29  C   UNL     1       6.696   4.475  17.064  0.00  0.00    +0.000 A 
ATOM     30  N   UNL     1       7.610   4.853  16.144  0.00  0.00    +0.000 NA
ATOM     31  C   UNL     1       7.219   4.809  14.859  0.00  0.00    +0.000 A 
ATOM     32  C   UNL     1       5.994   4.304  14.453  0.00  0.00    +0.000 A 
ATOM     33  C   UNL     1       5.074   3.895  15.429  0.00  0.00    +0.000 A 
ATOM     34  C   UNL     1       5.396   4.046  16.778  0.00  0.00    +0.000 A 
ATOM     35  O   UNL     1       4.415   3.877  17.747  0.00  0.00    +0.000 OA
ENDBRANCH  25  26
ENDBRANCH  24  25
ENDBRANCH  12  24
TORSDOF 6
ENDMDL
MODEL 3
REMARK VINA RESULT:      -9.4      3.146     11.661
REMARK  Name = 
REMARK  7 active torsions:
REMARK  status: ('A' for Active; 'I' for Inactive)
REMARK    1  A    between atoms: C_1  and  C_2
REMARK    2  A    between atoms: C_4  and  C_5
REMARK    3  A    between atoms: C_5  and  O_6
REMARK    4  A    between atoms: O_6  and  C_7
REMARK    5  A    between atoms: C_18  and  O_19
REMARK    6  A    between atoms: O_19  and  C_20
REMARK    7  A    between atoms: C_20  and  C_21
REMARK                            x       y       z     vdW  Elec       q    Type
REMARK                         _______ _______ _______ _____ _____    ______ ____
ROOT
ATOM      1  C   UNL     1      -1.329  11.520  22.767  0.00  0.00    +0.000 A 
ATOM      2  C   UNL     1      -0.829  10.353  23.318  0.00  0.00    +0.000 A 
ATOM      3  C   UNL     1      -0.060   9.460  22.540  0.00  0.00    +0.000 A 
ATOM      4  C   UNL     1       0.219   9.700  21.186  0.00  0.00    +0.000 A 
ATOM      5  C   UNL     1      -0.318  10.883  20.643  0.00  0.00    +0.000 A 
ATOM      6  C   UNL     1      -1.105  11.768  21.420  0.00  0.00    +0.000 A 
ATOM      7  C   UNL     1      -0.096  11.275  19.216  0.00  0.00    +0.000 C 
ATOM      8  C   UNL     1       0.825  10.370  18.412  0.00  0.00    +0.000 C 
ATOM      9  N   UNL     1       1.361   9.164  19.030  0.00  0.00    +0.000 N 
ATOM     10  C   UNL     1       1.054   8.776  20.333  0.00  0.00    +0.000 A 
ATOM     11  C   UNL     1       1.529   7.597  20.771  0.00  0.00    +0.000 A 
ATOM     12  C   UNL     1       2.359   6.823  19.830  0.00  0.00    +0.000 A 
ATOM     13  N   UNL     1       2.708   7.201  18.657  0.00  0.00    +0.000 NA
ATOM     14  C   UNL     1       2.206   8.396  18.198  0.00  0.00    +0.000 A 
ATOM     15  O   UNL     1       2.480   8.780  17.064  0.00  0.00    +0.000 OA
ENDROOT
BRANCH   1  16
ATOM     16  O   UNL     1      -2.055  12.331  23.604  0.00  0.00    +0.000 OA
BRANCH  16  17
ATOM     17  C   UNL     1      -1.750  13.733  23.556  0.00  0.00    +0.000 C 
BRANCH  17  21
ATOM     18  C   UNL     1      -6.251  15.900  22.504  0.00  0.00    +0.000 C 
ATOM     19  C   UNL     1      -4.974  15.432  23.090  0.00  0.00    +0.000 A 
ATOM     20  C   UNL     1      -3.979  14.636  22.481  0.00  0.00    +0.000 A 
ATOM     21  C   UNL     1      -3.028  14.466  23.463  0.00  0.00    +0.000 A 
ATOM     22  O   UNL     1      -3.422  15.142  24.578  0.00  0.00    +0.000 OA
ATOM     23  N   UNL     1      -4.645  15.747  24.345  0.00  0.00    +0.000 NA
ENDBRANCH  17  21
ENDBRANCH  16  17
ENDBRANCH   1  16
BRANCH  12  24
ATOM     24  O   UNL     1       2.718   5.604  20.344  0.00  0.00    +0.000 OA
BRANCH  24  25
ATOM     25  C   UNL     1       2.683   4.403  19.505  0.00  0.00    +0.000 C 
BRANCH  25  26
ATOM     26  C   UNL     1       3.947   4.030  18.670  0.00  0.00    +0.000 C 
ATOM     27  C   UNL     1       5.157   4.782  19.196  0.00  0.00    +0.000 C 
ATOM     28  O   UNL     1       6.338   4.217  18.637  0.00  0.00    +0.000 OA
ATOM     29  C   UNL     1       6.275   4.372  17.281  0.00  0.00    +0.000 A 
ATOM     30  N   UNL     1       7.467   4.673  16.722  0.00  0.00    +0.000 NA
ATOM     31  C   UNL     1       7.463   4.919  15.400  0.00  0.00    +0.000 A 
ATOM     32  C   UNL     1       6.339   4.774  14.602  0.00  0.00    +0.000 A 
ATOM     33  C   UNL     1       5.120   4.436  15.207  0.00  0.00    +0.000 A 
ATOM     34  C   UNL     1       5.059   4.298  16.594  0.00  0.00    +0.000 A 
ATOM     35  O   UNL     1       3.826   4.206  17.227  0.00  0.00    +0.000 OA
ENDBRANCH  25  26
ENDBRANCH  24  25
ENDBRANCH  12  24
TORSDOF 6
ENDMDL
MODEL 4
REMARK VINA RESULT:      -9.2      3.310      4.286
REMARK  Name = 
REMARK  7 active torsions:
REMARK  status: ('A' for Active; 'I' for Inactive)
REMARK    1  A    between atoms: C_1  and  C_2
REMARK    2  A    between atoms: C_4  and  C_5
REMARK    3  A    between atoms: C_5  and  O_6
REMARK    4  A    between atoms: O_6  and  C_7
REMARK    5  A    between atoms: C_18  and  O_19
REMARK    6  A    between atoms: O_19  and  C_20
REMARK    7  A    between atoms: C_20  and  C_21
REMARK                            x       y       z     vdW  Elec       q    Type
REMARK                         _______ _______ _______ _____ _____    ______ ____
ROOT
ATOM      1  C   UNL     1       2.808   4.955  19.094  0.00  0.00    +0.000 A 
ATOM      2  C   UNL     1       2.289   5.169  20.359  0.00  0.00    +0.000 A 
ATOM      3  C   UNL     1       1.798   6.439  20.732  0.00  0.00    +0.000 A 
ATOM      4  C   UNL     1       1.824   7.536  19.856  0.00  0.00    +0.000 A 
ATOM      5  C   UNL     1       2.374   7.298  18.581  0.00  0.00    +0.000 A 
ATOM      6  C   UNL     1       2.884   6.028  18.216  0.00  0.00    +0.000 A 
ATOM      7  C   UNL     1       2.459   8.369  17.541  0.00  0.00    +0.000 C 
ATOM      8  C   UNL     1       1.828   9.704  17.904  0.00  0.00    +0.000 C 
ATOM      9  N   UNL     1       1.263   9.889  19.235  0.00  0.00    +0.000 N 
ATOM     10  C   UNL     1       1.288   8.900  20.216  0.00  0.00    +0.000 A 
ATOM     11  C   UNL     1       0.821   9.209  21.438  0.00  0.00    +0.000 A 
ATOM     12  C   UNL     1       0.299  10.575  21.625  0.00  0.00    +0.000 A 
ATOM     13  N   UNL     1       0.204  11.470  20.714  0.00  0.00    +0.000 NA
ATOM     14  C   UNL     1       0.700  11.164  19.469  0.00  0.00    +0.000 A 
ATOM     15  O   UNL     1       0.668  12.004  18.573  0.00  0.00    +0.000 OA
ENDROOT
BRANCH   1  16
ATOM     16  O   UNL     1       3.250   3.685  18.820  0.00  0.00    +0.000 OA
BRANCH  16  17
ATOM     17  C   UNL     1       4.253   3.565  17.799  0.00  0.00    +0.000 C 
BRANCH  17  21
ATOM     18  C   UNL     1       8.085   6.869  18.481  0.00  0.00    +0.000 C 
ATOM     19  C   UNL     1       7.064   5.800  18.575  0.00  0.00    +0.000 A 
ATOM     20  C   UNL     1       6.125   5.408  17.596  0.00  0.00    +0.000 A 
ATOM     21  C   UNL     1       5.400   4.404  18.199  0.00  0.00    +0.000 A 
ATOM     22  O   UNL     1       5.898   4.194  19.451  0.00  0.00    +0.000 OA
ATOM     23  N   UNL     1       6.941   5.073  19.687  0.00  0.00    +0.000 NA
ENDBRANCH  17  21
ENDBRANCH  16  17
ENDBRANCH   1  16
BRANCH  12  24
ATOM     24  O   UNL     1      -0.069  10.811  22.925  0.00  0.00    +0.000 OA
BRANCH  24  25
ATOM     25  C   UNL     1      -1.486  10.886  23.294  0.00  0.00    +0.000 C 
BRANCH  25  26
ATOM     26  C   UNL     1      -2.303  12.152  22.892  0.00  0.00    +0.000 C 
ATOM     27  C   UNL     1      -1.647  13.396  23.464  0.00  0.00    +0.000 C 
ATOM     28  O   UNL     1      -2.216  14.549  22.853  0.00  0.00    +0.000 OA
ATOM     29  C   UNL     1      -3.548  14.570  23.157  0.00  0.00    +0.000 A 
ATOM     30  N   UNL     1      -4.020  15.812  23.400  0.00  0.00    +0.000 NA
ATOM     31  C   UNL     1      -5.305  15.899  23.784  0.00  0.00    +0.000 A 
ATOM     32  C   UNL     1      -6.160  14.810  23.834  0.00  0.00    +0.000 A 
ATOM     33  C   UNL     1      -5.648  13.534  23.552  0.00  0.00    +0.000 A 
ATOM     34  C   UNL     1      -4.289  13.389  23.273  0.00  0.00    +0.000 A 
ATOM     35  O   UNL     1      -3.722  12.123  23.233  0.00  0.00    +0.000 OA
ENDBRANCH  25  26
ENDBRANCH  24  25
ENDBRANCH  12  24
TORSDOF 6
ENDMDL
MODEL 5
REMARK VINA RESULT:      -9.2      3.309      4.458
REMARK  Name = 
REMARK  7 active torsions:
REMARK  status: ('A' for Active; 'I' for Inactive)
REMARK    1  A    between atoms: C_1  and  C_2
REMARK    2  A    between atoms: C_4  and  C_5
REMARK    3  A    between atoms: C_5  and  O_6
REMARK    4  A    between atoms: O_6  and  C_7
REMARK    5  A    between atoms: C_18  and  O_19
REMARK    6  A    between atoms: O_19  and  C_20
REMARK    7  A    between atoms: C_20  and  C_21
REMARK                            x       y       z     vdW  Elec       q    Type
REMARK                         _______ _______ _______ _____ _____    ______ ____
ROOT
ATOM      1  C   UNL     1       5.672   5.365  15.381  0.00  0.00    +0.000 A 
ATOM      2  C   UNL     1       5.300   6.629  15.804  0.00  0.00    +0.000 A 
ATOM      3  C   UNL     1       4.434   6.796  16.906  0.00  0.00    +0.000 A 
ATOM      4  C   UNL     1       3.903   5.703  17.609  0.00  0.00    +0.000 A 
ATOM      5  C   UNL     1       4.280   4.427  17.148  0.00  0.00    +0.000 A 
ATOM      6  C   UNL     1       5.133   4.262  16.029  0.00  0.00    +0.000 A 
ATOM      7  C   UNL     1       3.799   3.172  17.804  0.00  0.00    +0.000 C 
ATOM      8  C   UNL     1       2.959   3.354  19.058  0.00  0.00    +0.000 C 
ATOM      9  N   UNL     1       2.609   4.699  19.495  0.00  0.00    +0.000 N 
ATOM     10  C   UNL     1       2.992   5.847  18.803  0.00  0.00    +0.000 A 
ATOM     11  C   UNL     1       2.536   7.033  19.245  0.00  0.00    +0.000 A 
ATOM     12  C   UNL     1       1.681   7.012  20.446  0.00  0.00    +0.000 A 
ATOM     13  N   UNL     1       1.382   5.973  21.132  0.00  0.00    +0.000 NA
ATOM     14  C   UNL     1       1.828   4.757  20.671  0.00  0.00    +0.000 A 
ATOM     15  O   UNL     1       1.532   3.728  21.274  0.00  0.00    +0.000 OA
ENDROOT
BRANCH   1  16
ATOM     16  O   UNL     1       6.526   5.304  14.309  0.00  0.00    +0.000 OA
BRANCH  16  17
ATOM     17  C   UNL     1       6.920   3.992  13.880  0.00  0.00    +0.000 C 
BRANCH  17  21
ATOM     18  C   UNL     1       3.240   3.196  10.431  0.00  0.00    +0.000 C 
ATOM     19  C   UNL     1       4.416   3.138  11.330  0.00  0.00    +0.000 A 
ATOM     20  C   UNL     1       4.781   4.052  12.343  0.00  0.00    +0.000 A 
ATOM     21  C   UNL     1       5.962   3.553  12.846  0.00  0.00    +0.000 A 
ATOM     22  O   UNL     1       6.265   2.397  12.190  0.00  0.00    +0.000 OA
ATOM     23  N   UNL     1       5.296   2.139  11.235  0.00  0.00    +0.000 NA
ENDBRANCH  17  21
ENDBRANCH  16  17
ENDBRANCH   1  16
BRANCH  12  24
ATOM     24  O   UNL     1       1.203   8.259  20.757  0.00  0.00    +0.000 OA
BRANCH  24  25
ATOM     25  C   UNL     1       1.073   9.286  19.719  0.00  0.00    +0.000 C 
BRANCH  25  26
ATOM     26  C   UNL     1       0.331  10.614  20.062  0.00  0.00    +0.000 C 
ATOM     27  C   UNL     1       1.324  11.760  20.133  0.00  0.00    +0.000 C 
ATOM     28  O   UNL     1       0.614  12.994  20.146  0.00  0.00    +0.000 OA
ATOM     29  C   UNL     1      -0.169  13.016  21.266  0.00  0.00    +0.000 A 
ATOM     30  N   UNL     1      -0.230  14.231  21.851  0.00  0.00    +0.000 NA
ATOM     31  C   UNL     1      -0.918  14.307  23.004  0.00  0.00    +0.000 A 
ATOM     32  C   UNL     1      -1.631  13.244  23.535  0.00  0.00    +0.000 A 
ATOM     33  C   UNL     1      -1.569  11.998  22.892  0.00  0.00    +0.000 A 
ATOM     34  C   UNL     1      -0.761  11.851  21.764  0.00  0.00    +0.000 A 
ATOM     35  O   UNL     1      -0.498  10.583  21.263  0.00  0.00    +0.000 OA
ENDBRANCH  25  26
ENDBRANCH  24  25
ENDBRANCH  12  24
TORSDOF 6
ENDMDL
MODEL 6
REMARK VINA RESULT:      -9.2      3.355      5.585
REMARK  Name = 
REMARK  7 active torsions:
REMARK  status: ('A' for Active; 'I' for Inactive)
REMARK    1  A    between atoms: C_1  and  C_2
REMARK    2  A    between atoms: C_4  and  C_5
REMARK    3  A    between atoms: C_5  and  O_6
REMARK    4  A    between atoms: O_6  and  C_7
REMARK    5  A    between atoms: C_18  and  O_19
REMARK    6  A    between atoms: O_19  and  C_20
REMARK    7  A    between atoms: C_20  and  C_21
REMARK                            x       y       z     vdW  Elec       q    Type
REMARK                         _______ _______ _______ _____ _____    ______ ____
ROOT
ATOM      1  C   UNL     1       2.854   7.102  18.236  0.00  0.00    +0.000 A 
ATOM      2  C   UNL     1       2.510   8.204  17.473  0.00  0.00    +0.000 A 
ATOM      3  C   UNL     1       1.764   9.264  18.032  0.00  0.00    +0.000 A 
ATOM      4  C   UNL     1       1.329   9.248  19.367  0.00  0.00    +0.000 A 
ATOM      5  C   UNL     1       1.675   8.107  20.117  0.00  0.00    +0.000 A 
ATOM      6  C   UNL     1       2.406   7.036  19.549  0.00  0.00    +0.000 A 
ATOM      7  C   UNL     1       1.287   7.954  21.554  0.00  0.00    +0.000 C 
ATOM      8  C   UNL     1       0.583   9.146  22.185  0.00  0.00    +0.000 C 
ATOM      9  N   UNL     1       0.261  10.304  21.362  0.00  0.00    +0.000 N 
ATOM     10  C   UNL     1       0.549  10.373  20.000  0.00  0.00    +0.000 A 
ATOM     11  C   UNL     1       0.124  11.451  19.318  0.00  0.00    +0.000 A 
ATOM     12  C   UNL     1      -0.597  12.483  20.085  0.00  0.00    +0.000 A 
ATOM     13  N   UNL     1      -0.805  12.466  21.349  0.00  0.00    +0.000 NA
ATOM     14  C   UNL     1      -0.391  11.355  22.046  0.00  0.00    +0.000 A 
ATOM     15  O   UNL     1      -0.605  11.275  23.253  0.00  0.00    +0.000 OA
ENDROOT
BRANCH   1  16
ATOM     16  O   UNL     1       3.590   6.128  17.609  0.00  0.00    +0.000 OA
BRANCH  16  17
ATOM     17  C   UNL     1       5.017   6.229  17.729  0.00  0.00    +0.000 C 
BRANCH  17  21
ATOM     18  C   UNL     1       6.330   3.858  13.402  0.00  0.00    +0.000 C 
ATOM     19  C   UNL     1       6.255   4.658  14.647  0.00  0.00    +0.000 A 
ATOM     20  C   UNL     1       5.183   4.739  15.562  0.00  0.00    +0.000 A 
ATOM     21  C   UNL     1       5.612   5.638  16.514  0.00  0.00    +0.000 A 
ATOM     22  O   UNL     1       6.873   6.045  16.196  0.00  0.00    +0.000 OA
ATOM     23  N   UNL     1       7.275   5.431  15.022  0.00  0.00    +0.000 NA
ENDBRANCH  17  21
ENDBRANCH  16  17
ENDBRANCH   1  16
BRANCH  12  24
ATOM     24  O   UNL     1      -1.059  13.493  19.280  0.00  0.00    +0.000 OA
BRANCH  24  25
ATOM     25  C   UNL     1      -0.136  14.241  18.423  0.00  0.00    +0.000 C 
BRANCH  25  26
ATOM     26  C   UNL     1       1.154  14.850  19.055  0.00  0.00    +0.000 C 
ATOM     27  C   UNL     1       1.149  16.359  18.890  0.00  0.00    +0.000 C 
ATOM     28  O   UNL     1       2.160  16.923  19.719  0.00  0.00    +0.000 OA
ATOM     29  C   UNL     1       3.366  16.435  19.302  0.00  0.00    +0.000 A 
ATOM     30  N   UNL     1       4.356  17.352  19.342  0.00  0.00    +0.000 NA
ATOM     31  C   UNL     1       5.552  16.963  18.868  0.00  0.00    +0.000 A 
ATOM     32  C   UNL     1       5.822  15.668  18.456  0.00  0.00    +0.000 A 
ATOM     33  C   UNL     1       4.780  14.729  18.448  0.00  0.00    +0.000 A 
ATOM     34  C   UNL     1       3.495  15.131  18.813  0.00  0.00    +0.000 A 
ATOM     35  O   UNL     1       2.415  14.290  18.581  0.00  0.00    +0.000 OA
ENDBRANCH  25  26
ENDBRANCH  24  25
ENDBRANCH  12  24
TORSDOF 6
ENDMDL
MODEL 7
REMARK VINA RESULT:      -9.2      2.720      4.175
REMARK  Name = 
REMARK  7 active torsions:
REMARK  status: ('A' for Active; 'I' for Inactive)
REMARK    1  A    between atoms: C_1  and  C_2
REMARK    2  A    between atoms: C_4  and  C_5
REMARK    3  A    between atoms: C_5  and  O_6
REMARK    4  A    between atoms: O_6  and  C_7
REMARK    5  A    between atoms: C_18  and  O_19
REMARK    6  A    between atoms: O_19  and  C_20
REMARK    7  A    between atoms: C_20  and  C_21
REMARK                            x       y       z     vdW  Elec       q    Type
REMARK                         _______ _______ _______ _____ _____    ______ ____
ROOT
ATOM      1  C   UNL     1       5.610   5.403  15.403  0.00  0.00    +0.000 A 
ATOM      2  C   UNL     1       5.415   6.647  15.975  0.00  0.00    +0.000 A 
ATOM      3  C   UNL     1       4.559   6.804  17.087  0.00  0.00    +0.000 A 
ATOM      4  C   UNL     1       3.862   5.724  17.650  0.00  0.00    +0.000 A 
ATOM      5  C   UNL     1       4.060   4.471  17.037  0.00  0.00    +0.000 A 
ATOM      6  C   UNL     1       4.905   4.319  15.910  0.00  0.00    +0.000 A 
ATOM      7  C   UNL     1       3.391   3.229  17.533  0.00  0.00    +0.000 C 
ATOM      8  C   UNL     1       2.559   3.379  18.798  0.00  0.00    +0.000 C 
ATOM      9  N   UNL     1       2.397   4.699  19.395  0.00  0.00    +0.000 N 
ATOM     10  C   UNL     1       2.956   5.854  18.849  0.00  0.00    +0.000 A 
ATOM     11  C   UNL     1       2.666   7.032  19.430  0.00  0.00    +0.000 A 
ATOM     12  C   UNL     1       1.792   6.991  20.617  0.00  0.00    +0.000 A 
ATOM     13  N   UNL     1       1.332   5.932  21.170  0.00  0.00    +0.000 NA
ATOM     14  C   UNL     1       1.608   4.728  20.566  0.00  0.00    +0.000 A 
ATOM     15  O   UNL     1       1.154   3.688  21.038  0.00  0.00    +0.000 OA
ENDROOT
BRANCH   1  16
ATOM     16  O   UNL     1       6.469   5.347  14.334  0.00  0.00    +0.000 OA
BRANCH  16  17
ATOM     17  C   UNL     1       6.895   4.039  13.925  0.00  0.00    +0.000 C 
BRANCH  17  21
ATOM     18  C   UNL     1       3.297   3.144  10.415  0.00  0.00    +0.000 C 
ATOM     19  C   UNL     1       4.454   3.114  11.338  0.00  0.00    +0.000 A 
ATOM     20  C   UNL     1       4.788   4.049  12.343  0.00  0.00    +0.000 A 
ATOM     21  C   UNL     1       5.964   3.572  12.879  0.00  0.00    +0.000 A 
ATOM     22  O   UNL     1       6.293   2.409  12.249  0.00  0.00    +0.000 OA
ATOM     23  N   UNL     1       5.347   2.123  11.279  0.00  0.00    +0.000 NA
ENDBRANCH  17  21
ENDBRANCH  16  17
ENDBRANCH   1  16
BRANCH  12  24
ATOM     24  O   UNL     1       1.492   8.248  21.076  0.00  0.00    +0.000 OA
BRANCH  24  25
ATOM     25  C   UNL     1       0.385   9.008  20.490  0.00  0.00    +0.000 C 
BRANCH  25  26
ATOM     26  C   UNL     1      -0.030  10.362  21.146  0.00  0.00    +0.000 C 
ATOM     27  C   UNL     1      -0.517  10.124  22.564  0.00  0.00    +0.000 C 
ATOM     28  O   UNL     1      -0.604  11.372  23.244  0.00  0.00    +0.000 OA
ATOM     29  C   UNL     1      -1.518  12.145  22.586  0.00  0.00    +0.000 A 
ATOM     30  N   UNL     1      -2.288  12.884  23.413  0.00  0.00    +0.000 NA
ATOM     31  C   UNL     1      -3.263  13.608  22.837  0.00  0.00    +0.000 A 
ATOM     32  C   UNL     1      -3.429  13.703  21.465  0.00  0.00    +0.000 A 
ATOM     33  C   UNL     1      -2.598  12.944  20.628  0.00  0.00    +0.000 A 
ATOM     34  C   UNL     1      -1.658  12.083  21.195  0.00  0.00    +0.000 A 
ATOM     35  O   UNL     1      -1.002  11.154  20.400  0.00  0.00    +0.000 OA
ENDBRANCH  25  26
ENDBRANCH  24  25
ENDBRANCH  12  24
TORSDOF 6
ENDMDL
MODEL 8
REMARK VINA RESULT:      -9.1      2.616      3.675
REMARK  Name = 
REMARK  7 active torsions:
REMARK  status: ('A' for Active; 'I' for Inactive)
REMARK    1  A    between atoms: C_1  and  C_2
REMARK    2  A    between atoms: C_4  and  C_5
REMARK    3  A    between atoms: C_5  and  O_6
REMARK    4  A    between atoms: O_6  and  C_7
REMARK    5  A    between atoms: C_18  and  O_19
REMARK    6  A    between atoms: O_19  and  C_20
REMARK    7  A    between atoms: C_20  and  C_21
REMARK                            x       y       z     vdW  Elec       q    Type
REMARK                         _______ _______ _______ _____ _____    ______ ____
ROOT
ATOM      1  C   UNL     1       3.354   5.462  19.036  0.00  0.00    +0.000 A 
ATOM      2  C   UNL     1       2.612   5.473  20.204  0.00  0.00    +0.000 A 
ATOM      3  C   UNL     1       1.848   6.605  20.562  0.00  0.00    +0.000 A 
ATOM      4  C   UNL     1       1.813   7.763  19.770  0.00  0.00    +0.000 A 
ATOM      5  C   UNL     1       2.591   7.735  18.597  0.00  0.00    +0.000 A 
ATOM      6  C   UNL     1       3.373   6.606  18.249  0.00  0.00    +0.000 A 
ATOM      7  C   UNL     1       2.645   8.892  17.651  0.00  0.00    +0.000 C 
ATOM      8  C   UNL     1       1.734  10.065  17.980  0.00  0.00    +0.000 C 
ATOM      9  N   UNL     1       0.942  10.034  19.203  0.00  0.00    +0.000 N 
ATOM     10  C   UNL     1       0.991   8.980  20.114  0.00  0.00    +0.000 A 
ATOM     11  C   UNL     1       0.289   9.097  21.255  0.00  0.00    +0.000 A 
ATOM     12  C   UNL     1      -0.494  10.335  21.431  0.00  0.00    +0.000 A 
ATOM     13  N   UNL     1      -0.604  11.278  20.571  0.00  0.00    +0.000 NA
ATOM     14  C   UNL     1       0.129  11.171  19.413  0.00  0.00    +0.000 A 
ATOM     15  O   UNL     1       0.087  12.070  18.577  0.00  0.00    +0.000 OA
ENDROOT
BRANCH   1  16
ATOM     16  O   UNL     1       4.055   4.313  18.766  0.00  0.00    +0.000 OA
BRANCH  16  17
ATOM     17  C   UNL     1       5.486   4.433  18.729  0.00  0.00    +0.000 C 
BRANCH  17  21
ATOM     18  C   UNL     1       6.208   3.894  13.703  0.00  0.00    +0.000 C 
ATOM     19  C   UNL     1       6.284   4.206  15.149  0.00  0.00    +0.000 A 
ATOM     20  C   UNL     1       5.396   3.804  16.172  0.00  0.00    +0.000 A 
ATOM     21  C   UNL     1       5.902   4.387  17.313  0.00  0.00    +0.000 A 
ATOM     22  O   UNL     1       7.036   5.071  16.991  0.00  0.00    +0.000 OA
ATOM     23  N   UNL     1       7.274   4.959  15.632  0.00  0.00    +0.000 NA
ENDBRANCH  17  21
ENDBRANCH  16  17
ENDBRANCH   1  16
BRANCH  12  24
ATOM     24  O   UNL     1      -1.099  10.389  22.660  0.00  0.00    +0.000 OA
BRANCH  24  25
ATOM     25  C   UNL     1      -1.311  11.676  23.328  0.00  0.00    +0.000 C 
BRANCH  25  26
ATOM     26  C   UNL     1      -2.545  12.541  22.924  0.00  0.00    +0.000 C 
ATOM     27  C   UNL     1      -2.353  13.971  23.395  0.00  0.00    +0.000 C 
ATOM     28  O   UNL     1      -3.324  14.804  22.770  0.00  0.00    +0.000 OA
ATOM     29  C   UNL     1      -4.560  14.371  23.159  0.00  0.00    +0.000 A 
ATOM     30  N   UNL     1      -5.435  15.377  23.376  0.00  0.00    +0.000 NA
ATOM     31  C   UNL     1      -6.647  15.027  23.839  0.00  0.00    +0.000 A 
ATOM     32  C   UNL     1      -7.052  13.711  23.992  0.00  0.00    +0.000 A 
ATOM     33  C   UNL     1      -6.130  12.685  23.735  0.00  0.00    +0.000 A 
ATOM     34  C   UNL     1      -4.823  13.015  23.376  0.00  0.00    +0.000 A 
ATOM     35  O   UNL     1      -3.842  12.032  23.356  0.00  0.00    +0.000 OA
ENDBRANCH  25  26
ENDBRANCH  24  25
ENDBRANCH  12  24
TORSDOF 6
ENDMDL
MODEL 9
REMARK VINA RESULT:      -9.1      2.953      4.170
REMARK  Name = 
REMARK  7 active torsions:
REMARK  status: ('A' for Active; 'I' for Inactive)
REMARK    1  A    between atoms: C_1  and  C_2
REMARK    2  A    between atoms: C_4  and  C_5
REMARK    3  A    between atoms: C_5  and  O_6
REMARK    4  A    between atoms: O_6  and  C_7
REMARK    5  A    between atoms: C_18  and  O_19
REMARK    6  A    between atoms: O_19  and  C_20
REMARK    7  A    between atoms: C_20  and  C_21
REMARK                            x       y       z     vdW  Elec       q    Type
REMARK                         _______ _______ _______ _____ _____    ______ ____
ROOT
ATOM      1  C   UNL     1       2.813   5.323  19.160  0.00  0.00    +0.000 A 
ATOM      2  C   UNL     1       2.252   5.504  20.412  0.00  0.00    +0.000 A 
ATOM      3  C   UNL     1       1.713   6.753  20.789  0.00  0.00    +0.000 A 
ATOM      4  C   UNL     1       1.731   7.862  19.929  0.00  0.00    +0.000 A 
ATOM      5  C   UNL     1       2.325   7.660  18.668  0.00  0.00    +0.000 A 
ATOM      6  C   UNL     1       2.883   6.411  18.300  0.00  0.00    +0.000 A 
ATOM      7  C   UNL     1       2.409   8.748  17.646  0.00  0.00    +0.000 C 
ATOM      8  C   UNL     1       1.728  10.059  18.009  0.00  0.00    +0.000 C 
ATOM      9  N   UNL     1       1.119  10.207  19.325  0.00  0.00    +0.000 N 
ATOM     10  C   UNL     1       1.146   9.205  20.293  0.00  0.00    +0.000 A 
ATOM     11  C   UNL     1       0.635   9.482  21.505  0.00  0.00    +0.000 A 
ATOM     12  C   UNL     1       0.068  10.830  21.696  0.00  0.00    +0.000 A 
ATOM     13  N   UNL     1      -0.028  11.735  20.795  0.00  0.00    +0.000 NA
ATOM     14  C   UNL     1       0.513  11.462  19.560  0.00  0.00    +0.000 A 
ATOM     15  O   UNL     1       0.481  12.314  18.676  0.00  0.00    +0.000 OA
ENDROOT
BRANCH   1  16
ATOM     16  O   UNL     1       3.300   4.071  18.881  0.00  0.00    +0.000 OA
BRANCH  16  17
ATOM     17  C   UNL     1       4.655   3.810  19.279  0.00  0.00    +0.000 C 
BRANCH  17  21
ATOM     18  C   UNL     1       6.961   4.689  14.809  0.00  0.00    +0.000 C 
ATOM     19  C   UNL     1       6.591   4.471  16.227  0.00  0.00    +0.000 A 
ATOM     20  C   UNL     1       5.329   4.111  16.750  0.00  0.00    +0.000 A 
ATOM     21  C   UNL     1       5.522   4.073  18.113  0.00  0.00    +0.000 A 
ATOM     22  O   UNL     1       6.826   4.365  18.381  0.00  0.00    +0.000 OA
ATOM     23  N   UNL     1       7.496   4.617  17.197  0.00  0.00    +0.000 NA
ENDBRANCH  17  21
ENDBRANCH  16  17
ENDBRANCH   1  16
BRANCH  12  24
ATOM     24  O   UNL     1      -0.345  11.035  22.987  0.00  0.00    +0.000 OA
BRANCH  24  25
ATOM     25  C   UNL     1      -1.772  11.133  23.305  0.00  0.00    +0.000 C 
BRANCH  25  26
ATOM     26  C   UNL     1      -2.427  12.546  23.402  0.00  0.00    +0.000 C 
ATOM     27  C   UNL     1      -3.332  12.781  22.206  0.00  0.00    +0.000 C 
ATOM     28  O   UNL     1      -4.144  13.924  22.451  0.00  0.00    +0.000 OA
ATOM     29  C   UNL     1      -3.317  15.002  22.599  0.00  0.00    +0.000 A 
ATOM     30  N   UNL     1      -3.805  16.131  22.043  0.00  0.00    +0.000 NA
ATOM     31  C   UNL     1      -3.006  17.211  22.081  0.00  0.00    +0.000 A 
ATOM     32  C   UNL     1      -1.789  17.234  22.743  0.00  0.00    +0.000 A 
ATOM     33  C   UNL     1      -1.318  16.053  23.334  0.00  0.00    +0.000 A 
ATOM     34  C   UNL     1      -2.062  14.879  23.204  0.00  0.00    +0.000 A 
ATOM     35  O   UNL     1      -1.502  13.662  23.567  0.00  0.00    +0.000 OA
ENDBRANCH  25  26
ENDBRANCH  24  25
ENDBRANCH  12  24
TORSDOF 6
ENDMDL
