MODEL 1
REMARK VINA RESULT:      -7.4      0.000      0.000
REMARK  Name = 
REMARK  9 active torsions:
REMARK  status: ('A' for Active; 'I' for Inactive)
REMARK    1  A    between atoms: O_1  and  C_2
REMARK    2  A    between atoms: C_3  and  C_4
REMARK    3  A    between atoms: C_4  and  O_5
REMARK    4  A    between atoms: O_5  and  C_6
REMARK    5  A    between atoms: C_6  and  C_7
REMARK    6  A    between atoms: C_6  and  C_13
REMARK    7  A    between atoms: C_6  and  C_19
REMARK    8  A    between atoms: C_26  and  N_27
REMARK    9  A    between atoms: C_36  and  O_37
REMARK                            x       y       z     vdW  Elec       q    Type
REMARK                         _______ _______ _______ _____ _____    ______ ____
ROOT
ATOM      1  O   UNL     1       0.375  12.225  18.866  0.00  0.00    +0.000 OA
ENDROOT
BRANCH   1   2
ATOM      2  C   UNL     1       1.547  12.542  19.639  0.00  0.00    +0.000 C 
BRANCH   2   4
ATOM      3  C   UNL     1       0.472  14.833  19.615  0.00  0.00    +0.000 C 
ATOM      4  C   UNL     1       1.332  13.856  20.410  0.00  0.00    +0.000 C 
ATOM      5  O   UNL     1       2.596  14.525  20.622  0.00  0.00    +0.000 OA
ATOM      6  C   UNL     1       2.684  15.672  19.737  0.00  0.00    +0.000 C 
ATOM      7  C   UNL     1       1.495  15.576  18.772  0.00  0.00    +0.000 C 
BRANCH   6   8
ATOM      8  N   UNL     1       3.991  15.671  19.101  0.00  0.00    +0.000 N 
ATOM      9  C   UNL     1       4.479  14.733  18.228  0.00  0.00    +0.000 A 
ATOM     10  N   UNL     1       5.728  14.971  17.885  0.00  0.00    +0.000 NA
ATOM     11  C   UNL     1       6.073  16.098  18.588  0.00  0.00    +0.000 A 
ATOM     12  C   UNL     1       7.254  16.826  18.677  0.00  0.00    +0.000 A 
ATOM     13  N   UNL     1       7.303  17.929  19.470  0.00  0.00    +0.000 NA
ATOM     14  C   UNL     1       6.184  18.260  20.152  0.00  0.00    +0.000 A 
ATOM     15  N   UNL     1       4.995  17.624  20.163  0.00  0.00    +0.000 NA
ATOM     16  C   UNL     1       5.008  16.556  19.351  0.00  0.00    +0.000 A 
ENDBRANCH   6   8
BRANCH   3  17
ATOM     17  O   UNL     1      -0.155  15.788  20.490  0.00  0.00    +0.000 OA
ATOM     18  H   UNL     1      -0.807  15.308  21.034  0.00  0.00    +0.000 HD
ENDBRANCH   3  17
BRANCH   7  19
ATOM     19  O   UNL     1       0.958  16.829  18.359  0.00  0.00    +0.000 OA
ATOM     20  H   UNL     1       1.714  17.456  18.348  0.00  0.00    +0.000 HD
ENDBRANCH   7  19
ENDBRANCH   2   4
ENDBRANCH   1   2
BRANCH   1  21
ATOM     21  C   UNL     1      -0.327  10.991  19.256  0.00  0.00    +0.000 C 
BRANCH  21  22
ATOM     22  C   UNL     1      -0.933  11.307  20.667  0.00  0.00    +0.000 A 
ATOM     23  C   UNL     1      -1.966  12.274  20.754  0.00  0.00    +0.000 A 
ATOM     24  C   UNL     1      -2.613  12.563  21.957  0.00  0.00    +0.000 A 
ATOM     25  C   UNL     1      -2.243  11.899  23.119  0.00  0.00    +0.000 A 
ATOM     26  C   UNL     1      -1.182  11.000  23.085  0.00  0.00    +0.000 A 
ATOM     27  C   UNL     1      -0.511  10.740  21.881  0.00  0.00    +0.000 A 
ENDBRANCH  21  22
BRANCH  21  28
ATOM     28  C   UNL     1      -1.475  10.776  18.201  0.00  0.00    +0.000 A 
ATOM     29  C   UNL     1      -1.666  11.674  17.130  0.00  0.00    +0.000 A 
ATOM     30  C   UNL     1      -2.699  11.499  16.203  0.00  0.00    +0.000 A 
ATOM     31  C   UNL     1      -3.580  10.425  16.326  0.00  0.00    +0.000 A 
ATOM     32  C   UNL     1      -3.407   9.516  17.362  0.00  0.00    +0.000 A 
ATOM     33  C   UNL     1      -2.355   9.674  18.271  0.00  0.00    +0.000 A 
ENDBRANCH  21  28
BRANCH  21  34
ATOM     34  C   UNL     1       0.684   9.805  19.091  0.00  0.00    +0.000 A 
ATOM     35  C   UNL     1       1.397   9.530  17.914  0.00  0.00    +0.000 A 
ATOM     36  C   UNL     1       2.229   8.404  17.808  0.00  0.00    +0.000 A 
ATOM     37  C   UNL     1       2.446   7.582  18.909  0.00  0.00    +0.000 A 
ATOM     38  C   UNL     1       1.834   7.884  20.119  0.00  0.00    +0.000 A 
ATOM     39  C   UNL     1       0.973   8.979  20.207  0.00  0.00    +0.000 A 
ENDBRANCH  21  34
ENDBRANCH   1  21
TORSDOF 9
ENDMDL
MODEL 2
REMARK VINA RESULT:      -7.2      4.658      7.602
REMARK  Name = 
REMARK  9 active torsions:
REMARK  status: ('A' for Active; 'I' for Inactive)
REMARK    1  A    between atoms: O_1  and  C_2
REMARK    2  A    between atoms: C_3  and  C_4
REMARK    3  A    between atoms: C_4  and  O_5
REMARK    4  A    between atoms: O_5  and  C_6
REMARK    5  A    between atoms: C_6  and  C_7
REMARK    6  A    between atoms: C_6  and  C_13
REMARK    7  A    between atoms: C_6  and  C_19
REMARK    8  A    between atoms: C_26  and  N_27
REMARK    9  A    between atoms: C_36  and  O_37
REMARK                            x       y       z     vdW  Elec       q    Type
REMARK                         _______ _______ _______ _____ _____    ______ ____
ROOT
ATOM      1  O   UNL     1      -2.111  12.800  21.296  0.00  0.00    +0.000 OA
ENDROOT
BRANCH   1   2
ATOM      2  C   UNL     1      -1.588  13.730  22.261  0.00  0.00    +0.000 C 
BRANCH   2   4
ATOM      3  C   UNL     1      -2.966  15.439  23.519  0.00  0.00    +0.000 C 
ATOM      4  C   UNL     1      -2.349  15.065  22.176  0.00  0.00    +0.000 C 
ATOM      5  O   UNL     1      -3.454  14.953  21.251  0.00  0.00    +0.000 OA
ATOM      6  C   UNL     1      -4.698  14.896  21.996  0.00  0.00    +0.000 C 
ATOM      7  C   UNL     1      -4.319  14.745  23.475  0.00  0.00    +0.000 C 
BRANCH   6   8
ATOM      8  N   UNL     1      -5.512  13.819  21.460  0.00  0.00    +0.000 N 
ATOM      9  C   UNL     1      -5.660  12.560  21.986  0.00  0.00    +0.000 A 
ATOM     10  N   UNL     1      -6.406  11.785  21.225  0.00  0.00    +0.000 NA
ATOM     11  C   UNL     1      -6.734  12.568  20.146  0.00  0.00    +0.000 A 
ATOM     12  C   UNL     1      -7.472  12.320  18.994  0.00  0.00    +0.000 A 
ATOM     13  N   UNL     1      -7.638  13.311  18.080  0.00  0.00    +0.000 NA
ATOM     14  C   UNL     1      -7.057  14.504  18.335  0.00  0.00    +0.000 A 
ATOM     15  N   UNL     1      -6.305  14.854  19.398  0.00  0.00    +0.000 NA
ATOM     16  C   UNL     1      -6.192  13.840  20.270  0.00  0.00    +0.000 A 
ENDBRANCH   6   8
BRANCH   3  17
ATOM     17  O   UNL     1      -3.201  16.857  23.595  0.00  0.00    +0.000 OA
ATOM     18  H   UNL     1      -4.146  17.011  23.410  0.00  0.00    +0.000 HD
ENDBRANCH   3  17
BRANCH   7  19
ATOM     19  O   UNL     1      -5.212  15.376  24.388  0.00  0.00    +0.000 OA
ATOM     20  H   UNL     1      -4.851  16.278  24.539  0.00  0.00    +0.000 HD
ENDBRANCH   7  19
ENDBRANCH   2   4
ENDBRANCH   1   2
BRANCH   1  21
ATOM     21  C   UNL     1      -1.115  12.187  20.401  0.00  0.00    +0.000 C 
BRANCH  21  22
ATOM     22  C   UNL     1      -0.507  11.006  21.235  0.00  0.00    +0.000 A 
ATOM     23  C   UNL     1       0.438  10.156  20.607  0.00  0.00    +0.000 A 
ATOM     24  C   UNL     1       1.083   9.126  21.295  0.00  0.00    +0.000 A 
ATOM     25  C   UNL     1       0.800   8.906  22.636  0.00  0.00    +0.000 A 
ATOM     26  C   UNL     1      -0.178   9.672  23.263  0.00  0.00    +0.000 A 
ATOM     27  C   UNL     1      -0.850  10.681  22.558  0.00  0.00    +0.000 A 
ENDBRANCH  21  22
BRANCH  21  28
ATOM     28  C   UNL     1      -1.908  11.632  19.160  0.00  0.00    +0.000 A 
ATOM     29  C   UNL     1      -3.277  11.921  18.975  0.00  0.00    +0.000 A 
ATOM     30  C   UNL     1      -3.990  11.411  17.884  0.00  0.00    +0.000 A 
ATOM     31  C   UNL     1      -3.359  10.588  16.953  0.00  0.00    +0.000 A 
ATOM     32  C   UNL     1      -2.009  10.298  17.103  0.00  0.00    +0.000 A 
ATOM     33  C   UNL     1      -1.287  10.834  18.176  0.00  0.00    +0.000 A 
ENDBRANCH  21  28
BRANCH  21  34
ATOM     34  C   UNL     1      -0.182  13.334  19.883  0.00  0.00    +0.000 A 
ATOM     35  C   UNL     1      -0.610  14.398  19.074  0.00  0.00    +0.000 A 
ATOM     36  C   UNL     1       0.294  15.351  18.578  0.00  0.00    +0.000 A 
ATOM     37  C   UNL     1       1.631  15.320  18.960  0.00  0.00    +0.000 A 
ATOM     38  C   UNL     1       2.068  14.337  19.841  0.00  0.00    +0.000 A 
ATOM     39  C   UNL     1       1.175  13.366  20.295  0.00  0.00    +0.000 A 
ENDBRANCH  21  34
ENDBRANCH   1  21
TORSDOF 9
ENDMDL
MODEL 3
REMARK VINA RESULT:      -7.2      4.668      7.834
REMARK  Name = 
REMARK  9 active torsions:
REMARK  status: ('A' for Active; 'I' for Inactive)
REMARK    1  A    between atoms: O_1  and  C_2
REMARK    2  A    between atoms: C_3  and  C_4
REMARK    3  A    between atoms: C_4  and  O_5
REMARK    4  A    between atoms: O_5  and  C_6
REMARK    5  A    between atoms: C_6  and  C_7
REMARK    6  A    between atoms: C_6  and  C_13
REMARK    7  A    between atoms: C_6  and  C_19
REMARK    8  A    between atoms: C_26  and  N_27
REMARK    9  A    between atoms: C_36  and  O_37
REMARK                            x       y       z     vdW  Elec       q    Type
REMARK                         _______ _______ _______ _____ _____    ______ ____
ROOT
ATOM      1  O   UNL     1      -2.181  12.672  20.983  0.00  0.00    +0.000 OA
ENDROOT
BRANCH   1   2
ATOM      2  C   UNL     1      -1.618  13.547  21.977  0.00  0.00    +0.000 C 
BRANCH   2   4
ATOM      3  C   UNL     1      -2.899  15.224  23.373  0.00  0.00    +0.000 C 
ATOM      4  C   UNL     1      -2.366  14.891  21.984  0.00  0.00    +0.000 C 
ATOM      5  O   UNL     1      -3.524  14.824  21.122  0.00  0.00    +0.000 OA
ATOM      6  C   UNL     1      -4.723  14.753  21.936  0.00  0.00    +0.000 C 
ATOM      7  C   UNL     1      -4.260  14.546  23.384  0.00  0.00    +0.000 C 
BRANCH   6   8
ATOM      8  N   UNL     1      -5.581  13.704  21.412  0.00  0.00    +0.000 N 
ATOM      9  C   UNL     1      -5.821  12.479  21.980  0.00  0.00    +0.000 A 
ATOM     10  N   UNL     1      -6.585  11.718  21.222  0.00  0.00    +0.000 NA
ATOM     11  C   UNL     1      -6.828  12.474  20.102  0.00  0.00    +0.000 A 
ATOM     12  C   UNL     1      -7.539  12.223  18.934  0.00  0.00    +0.000 A 
ATOM     13  N   UNL     1      -7.613  13.184  17.977  0.00  0.00    +0.000 NA
ATOM     14  C   UNL     1      -6.972  14.351  18.208  0.00  0.00    +0.000 A 
ATOM     15  N   UNL     1      -6.239  14.700  19.284  0.00  0.00    +0.000 NA
ATOM     16  C   UNL     1      -6.217  13.716  20.198  0.00  0.00    +0.000 A 
ENDBRANCH   6   8
BRANCH   3  17
ATOM     17  O   UNL     1      -3.112  16.641  23.512  0.00  0.00    +0.000 OA
ATOM     18  H   UNL     1      -3.711  16.921  22.797  0.00  0.00    +0.000 HD
ENDBRANCH   3  17
BRANCH   7  19
ATOM     19  O   UNL     1      -5.091  15.153  24.370  0.00  0.00    +0.000 OA
ATOM     20  H   UNL     1      -4.913  16.118  24.315  0.00  0.00    +0.000 HD
ENDBRANCH   7  19
ENDBRANCH   2   4
ENDBRANCH   1   2
BRANCH   1  21
ATOM     21  C   UNL     1      -1.207  11.912  20.182  0.00  0.00    +0.000 C 
BRANCH  21  22
ATOM     22  C   UNL     1      -2.008  11.452  18.915  0.00  0.00    +0.000 A 
ATOM     23  C   UNL     1      -3.370  11.829  18.806  0.00  0.00    +0.000 A 
ATOM     24  C   UNL     1      -4.137  11.526  17.679  0.00  0.00    +0.000 A 
ATOM     25  C   UNL     1      -3.568  10.827  16.623  0.00  0.00    +0.000 A 
ATOM     26  C   UNL     1      -2.257  10.375  16.728  0.00  0.00    +0.000 A 
ATOM     27  C   UNL     1      -1.502  10.650  17.878  0.00  0.00    +0.000 A 
ENDBRANCH  21  22
BRANCH  21  28
ATOM     28  C   UNL     1      -0.073  12.925  19.775  0.00  0.00    +0.000 A 
ATOM     29  C   UNL     1      -0.354  14.068  18.996  0.00  0.00    +0.000 A 
ATOM     30  C   UNL     1       0.655  14.959  18.614  0.00  0.00    +0.000 A 
ATOM     31  C   UNL     1       1.977  14.728  18.991  0.00  0.00    +0.000 A 
ATOM     32  C   UNL     1       2.281  13.620  19.771  0.00  0.00    +0.000 A 
ATOM     33  C   UNL     1       1.267  12.745  20.180  0.00  0.00    +0.000 A 
ENDBRANCH  21  28
BRANCH  21  34
ATOM     34  C   UNL     1      -0.559  10.842  21.124  0.00  0.00    +0.000 A 
ATOM     35  C   UNL     1      -0.855  10.705  22.489  0.00  0.00    +0.000 A 
ATOM     36  C   UNL     1      -0.179   9.775  23.296  0.00  0.00    +0.000 A 
ATOM     37  C   UNL     1       0.737   8.891  22.736  0.00  0.00    +0.000 A 
ATOM     38  C   UNL     1       0.979   8.933  21.368  0.00  0.00    +0.000 A 
ATOM     39  C   UNL     1       0.339   9.889  20.578  0.00  0.00    +0.000 A 
ENDBRANCH  21  34
ENDBRANCH   1  21
TORSDOF 9
ENDMDL
MODEL 4
REMARK VINA RESULT:      -7.2      4.695      8.541
REMARK  Name = 
REMARK  9 active torsions:
REMARK  status: ('A' for Active; 'I' for Inactive)
REMARK    1  A    between atoms: O_1  and  C_2
REMARK    2  A    between atoms: C_3  and  C_4
REMARK    3  A    between atoms: C_4  and  O_5
REMARK    4  A    between atoms: O_5  and  C_6
REMARK    5  A    between atoms: C_6  and  C_7
REMARK    6  A    between atoms: C_6  and  C_13
REMARK    7  A    between atoms: C_6  and  C_19
REMARK    8  A    between atoms: C_26  and  N_27
REMARK    9  A    between atoms: C_36  and  O_37
REMARK                            x       y       z     vdW  Elec       q    Type
REMARK                         _______ _______ _______ _____ _____    ______ ____
ROOT
ATOM      1  O   UNL     1      -1.240  11.155  18.305  0.00  0.00    +0.000 OA
ENDROOT
BRANCH   1   2
ATOM      2  C   UNL     1      -2.193  10.084  18.433  0.00  0.00    +0.000 C 
BRANCH   2   4
ATOM      3  C   UNL     1      -3.388  11.489  16.701  0.00  0.00    +0.000 C 
ATOM      4  C   UNL     1      -3.147  10.078  17.226  0.00  0.00    +0.000 C 
ATOM      5  O   UNL     1      -4.445   9.574  17.616  0.00  0.00    +0.000 OA
ATOM      6  C   UNL     1      -5.385  10.678  17.685  0.00  0.00    +0.000 C 
ATOM      7  C   UNL     1      -4.563  11.966  17.539  0.00  0.00    +0.000 C 
BRANCH   6   8
ATOM      8  N   UNL     1      -6.139  10.570  18.922  0.00  0.00    +0.000 N 
ATOM      9  C   UNL     1      -6.770   9.451  19.405  0.00  0.00    +0.000 A 
ATOM     10  N   UNL     1      -7.437   9.694  20.515  0.00  0.00    +0.000 NA
ATOM     11  C   UNL     1      -7.253  11.034  20.746  0.00  0.00    +0.000 A 
ATOM     12  C   UNL     1      -7.719  11.890  21.737  0.00  0.00    +0.000 A 
ATOM     13  N   UNL     1      -7.361  13.200  21.713  0.00  0.00    +0.000 NA
ATOM     14  C   UNL     1      -6.563  13.614  20.703  0.00  0.00    +0.000 A 
ATOM     15  N   UNL     1      -6.069  12.887  19.681  0.00  0.00    +0.000 NA
ATOM     16  C   UNL     1      -6.446  11.602  19.770  0.00  0.00    +0.000 A 
ENDBRANCH   6   8
BRANCH   3  17
ATOM     17  O   UNL     1      -3.812  11.456  15.326  0.00  0.00    +0.000 OA
ATOM     18  H   UNL     1      -3.391  10.684  14.905  0.00  0.00    +0.000 HD
ENDBRANCH   3  17
BRANCH   7  19
ATOM     19  O   UNL     1      -5.233  13.029  16.867  0.00  0.00    +0.000 OA
ATOM     20  H   UNL     1      -5.293  13.763  17.516  0.00  0.00    +0.000 HD
ENDBRANCH   7  19
ENDBRANCH   2   4
ENDBRANCH   1   2
BRANCH   1  21
ATOM     21  C   UNL     1      -0.296  11.301  19.426  0.00  0.00    +0.000 C 
BRANCH  21  22
ATOM     22  C   UNL     1       0.559   9.987  19.398  0.00  0.00    +0.000 A 
ATOM     23  C   UNL     1       1.101   9.563  18.159  0.00  0.00    +0.000 A 
ATOM     24  C   UNL     1       1.934   8.446  18.056  0.00  0.00    +0.000 A 
ATOM     25  C   UNL     1       2.248   7.710  19.191  0.00  0.00    +0.000 A 
ATOM     26  C   UNL     1       1.672   8.053  20.409  0.00  0.00    +0.000 A 
ATOM     27  C   UNL     1       0.807   9.152  20.502  0.00  0.00    +0.000 A 
ENDBRANCH  21  22
BRANCH  21  28
ATOM     28  C   UNL     1       0.605  12.548  19.094  0.00  0.00    +0.000 A 
ATOM     29  C   UNL     1       0.152  13.864  19.326  0.00  0.00    +0.000 A 
ATOM     30  C   UNL     1       0.941  14.976  19.011  0.00  0.00    +0.000 A 
ATOM     31  C   UNL     1       2.204  14.805  18.445  0.00  0.00    +0.000 A 
ATOM     32  C   UNL     1       2.682  13.520  18.219  0.00  0.00    +0.000 A 
ATOM     33  C   UNL     1       1.906  12.408  18.563  0.00  0.00    +0.000 A 
ENDBRANCH  21  28
BRANCH  21  34
ATOM     34  C   UNL     1      -1.133  11.658  20.700  0.00  0.00    +0.000 A 
ATOM     35  C   UNL     1      -2.385  12.292  20.675  0.00  0.00    +0.000 A 
ATOM     36  C   UNL     1      -3.048  12.655  21.858  0.00  0.00    +0.000 A 
ATOM     37  C   UNL     1      -2.521  12.304  23.097  0.00  0.00    +0.000 A 
ATOM     38  C   UNL     1      -1.332  11.587  23.155  0.00  0.00    +0.000 A 
ATOM     39  C   UNL     1      -0.654  11.268  21.978  0.00  0.00    +0.000 A 
ENDBRANCH  21  34
ENDBRANCH   1  21
TORSDOF 9
ENDMDL
MODEL 5
REMARK VINA RESULT:      -7.1      3.252      5.410
REMARK  Name = 
REMARK  9 active torsions:
REMARK  status: ('A' for Active; 'I' for Inactive)
REMARK    1  A    between atoms: O_1  and  C_2
REMARK    2  A    between atoms: C_3  and  C_4
REMARK    3  A    between atoms: C_4  and  O_5
REMARK    4  A    between atoms: O_5  and  C_6
REMARK    5  A    between atoms: C_6  and  C_7
REMARK    6  A    between atoms: C_6  and  C_13
REMARK    7  A    between atoms: C_6  and  C_19
REMARK    8  A    between atoms: C_26  and  N_27
REMARK    9  A    between atoms: C_36  and  O_37
REMARK                            x       y       z     vdW  Elec       q    Type
REMARK                         _______ _______ _______ _____ _____    ______ ____
ROOT
ATOM      1  O   UNL     1      -1.109  11.109  20.526  0.00  0.00    +0.000 OA
ENDROOT
BRANCH   1   2
ATOM      2  C   UNL     1      -0.317  11.848  21.473  0.00  0.00    +0.000 C 
BRANCH   2   4
ATOM      3  C   UNL     1      -2.572  12.216  22.559  0.00  0.00    +0.000 C 
ATOM      4  C   UNL     1      -1.082  11.999  22.799  0.00  0.00    +0.000 C 
ATOM      5  O   UNL     1      -0.622  13.168  23.513  0.00  0.00    +0.000 OA
ATOM      6  C   UNL     1      -1.629  14.210  23.423  0.00  0.00    +0.000 C 
ATOM      7  C   UNL     1      -2.675  13.725  22.410  0.00  0.00    +0.000 C 
BRANCH   6   8
ATOM      8  N   UNL     1      -0.975  15.460  23.076  0.00  0.00    +0.000 N 
ATOM      9  C   UNL     1      -0.814  15.983  21.818  0.00  0.00    +0.000 A 
ATOM     10  N   UNL     1      -0.109  17.096  21.825  0.00  0.00    +0.000 NA
ATOM     11  C   UNL     1       0.224  17.288  23.143  0.00  0.00    +0.000 A 
ATOM     12  C   UNL     1       0.975  18.263  23.791  0.00  0.00    +0.000 A 
ATOM     13  N   UNL     1       1.136  18.199  25.138  0.00  0.00    +0.000 NA
ATOM     14  C   UNL     1       0.556  17.166  25.790  0.00  0.00    +0.000 A 
ATOM     15  N   UNL     1      -0.171  16.157  25.272  0.00  0.00    +0.000 NA
ATOM     16  C   UNL     1      -0.306  16.286  23.943  0.00  0.00    +0.000 A 
ENDBRANCH   6   8
BRANCH   3  17
ATOM     17  O   UNL     1      -3.336  11.835  23.718  0.00  0.00    +0.000 OA
ATOM     18  H   UNL     1      -3.322  12.585  24.341  0.00  0.00    +0.000 HD
ENDBRANCH   3  17
BRANCH   7  19
ATOM     19  O   UNL     1      -4.009  14.145  22.681  0.00  0.00    +0.000 OA
ATOM     20  H   UNL     1      -3.977  15.126  22.733  0.00  0.00    +0.000 HD
ENDBRANCH   7  19
ENDBRANCH   2   4
ENDBRANCH   1   2
BRANCH   1  21
ATOM     21  C   UNL     1      -0.532  10.985  19.177  0.00  0.00    +0.000 C 
BRANCH  21  22
ATOM     22  C   UNL     1      -1.771  10.944  18.217  0.00  0.00    +0.000 A 
ATOM     23  C   UNL     1      -2.980  11.541  18.653  0.00  0.00    +0.000 A 
ATOM     24  C   UNL     1      -4.109  11.615  17.835  0.00  0.00    +0.000 A 
ATOM     25  C   UNL     1      -4.070  11.086  16.551  0.00  0.00    +0.000 A 
ATOM     26  C   UNL     1      -2.926  10.425  16.119  0.00  0.00    +0.000 A 
ATOM     27  C   UNL     1      -1.806  10.320  16.958  0.00  0.00    +0.000 A 
ENDBRANCH  21  22
BRANCH  21  28
ATOM     28  C   UNL     1       0.311  12.291  18.927  0.00  0.00    +0.000 A 
ATOM     29  C   UNL     1       1.715  12.243  18.789  0.00  0.00    +0.000 A 
ATOM     30  C   UNL     1       2.470  13.404  18.589  0.00  0.00    +0.000 A 
ATOM     31  C   UNL     1       1.845  14.649  18.533  0.00  0.00    +0.000 A 
ATOM     32  C   UNL     1       0.463  14.724  18.651  0.00  0.00    +0.000 A 
ATOM     33  C   UNL     1      -0.296  13.560  18.819  0.00  0.00    +0.000 A 
ENDBRANCH  21  28
BRANCH  21  34
ATOM     34  C   UNL     1       0.471   9.782  19.205  0.00  0.00    +0.000 A 
ATOM     35  C   UNL     1       0.762   9.019  20.346  0.00  0.00    +0.000 A 
ATOM     36  C   UNL     1       1.730   8.003  20.322  0.00  0.00    +0.000 A 
ATOM     37  C   UNL     1       2.361   7.659  19.131  0.00  0.00    +0.000 A 
ATOM     38  C   UNL     1       2.022   8.328  17.960  0.00  0.00    +0.000 A 
ATOM     39  C   UNL     1       1.092   9.367  17.999  0.00  0.00    +0.000 A 
ENDBRANCH  21  34
ENDBRANCH   1  21
TORSDOF 9
ENDMDL
MODEL 6
REMARK VINA RESULT:      -7.1      3.248      5.323
REMARK  Name = 
REMARK  9 active torsions:
REMARK  status: ('A' for Active; 'I' for Inactive)
REMARK    1  A    between atoms: O_1  and  C_2
REMARK    2  A    between atoms: C_3  and  C_4
REMARK    3  A    between atoms: C_4  and  O_5
REMARK    4  A    between atoms: O_5  and  C_6
REMARK    5  A    between atoms: C_6  and  C_7
REMARK    6  A    between atoms: C_6  and  C_13
REMARK    7  A    between atoms: C_6  and  C_19
REMARK    8  A    between atoms: C_26  and  N_27
REMARK    9  A    between atoms: C_36  and  O_37
REMARK                            x       y       z     vdW  Elec       q    Type
REMARK                         _______ _______ _______ _____ _____    ______ ____
ROOT
ATOM      1  O   UNL     1      -1.067  11.014  20.577  0.00  0.00    +0.000 OA
ENDROOT
BRANCH   1   2
ATOM      2  C   UNL     1      -0.307  11.794  21.517  0.00  0.00    +0.000 C 
BRANCH   2   4
ATOM      3  C   UNL     1      -2.580  12.203  22.550  0.00  0.00    +0.000 C 
ATOM      4  C   UNL     1      -1.099  11.967  22.824  0.00  0.00    +0.000 C 
ATOM      5  O   UNL     1      -0.639  13.136  23.539  0.00  0.00    +0.000 OA
ATOM      6  C   UNL     1      -1.628  14.191  23.417  0.00  0.00    +0.000 C 
ATOM      7  C   UNL     1      -2.658  13.712  22.385  0.00  0.00    +0.000 C 
BRANCH   6   8
ATOM      8  N   UNL     1      -0.949  15.429  23.075  0.00  0.00    +0.000 N 
ATOM      9  C   UNL     1      -0.739  15.931  21.815  0.00  0.00    +0.000 A 
ATOM     10  N   UNL     1      -0.023  17.036  21.830  0.00  0.00    +0.000 NA
ATOM     11  C   UNL     1       0.267  17.245  23.156  0.00  0.00    +0.000 A 
ATOM     12  C   UNL     1       1.005  18.222  23.814  0.00  0.00    +0.000 A 
ATOM     13  N   UNL     1       1.119  18.177  25.167  0.00  0.00    +0.000 NA
ATOM     14  C   UNL     1       0.506  17.161  25.814  0.00  0.00    +0.000 A 
ATOM     15  N   UNL     1      -0.214  16.151  25.287  0.00  0.00    +0.000 NA
ATOM     16  C   UNL     1      -0.301  16.261  23.951  0.00  0.00    +0.000 A 
ENDBRANCH   6   8
BRANCH   3  17
ATOM     17  O   UNL     1      -3.375  11.843  23.695  0.00  0.00    +0.000 OA
ATOM     18  H   UNL     1      -2.888  11.158  24.189  0.00  0.00    +0.000 HD
ENDBRANCH   3  17
BRANCH   7  19
ATOM     19  O   UNL     1      -3.991  14.153  22.623  0.00  0.00    +0.000 OA
ATOM     20  H   UNL     1      -4.268  13.733  23.467  0.00  0.00    +0.000 HD
ENDBRANCH   7  19
ENDBRANCH   2   4
ENDBRANCH   1   2
BRANCH   1  21
ATOM     21  C   UNL     1      -0.524  10.963  19.209  0.00  0.00    +0.000 C 
BRANCH  21  22
ATOM     22  C   UNL     1      -1.788  10.933  18.282  0.00  0.00    +0.000 A 
ATOM     23  C   UNL     1      -2.972  11.565  18.737  0.00  0.00    +0.000 A 
ATOM     24  C   UNL     1      -4.119  11.650  17.945  0.00  0.00    +0.000 A 
ATOM     25  C   UNL     1      -4.125  11.098  16.672  0.00  0.00    +0.000 A 
ATOM     26  C   UNL     1      -3.006  10.404  16.223  0.00  0.00    +0.000 A 
ATOM     27  C   UNL     1      -1.868  10.289  17.035  0.00  0.00    +0.000 A 
ENDBRANCH  21  22
BRANCH  21  28
ATOM     28  C   UNL     1       0.281  12.299  18.996  0.00  0.00    +0.000 A 
ATOM     29  C   UNL     1      -0.379  13.529  18.791  0.00  0.00    +0.000 A 
ATOM     30  C   UNL     1       0.333  14.714  18.579  0.00  0.00    +0.000 A 
ATOM     31  C   UNL     1       1.727  14.704  18.556  0.00  0.00    +0.000 A 
ATOM     32  C   UNL     1       2.403  13.510  18.770  0.00  0.00    +0.000 A 
ATOM     33  C   UNL     1       1.692  12.329  19.014  0.00  0.00    +0.000 A 
ENDBRANCH  21  28
BRANCH  21  34
ATOM     34  C   UNL     1       0.507   9.785  19.158  0.00  0.00    +0.000 A 
ATOM     35  C   UNL     1       1.223   9.407  18.011  0.00  0.00    +0.000 A 
ATOM     36  C   UNL     1       2.074   8.291  18.013  0.00  0.00    +0.000 A 
ATOM     37  C   UNL     1       2.309   7.585  19.189  0.00  0.00    +0.000 A 
ATOM     38  C   UNL     1       1.694   7.995  20.366  0.00  0.00    +0.000 A 
ATOM     39  C   UNL     1       0.813   9.078  20.349  0.00  0.00    +0.000 A 
ENDBRANCH  21  34
ENDBRANCH   1  21
TORSDOF 9
ENDMDL
MODEL 7
REMARK VINA RESULT:      -7.1      3.407      5.966
REMARK  Name = 
REMARK  9 active torsions:
REMARK  status: ('A' for Active; 'I' for Inactive)
REMARK    1  A    between atoms: O_1  and  C_2
REMARK    2  A    between atoms: C_3  and  C_4
REMARK    3  A    between atoms: C_4  and  O_5
REMARK    4  A    between atoms: O_5  and  C_6
REMARK    5  A    between atoms: C_6  and  C_7
REMARK    6  A    between atoms: C_6  and  C_13
REMARK    7  A    between atoms: C_6  and  C_19
REMARK    8  A    between atoms: C_26  and  N_27
REMARK    9  A    between atoms: C_36  and  O_37
REMARK                            x       y       z     vdW  Elec       q    Type
REMARK                         _______ _______ _______ _____ _____    ______ ____
ROOT
ATOM      1  O   UNL     1      -0.914  10.934  20.779  0.00  0.00    +0.000 OA
ENDROOT
BRANCH   1   2
ATOM      2  C   UNL     1      -1.773  12.019  21.173  0.00  0.00    +0.000 C 
BRANCH   2   4
ATOM      3  C   UNL     1      -3.425  12.505  23.026  0.00  0.00    +0.000 C 
ATOM      4  C   UNL     1      -2.045  11.954  22.686  0.00  0.00    +0.000 C 
ATOM      5  O   UNL     1      -1.101  12.782  23.402  0.00  0.00    +0.000 OA
ATOM      6  C   UNL     1      -1.774  13.982  23.866  0.00  0.00    +0.000 C 
ATOM      7  C   UNL     1      -3.161  13.991  23.209  0.00  0.00    +0.000 C 
BRANCH   6   8
ATOM      8  N   UNL     1      -0.942  15.132  23.555  0.00  0.00    +0.000 N 
ATOM      9  C   UNL     1      -0.509  15.522  22.313  0.00  0.00    +0.000 A 
ATOM     10  N   UNL     1       0.297  16.563  22.369  0.00  0.00    +0.000 NA
ATOM     11  C   UNL     1       0.411  16.843  23.707  0.00  0.00    +0.000 A 
ATOM     12  C   UNL     1       1.135  17.801  24.409  0.00  0.00    +0.000 A 
ATOM     13  N   UNL     1       1.050  17.844  25.764  0.00  0.00    +0.000 NA
ATOM     14  C   UNL     1       0.260  16.932  26.372  0.00  0.00    +0.000 A 
ATOM     15  N   UNL     1      -0.467  15.949  25.804  0.00  0.00    +0.000 NA
ATOM     16  C   UNL     1      -0.352  15.969  24.467  0.00  0.00    +0.000 A 
ENDBRANCH   6   8
BRANCH   3  17
ATOM     17  O   UNL     1      -3.887  11.982  24.285  0.00  0.00    +0.000 OA
ATOM     18  H   UNL     1      -3.349  12.388  24.990  0.00  0.00    +0.000 HD
ENDBRANCH   3  17
BRANCH   7  19
ATOM     19  O   UNL     1      -4.193  14.569  24.003  0.00  0.00    +0.000 OA
ATOM     20  H   UNL     1      -4.950  14.717  23.394  0.00  0.00    +0.000 HD
ENDBRANCH   7  19
ENDBRANCH   2   4
ENDBRANCH   1   2
BRANCH   1  21
ATOM     21  C   UNL     1      -0.323  11.049  19.435  0.00  0.00    +0.000 C 
BRANCH  21  22
ATOM     22  C   UNL     1       0.483  12.394  19.469  0.00  0.00    +0.000 A 
ATOM     23  C   UNL     1       1.494  12.547  20.452  0.00  0.00    +0.000 A 
ATOM     24  C   UNL     1       2.309  13.680  20.508  0.00  0.00    +0.000 A 
ATOM     25  C   UNL     1       2.136  14.704  19.586  0.00  0.00    +0.000 A 
ATOM     26  C   UNL     1       1.105  14.620  18.656  0.00  0.00    +0.000 A 
ATOM     27  C   UNL     1       0.264  13.497  18.627  0.00  0.00    +0.000 A 
ENDBRANCH  21  22
BRANCH  21  28
ATOM     28  C   UNL     1       0.655   9.827  19.268  0.00  0.00    +0.000 A 
ATOM     29  C   UNL     1       0.836   8.886  20.304  0.00  0.00    +0.000 A 
ATOM     30  C   UNL     1       1.721   7.811  20.168  0.00  0.00    +0.000 A 
ATOM     31  C   UNL     1       2.460   7.651  18.996  0.00  0.00    +0.000 A 
ATOM     32  C   UNL     1       2.290   8.554  17.955  0.00  0.00    +0.000 A 
ATOM     33  C   UNL     1       1.382   9.612  18.078  0.00  0.00    +0.000 A 
ENDBRANCH  21  28
BRANCH  21  34
ATOM     34  C   UNL     1      -1.481  10.863  18.397  0.00  0.00    +0.000 A 
ATOM     35  C   UNL     1      -1.481   9.902  17.373  0.00  0.00    +0.000 A 
ATOM     36  C   UNL     1      -2.516   9.840  16.427  0.00  0.00    +0.000 A 
ATOM     37  C   UNL     1      -3.626  10.671  16.540  0.00  0.00    +0.000 A 
ATOM     38  C   UNL     1      -3.704  11.566  17.601  0.00  0.00    +0.000 A 
ATOM     39  C   UNL     1      -2.652  11.655  18.513  0.00  0.00    +0.000 A 
ENDBRANCH  21  34
ENDBRANCH   1  21
TORSDOF 9
ENDMDL
MODEL 8
REMARK VINA RESULT:      -7.1      1.268      1.801
REMARK  Name = 
REMARK  9 active torsions:
REMARK  status: ('A' for Active; 'I' for Inactive)
REMARK    1  A    between atoms: O_1  and  C_2
REMARK    2  A    between atoms: C_3  and  C_4
REMARK    3  A    between atoms: C_4  and  O_5
REMARK    4  A    between atoms: O_5  and  C_6
REMARK    5  A    between atoms: C_6  and  C_7
REMARK    6  A    between atoms: C_6  and  C_13
REMARK    7  A    between atoms: C_6  and  C_19
REMARK    8  A    between atoms: C_26  and  N_27
REMARK    9  A    between atoms: C_36  and  O_37
REMARK                            x       y       z     vdW  Elec       q    Type
REMARK                         _______ _______ _______ _____ _____    ______ ____
ROOT
ATOM      1  O   UNL     1       0.389  12.189  18.949  0.00  0.00    +0.000 OA
ENDROOT
BRANCH   1   2
ATOM      2  C   UNL     1       1.328  12.697  19.914  0.00  0.00    +0.000 C 
BRANCH   2   4
ATOM      3  C   UNL     1       1.326  14.954  18.770  0.00  0.00    +0.000 C 
ATOM      4  C   UNL     1       1.137  14.214  20.089  0.00  0.00    +0.000 C 
ATOM      5  O   UNL     1       2.138  14.744  20.987  0.00  0.00    +0.000 OA
ATOM      6  C   UNL     1       3.121  15.489  20.221  0.00  0.00    +0.000 C 
ATOM      7  C   UNL     1       2.823  15.217  18.740  0.00  0.00    +0.000 C 
BRANCH   6   8
ATOM      8  N   UNL     1       4.449  15.096  20.660  0.00  0.00    +0.000 N 
ATOM      9  C   UNL     1       4.756  14.274  21.716  0.00  0.00    +0.000 A 
ATOM     10  N   UNL     1       6.055  14.173  21.908  0.00  0.00    +0.000 NA
ATOM     11  C   UNL     1       6.613  14.984  20.952  0.00  0.00    +0.000 A 
ATOM     12  C   UNL     1       7.929  15.320  20.655  0.00  0.00    +0.000 A 
ATOM     13  N   UNL     1       8.188  16.166  19.624  0.00  0.00    +0.000 NA
ATOM     14  C   UNL     1       7.134  16.655  18.934  0.00  0.00    +0.000 A 
ATOM     15  N   UNL     1       5.822  16.421  19.141  0.00  0.00    +0.000 NA
ATOM     16  C   UNL     1       5.635  15.568  20.161  0.00  0.00    +0.000 A 
ENDBRANCH   6   8
BRANCH   3  17
ATOM     17  O   UNL     1       0.656  16.228  18.799  0.00  0.00    +0.000 OA
ATOM     18  H   UNL     1       0.959  16.703  19.595  0.00  0.00    +0.000 HD
ENDBRANCH   3  17
BRANCH   7  19
ATOM     19  O   UNL     1       3.103  16.305  17.865  0.00  0.00    +0.000 OA
ATOM     20  H   UNL     1       3.751  16.872  18.338  0.00  0.00    +0.000 HD
ENDBRANCH   7  19
ENDBRANCH   2   4
ENDBRANCH   1   2
BRANCH   1  21
ATOM     21  C   UNL     1      -0.353  10.985  19.359  0.00  0.00    +0.000 C 
BRANCH  21  22
ATOM     22  C   UNL     1      -0.973  11.355  20.750  0.00  0.00    +0.000 A 
ATOM     23  C   UNL     1      -2.004  12.327  20.790  0.00  0.00    +0.000 A 
ATOM     24  C   UNL     1      -2.662  12.663  21.975  0.00  0.00    +0.000 A 
ATOM     25  C   UNL     1      -2.307  12.041  23.165  0.00  0.00    +0.000 A 
ATOM     26  C   UNL     1      -1.249  11.138  23.175  0.00  0.00    +0.000 A 
ATOM     27  C   UNL     1      -0.566  10.832  21.989  0.00  0.00    +0.000 A 
ENDBRANCH  21  22
BRANCH  21  28
ATOM     28  C   UNL     1      -1.489  10.773  18.290  0.00  0.00    +0.000 A 
ATOM     29  C   UNL     1      -2.376   9.678  18.370  0.00  0.00    +0.000 A 
ATOM     30  C   UNL     1      -3.374   9.474  17.410  0.00  0.00    +0.000 A 
ATOM     31  C   UNL     1      -3.508  10.353  16.336  0.00  0.00    +0.000 A 
ATOM     32  C   UNL     1      -2.658  11.447  16.241  0.00  0.00    +0.000 A 
ATOM     33  C   UNL     1      -1.680  11.669  17.217  0.00  0.00    +0.000 A 
ENDBRANCH  21  28
BRANCH  21  34
ATOM     34  C   UNL     1       0.628   9.769  19.242  0.00  0.00    +0.000 A 
ATOM     35  C   UNL     1       0.899   8.867  20.283  0.00  0.00    +0.000 A 
ATOM     36  C   UNL     1       1.849   7.844  20.137  0.00  0.00    +0.000 A 
ATOM     37  C   UNL     1       2.478   7.635  18.914  0.00  0.00    +0.000 A 
ATOM     38  C   UNL     1       2.157   8.448  17.832  0.00  0.00    +0.000 A 
ATOM     39  C   UNL     1       1.245   9.492  17.995  0.00  0.00    +0.000 A 
ENDBRANCH  21  34
ENDBRANCH   1  21
TORSDOF 9
ENDMDL
MODEL 9
REMARK VINA RESULT:      -7.1      3.331      5.581
REMARK  Name = 
REMARK  9 active torsions:
REMARK  status: ('A' for Active; 'I' for Inactive)
REMARK    1  A    between atoms: O_1  and  C_2
REMARK    2  A    between atoms: C_3  and  C_4
REMARK    3  A    between atoms: C_4  and  O_5
REMARK    4  A    between atoms: O_5  and  C_6
REMARK    5  A    between atoms: C_6  and  C_7
REMARK    6  A    between atoms: C_6  and  C_13
REMARK    7  A    between atoms: C_6  and  C_19
REMARK    8  A    between atoms: C_26  and  N_27
REMARK    9  A    between atoms: C_36  and  O_37
REMARK                            x       y       z     vdW  Elec       q    Type
REMARK                         _______ _______ _______ _____ _____    ______ ____
ROOT
ATOM      1  O   UNL     1      -0.818  11.058  20.774  0.00  0.00    +0.000 OA
ENDROOT
BRANCH   1   2
ATOM      2  C   UNL     1      -0.278  12.037  21.680  0.00  0.00    +0.000 C 
BRANCH   2   4
ATOM      3  C   UNL     1      -2.642  12.341  22.527  0.00  0.00    +0.000 C 
ATOM      4  C   UNL     1      -1.180  12.165  22.919  0.00  0.00    +0.000 C 
ATOM      5  O   UNL     1      -0.828  13.345  23.676  0.00  0.00    +0.000 OA
ATOM      6  C   UNL     1      -1.848  14.360  23.480  0.00  0.00    +0.000 C 
ATOM      7  C   UNL     1      -2.770  13.848  22.365  0.00  0.00    +0.000 C 
BRANCH   6   8
ATOM      8  N   UNL     1      -1.197  15.628  23.201  0.00  0.00    +0.000 N 
ATOM      9  C   UNL     1      -1.096  16.250  21.983  0.00  0.00    +0.000 A 
ATOM     10  N   UNL     1      -0.377  17.352  22.042  0.00  0.00    +0.000 NA
ATOM     11  C   UNL     1       0.029  17.433  23.351  0.00  0.00    +0.000 A 
ATOM     12  C   UNL     1       0.828  18.344  24.033  0.00  0.00    +0.000 A 
ATOM     13  N   UNL     1       1.060  18.167  25.360  0.00  0.00    +0.000 NA
ATOM     14  C   UNL     1       0.502  17.091  25.957  0.00  0.00    +0.000 A 
ATOM     15  N   UNL     1      -0.266  16.134  25.399  0.00  0.00    +0.000 NA
ATOM     16  C   UNL     1      -0.470  16.373  24.094  0.00  0.00    +0.000 A 
ENDBRANCH   6   8
BRANCH   3  17
ATOM     17  O   UNL     1      -3.511  11.938  23.601  0.00  0.00    +0.000 OA
ATOM     18  H   UNL     1      -3.377  12.561  24.339  0.00  0.00    +0.000 HD
ENDBRANCH   3  17
BRANCH   7  19
ATOM     19  O   UNL     1      -4.136  14.230  22.497  0.00  0.00    +0.000 OA
ATOM     20  H   UNL     1      -4.407  13.956  23.401  0.00  0.00    +0.000 HD
ENDBRANCH   7  19
ENDBRANCH   2   4
ENDBRANCH   1   2
BRANCH   1  21
ATOM     21  C   UNL     1      -0.281  11.098  19.403  0.00  0.00    +0.000 C 
BRANCH  21  22
ATOM     22  C   UNL     1       0.675   9.858  19.314  0.00  0.00    +0.000 A 
ATOM     23  C   UNL     1       0.847   9.057  20.471  0.00  0.00    +0.000 A 
ATOM     24  C   UNL     1       1.620   7.894  20.461  0.00  0.00    +0.000 A 
ATOM     25  C   UNL     1       2.255   7.495  19.292  0.00  0.00    +0.000 A 
ATOM     26  C   UNL     1       2.170   8.298  18.160  0.00  0.00    +0.000 A 
ATOM     27  C   UNL     1       1.423   9.485  18.185  0.00  0.00    +0.000 A 
ENDBRANCH  21  22
BRANCH  21  28
ATOM     28  C   UNL     1      -1.509  10.915  18.435  0.00  0.00    +0.000 A 
ATOM     29  C   UNL     1      -2.730  11.583  18.664  0.00  0.00    +0.000 A 
ATOM     30  C   UNL     1      -3.830  11.405  17.818  0.00  0.00    +0.000 A 
ATOM     31  C   UNL     1      -3.745  10.545  16.724  0.00  0.00    +0.000 A 
ATOM     32  C   UNL     1      -2.551   9.886  16.466  0.00  0.00    +0.000 A 
ATOM     33  C   UNL     1      -1.440  10.088  17.293  0.00  0.00    +0.000 A 
ENDBRANCH  21  28
BRANCH  21  34
ATOM     34  C   UNL     1       0.288  12.538  19.165  0.00  0.00    +0.000 A 
ATOM     35  C   UNL     1      -0.499  13.696  19.070  0.00  0.00    +0.000 A 
ATOM     36  C   UNL     1       0.068  14.946  18.777  0.00  0.00    +0.000 A 
ATOM     37  C   UNL     1       1.448  15.086  18.670  0.00  0.00    +0.000 A 
ATOM     38  C   UNL     1       2.264  13.977  18.859  0.00  0.00    +0.000 A 
ATOM     39  C   UNL     1       1.693  12.729  19.106  0.00  0.00    +0.000 A 
ENDBRANCH  21  34
ENDBRANCH   1  21
TORSDOF 9
ENDMDL
