MODEL 1
REMARK VINA RESULT:      -9.0      0.000      0.000
REMARK  Name = 
REMARK  9 active torsions:
REMARK  status: ('A' for Active; 'I' for Inactive)
REMARK    1  A    between atoms: C_2  and  C_24
REMARK    2  A    between atoms: N_3  and  N_4
REMARK    3  A    between atoms: C_5  and  C_6
REMARK    4  A    between atoms: C_9  and  O_10
REMARK    5  A    between atoms: O_10  and  C_11
REMARK    6  A    between atoms: C_11  and  C_12
REMARK    7  A    between atoms: C_17  and  C_18
REMARK    8  A    between atoms: C_27  and  O_28
REMARK    9  A    between atoms: C_29  and  O_30
REMARK                            x       y       z     vdW  Elec       q    Type
REMARK                         _______ _______ _______ _____ _____    ______ ____
ROOT
ATOM      1  C   UNL     1       7.606   7.508  17.824  0.00  0.00    +0.000 A 
ATOM      2  C   UNL     1       8.102   6.805  18.927  0.00  0.00    +0.000 A 
ATOM      3  C   UNL     1       7.584   5.555  19.245  0.00  0.00    +0.000 A 
ATOM      4  C   UNL     1       6.543   5.021  18.487  0.00  0.00    +0.000 A 
ATOM      5  C   UNL     1       6.104   5.686  17.337  0.00  0.00    +0.000 A 
ATOM      6  C   UNL     1       6.631   6.940  17.004  0.00  0.00    +0.000 A 
ENDROOT
BRANCH   1   8
ATOM      7  N   UNL     1       8.668   9.523  18.544  0.00  0.00    +0.000 NA
ATOM      8  C   UNL     1       8.100   8.875  17.580  0.00  0.00    +0.000 C 
BRANCH   7  11
ATOM      9  O   UNL     1      10.149  11.001  20.346  0.00  0.00    +0.000 OA
ATOM     10  C   UNL     1       9.820  11.454  19.253  0.00  0.00    +0.000 C 
ATOM     11  N   UNL     1       9.090  10.782  18.285  0.00  0.00    +0.000 N 
ATOM     12  H   UNL     1       8.937  11.173  17.361  0.00  0.00    +0.000 HD
BRANCH  10  13
ATOM     13  C   UNL     1      10.257  12.823  18.879  0.00  0.00    +0.000 A 
ATOM     14  C   UNL     1      10.429  13.771  19.900  0.00  0.00    +0.000 A 
ATOM     15  C   UNL     1      10.865  15.064  19.599  0.00  0.00    +0.000 A 
ATOM     16  C   UNL     1      11.117  15.399  18.275  0.00  0.00    +0.000 A 
ATOM     17  C   UNL     1      10.922  14.462  17.261  0.00  0.00    +0.000 A 
ATOM     18  C   UNL     1      10.485  13.180  17.545  0.00  0.00    +0.000 A 
BRANCH  16  19
ATOM     19  O   UNL     1      11.556  16.641  17.913  0.00  0.00    +0.000 OA
ATOM     20  H   UNL     1      11.260  17.275  18.589  0.00  0.00    +0.000 HD
ENDBRANCH  16  19
BRANCH  17  21
ATOM     21  O   UNL     1      11.161  14.802  15.960  0.00  0.00    +0.000 OA
ATOM     22  H   UNL     1      10.660  14.142  15.438  0.00  0.00    +0.000 HD
ENDBRANCH  17  21
ENDBRANCH  10  13
ENDBRANCH   7  11
ENDBRANCH   1   8
BRANCH   4  23
ATOM     23  O   UNL     1       5.869   3.875  18.827  0.00  0.00    +0.000 OA
BRANCH  23  24
ATOM     24  C   UNL     1       4.523   3.847  18.332  0.00  0.00    +0.000 C 
BRANCH  24  25
ATOM     25  C   UNL     1       3.546   3.749  19.480  0.00  0.00    +0.000 A 
ATOM     26  C   UNL     1       3.548   2.567  20.248  0.00  0.00    +0.000 A 
ATOM     27  C   UNL     1       2.675   2.406  21.320  0.00  0.00    +0.000 A 
ATOM     28  C   UNL     1       1.775   3.414  21.639  0.00  0.00    +0.000 A 
ATOM     29  C   UNL     1       1.778   4.602  20.906  0.00  0.00    +0.000 A 
ATOM     30  C   UNL     1       2.677   4.802  19.838  0.00  0.00    +0.000 A 
BRANCH  30  31
ATOM     31  C   UNL     1       2.646   6.162  19.168  0.00  0.00    +0.000 C 
ATOM     32  F   UNL     1       2.325   6.168  17.849  0.00  0.00    +0.000 F 
ATOM     33  F   UNL     1       1.783   7.025  19.773  0.00  0.00    +0.000 F 
ATOM     34  F   UNL     1       3.868   6.774  19.225  0.00  0.00    +0.000 F 
ENDBRANCH  30  31
ENDBRANCH  24  25
ENDBRANCH  23  24
ENDBRANCH   4  23
TORSDOF 9
ENDMDL
MODEL 2
REMARK VINA RESULT:      -8.9      1.888      2.577
REMARK  Name = 
REMARK  9 active torsions:
REMARK  status: ('A' for Active; 'I' for Inactive)
REMARK    1  A    between atoms: C_2  and  C_24
REMARK    2  A    between atoms: N_3  and  N_4
REMARK    3  A    between atoms: C_5  and  C_6
REMARK    4  A    between atoms: C_9  and  O_10
REMARK    5  A    between atoms: O_10  and  C_11
REMARK    6  A    between atoms: C_11  and  C_12
REMARK    7  A    between atoms: C_17  and  C_18
REMARK    8  A    between atoms: C_27  and  O_28
REMARK    9  A    between atoms: C_29  and  O_30
REMARK                            x       y       z     vdW  Elec       q    Type
REMARK                         _______ _______ _______ _____ _____    ______ ____
ROOT
ATOM      1  C   UNL     1       7.016   6.493  17.381  0.00  0.00    +0.000 A 
ATOM      2  C   UNL     1       6.884   6.119  18.722  0.00  0.00    +0.000 A 
ATOM      3  C   UNL     1       6.138   4.997  19.062  0.00  0.00    +0.000 A 
ATOM      4  C   UNL     1       5.489   4.267  18.067  0.00  0.00    +0.000 A 
ATOM      5  C   UNL     1       5.688   4.591  16.721  0.00  0.00    +0.000 A 
ATOM      6  C   UNL     1       6.450   5.714  16.372  0.00  0.00    +0.000 A 
ENDROOT
BRANCH   1   8
ATOM      7  N   UNL     1       7.947   8.601  18.010  0.00  0.00    +0.000 NA
ATOM      8  C   UNL     1       7.721   7.748  17.065  0.00  0.00    +0.000 C 
BRANCH   7  11
ATOM      9  O   UNL     1       9.305  10.147  19.852  0.00  0.00    +0.000 OA
ATOM     10  C   UNL     1       9.227  10.467  18.668  0.00  0.00    +0.000 C 
ATOM     11  N   UNL     1       8.580   9.748  17.676  0.00  0.00    +0.000 N 
ATOM     12  H   UNL     1       8.638  10.012  16.698  0.00  0.00    +0.000 HD
BRANCH  10  13
ATOM     13  C   UNL     1       9.910  11.705  18.210  0.00  0.00    +0.000 A 
ATOM     14  C   UNL     1      11.291  11.653  17.964  0.00  0.00    +0.000 A 
ATOM     15  C   UNL     1      11.972  12.784  17.507  0.00  0.00    +0.000 A 
ATOM     16  C   UNL     1      11.262  13.962  17.309  0.00  0.00    +0.000 A 
ATOM     17  C   UNL     1       9.895  14.016  17.578  0.00  0.00    +0.000 A 
ATOM     18  C   UNL     1       9.211  12.904  18.037  0.00  0.00    +0.000 A 
BRANCH  16  19
ATOM     19  O   UNL     1      11.863  15.101  16.854  0.00  0.00    +0.000 OA
ATOM     20  H   UNL     1      12.713  15.201  17.317  0.00  0.00    +0.000 HD
ENDBRANCH  16  19
BRANCH  17  21
ATOM     21  O   UNL     1       9.207  15.181  17.392  0.00  0.00    +0.000 OA
ATOM     22  H   UNL     1       9.092  15.545  18.294  0.00  0.00    +0.000 HD
ENDBRANCH  17  21
ENDBRANCH  10  13
ENDBRANCH   7  11
ENDBRANCH   1   8
BRANCH   4  23
ATOM     23  O   UNL     1       4.607   3.249  18.328  0.00  0.00    +0.000 OA
BRANCH  23  24
ATOM     24  C   UNL     1       3.258   3.565  17.955  0.00  0.00    +0.000 C 
BRANCH  24  25
ATOM     25  C   UNL     1       2.732   4.695  18.807  0.00  0.00    +0.000 A 
ATOM     26  C   UNL     1       2.695   5.985  18.241  0.00  0.00    +0.000 A 
ATOM     27  C   UNL     1       2.224   7.075  18.966  0.00  0.00    +0.000 A 
ATOM     28  C   UNL     1       1.792   6.902  20.275  0.00  0.00    +0.000 A 
ATOM     29  C   UNL     1       1.797   5.627  20.843  0.00  0.00    +0.000 A 
ATOM     30  C   UNL     1       2.237   4.502  20.115  0.00  0.00    +0.000 A 
BRANCH  30  31
ATOM     31  C   UNL     1       2.119   3.157  20.805  0.00  0.00    +0.000 C 
ATOM     32  F   UNL     1       3.278   2.469  20.967  0.00  0.00    +0.000 F 
ATOM     33  F   UNL     1       1.556   3.249  22.041  0.00  0.00    +0.000 F 
ATOM     34  F   UNL     1       1.312   2.306  20.102  0.00  0.00    +0.000 F 
ENDBRANCH  30  31
ENDBRANCH  24  25
ENDBRANCH  23  24
ENDBRANCH   4  23
TORSDOF 9
ENDMDL
MODEL 3
REMARK VINA RESULT:      -8.7      1.815      2.204
REMARK  Name = 
REMARK  9 active torsions:
REMARK  status: ('A' for Active; 'I' for Inactive)
REMARK    1  A    between atoms: C_2  and  C_24
REMARK    2  A    between atoms: N_3  and  N_4
REMARK    3  A    between atoms: C_5  and  C_6
REMARK    4  A    between atoms: C_9  and  O_10
REMARK    5  A    between atoms: O_10  and  C_11
REMARK    6  A    between atoms: C_11  and  C_12
REMARK    7  A    between atoms: C_17  and  C_18
REMARK    8  A    between atoms: C_27  and  O_28
REMARK    9  A    between atoms: C_29  and  O_30
REMARK                            x       y       z     vdW  Elec       q    Type
REMARK                         _______ _______ _______ _____ _____    ______ ____
ROOT
ATOM      1  C   UNL     1       7.531   7.475  17.863  0.00  0.00    +0.000 A 
ATOM      2  C   UNL     1       8.078   6.639  18.842  0.00  0.00    +0.000 A 
ATOM      3  C   UNL     1       7.497   5.404  19.104  0.00  0.00    +0.000 A 
ATOM      4  C   UNL     1       6.346   5.017  18.419  0.00  0.00    +0.000 A 
ATOM      5  C   UNL     1       5.848   5.817  17.384  0.00  0.00    +0.000 A 
ATOM      6  C   UNL     1       6.437   7.056  17.106  0.00  0.00    +0.000 A 
ENDROOT
BRANCH   1   8
ATOM      7  N   UNL     1       8.807   9.339  18.641  0.00  0.00    +0.000 NA
ATOM      8  C   UNL     1       8.105   8.821  17.687  0.00  0.00    +0.000 C 
BRANCH   7  11
ATOM      9  O   UNL     1       9.512  11.006  20.727  0.00  0.00    +0.000 OA
ATOM     10  C   UNL     1       9.617  11.355  19.554  0.00  0.00    +0.000 C 
ATOM     11  N   UNL     1       9.300  10.583  18.447  0.00  0.00    +0.000 N 
ATOM     12  H   UNL     1       9.504  10.891  17.503  0.00  0.00    +0.000 HD
BRANCH  10  13
ATOM     13  C   UNL     1      10.167  12.701  19.250  0.00  0.00    +0.000 A 
ATOM     14  C   UNL     1      10.508  13.541  20.322  0.00  0.00    +0.000 A 
ATOM     15  C   UNL     1      11.055  14.805  20.086  0.00  0.00    +0.000 A 
ATOM     16  C   UNL     1      11.246  15.221  18.775  0.00  0.00    +0.000 A 
ATOM     17  C   UNL     1      10.884  14.395  17.712  0.00  0.00    +0.000 A 
ATOM     18  C   UNL     1      10.336  13.143  17.933  0.00  0.00    +0.000 A 
BRANCH  16  19
ATOM     19  O   UNL     1      11.785  16.440  18.473  0.00  0.00    +0.000 OA
ATOM     20  H   UNL     1      12.725  16.310  18.256  0.00  0.00    +0.000 HD
ENDBRANCH  16  19
BRANCH  17  21
ATOM     21  O   UNL     1      11.064  14.815  16.426  0.00  0.00    +0.000 OA
ATOM     22  H   UNL     1      12.033  14.780  16.289  0.00  0.00    +0.000 HD
ENDBRANCH  17  21
ENDBRANCH  10  13
ENDBRANCH   7  11
ENDBRANCH   1   8
BRANCH   4  23
ATOM     23  O   UNL     1       5.621   3.894  18.729  0.00  0.00    +0.000 OA
BRANCH  23  24
ATOM     24  C   UNL     1       4.649   4.120  19.759  0.00  0.00    +0.000 C 
BRANCH  24  25
ATOM     25  C   UNL     1       3.261   3.819  19.243  0.00  0.00    +0.000 A 
ATOM     26  C   UNL     1       3.022   3.980  17.864  0.00  0.00    +0.000 A 
ATOM     27  C   UNL     1       1.769   3.723  17.317  0.00  0.00    +0.000 A 
ATOM     28  C   UNL     1       0.726   3.312  18.137  0.00  0.00    +0.000 A 
ATOM     29  C   UNL     1       0.952   3.121  19.501  0.00  0.00    +0.000 A 
ATOM     30  C   UNL     1       2.222   3.342  20.071  0.00  0.00    +0.000 A 
BRANCH  30  31
ATOM     31  C   UNL     1       2.371   3.023  21.546  0.00  0.00    +0.000 C 
ATOM     32  F   UNL     1       3.383   2.178  21.872  0.00  0.00    +0.000 F 
ATOM     33  F   UNL     1       2.546   4.137  22.309  0.00  0.00    +0.000 F 
ATOM     34  F   UNL     1       1.249   2.418  22.041  0.00  0.00    +0.000 F 
ENDBRANCH  30  31
ENDBRANCH  24  25
ENDBRANCH  23  24
ENDBRANCH   4  23
TORSDOF 9
ENDMDL
MODEL 4
REMARK VINA RESULT:      -8.5      2.137      2.742
REMARK  Name = 
REMARK  9 active torsions:
REMARK  status: ('A' for Active; 'I' for Inactive)
REMARK    1  A    between atoms: C_2  and  C_24
REMARK    2  A    between atoms: N_3  and  N_4
REMARK    3  A    between atoms: C_5  and  C_6
REMARK    4  A    between atoms: C_9  and  O_10
REMARK    5  A    between atoms: O_10  and  C_11
REMARK    6  A    between atoms: C_11  and  C_12
REMARK    7  A    between atoms: C_17  and  C_18
REMARK    8  A    between atoms: C_27  and  O_28
REMARK    9  A    between atoms: C_29  and  O_30
REMARK                            x       y       z     vdW  Elec       q    Type
REMARK                         _______ _______ _______ _____ _____    ______ ____
ROOT
ATOM      1  C   UNL     1       6.933   6.430  17.481  0.00  0.00    +0.000 A 
ATOM      2  C   UNL     1       6.797   5.560  18.567  0.00  0.00    +0.000 A 
ATOM      3  C   UNL     1       5.890   4.510  18.508  0.00  0.00    +0.000 A 
ATOM      4  C   UNL     1       5.087   4.348  17.379  0.00  0.00    +0.000 A 
ATOM      5  C   UNL     1       5.280   5.167  16.262  0.00  0.00    +0.000 A 
ATOM      6  C   UNL     1       6.203   6.220  16.311  0.00  0.00    +0.000 A 
ENDROOT
BRANCH   1   8
ATOM      7  N   UNL     1       8.354   7.854  18.771  0.00  0.00    +0.000 NA
ATOM      8  C   UNL     1       7.824   7.596  17.619  0.00  0.00    +0.000 C 
BRANCH   7  11
ATOM      9  O   UNL     1       7.655  10.305  17.707  0.00  0.00    +0.000 OA
ATOM     10  C   UNL     1       8.724  10.131  18.287  0.00  0.00    +0.000 C 
ATOM     11  N   UNL     1       9.150   8.943  18.860  0.00  0.00    +0.000 N 
ATOM     12  H   UNL     1       9.998   8.889  19.414  0.00  0.00    +0.000 HD
BRANCH  10  13
ATOM     13  C   UNL     1       9.652  11.280  18.447  0.00  0.00    +0.000 A 
ATOM     14  C   UNL     1      10.652  11.199  19.429  0.00  0.00    +0.000 A 
ATOM     15  C   UNL     1      11.564  12.243  19.599  0.00  0.00    +0.000 A 
ATOM     16  C   UNL     1      11.460  13.366  18.787  0.00  0.00    +0.000 A 
ATOM     17  C   UNL     1      10.451  13.453  17.829  0.00  0.00    +0.000 A 
ATOM     18  C   UNL     1       9.537  12.428  17.656  0.00  0.00    +0.000 A 
BRANCH  16  19
ATOM     19  O   UNL     1      12.325  14.417  18.893  0.00  0.00    +0.000 OA
ATOM     20  H   UNL     1      12.282  14.929  18.066  0.00  0.00    +0.000 HD
ENDBRANCH  16  19
BRANCH  17  21
ATOM     21  O   UNL     1      10.348  14.565  17.043  0.00  0.00    +0.000 OA
ATOM     22  H   UNL     1      11.177  15.059  17.206  0.00  0.00    +0.000 HD
ENDBRANCH  17  21
ENDBRANCH  10  13
ENDBRANCH   7  11
ENDBRANCH   1   8
BRANCH   4  23
ATOM     23  O   UNL     1       4.058   3.443  17.305  0.00  0.00    +0.000 OA
BRANCH  23  24
ATOM     24  C   UNL     1       2.775   4.062  17.139  0.00  0.00    +0.000 C 
BRANCH  24  25
ATOM     25  C   UNL     1       2.402   4.831  18.384  0.00  0.00    +0.000 A 
ATOM     26  C   UNL     1       2.623   6.223  18.390  0.00  0.00    +0.000 A 
ATOM     27  C   UNL     1       2.305   6.996  19.502  0.00  0.00    +0.000 A 
ATOM     28  C   UNL     1       1.772   6.395  20.635  0.00  0.00    +0.000 A 
ATOM     29  C   UNL     1       1.521   5.022  20.637  0.00  0.00    +0.000 A 
ATOM     30  C   UNL     1       1.803   4.224  19.509  0.00  0.00    +0.000 A 
BRANCH  30  31
ATOM     31  C   UNL     1       1.413   2.761  19.596  0.00  0.00    +0.000 C 
ATOM     32  F   UNL     1       0.513   2.331  18.675  0.00  0.00    +0.000 F 
ATOM     33  F   UNL     1       2.484   1.926  19.498  0.00  0.00    +0.000 F 
ATOM     34  F   UNL     1       0.835   2.470  20.800  0.00  0.00    +0.000 F 
ENDBRANCH  30  31
ENDBRANCH  24  25
ENDBRANCH  23  24
ENDBRANCH   4  23
TORSDOF 9
ENDMDL
MODEL 5
REMARK VINA RESULT:      -8.5      1.539      1.831
REMARK  Name = 
REMARK  9 active torsions:
REMARK  status: ('A' for Active; 'I' for Inactive)
REMARK    1  A    between atoms: C_2  and  C_24
REMARK    2  A    between atoms: N_3  and  N_4
REMARK    3  A    between atoms: C_5  and  C_6
REMARK    4  A    between atoms: C_9  and  O_10
REMARK    5  A    between atoms: O_10  and  C_11
REMARK    6  A    between atoms: C_11  and  C_12
REMARK    7  A    between atoms: C_17  and  C_18
REMARK    8  A    between atoms: C_27  and  O_28
REMARK    9  A    between atoms: C_29  and  O_30
REMARK                            x       y       z     vdW  Elec       q    Type
REMARK                         _______ _______ _______ _____ _____    ______ ____
ROOT
ATOM      1  C   UNL     1       7.564   7.038  18.049  0.00  0.00    +0.000 A 
ATOM      2  C   UNL     1       7.842   5.764  18.553  0.00  0.00    +0.000 A 
ATOM      3  C   UNL     1       7.018   4.692  18.230  0.00  0.00    +0.000 A 
ATOM      4  C   UNL     1       5.892   4.897  17.434  0.00  0.00    +0.000 A 
ATOM      5  C   UNL     1       5.660   6.153  16.863  0.00  0.00    +0.000 A 
ATOM      6  C   UNL     1       6.495   7.234  17.175  0.00  0.00    +0.000 A 
ENDROOT
BRANCH   1   8
ATOM      7  N   UNL     1       8.315   9.299  17.873  0.00  0.00    +0.000 NA
ATOM      8  C   UNL     1       8.393   8.170  18.499  0.00  0.00    +0.000 C 
BRANCH   7  11
ATOM      9  O   UNL     1       7.839  11.944  17.240  0.00  0.00    +0.000 OA
ATOM     10  C   UNL     1       8.797  11.605  17.930  0.00  0.00    +0.000 C 
ATOM     11  N   UNL     1       9.105  10.307  18.305  0.00  0.00    +0.000 N 
ATOM     12  H   UNL     1       9.853  10.102  18.960  0.00  0.00    +0.000 HD
BRANCH  10  13
ATOM     13  C   UNL     1       9.708  12.651  18.462  0.00  0.00    +0.000 A 
ATOM     14  C   UNL     1      10.777  12.253  19.280  0.00  0.00    +0.000 A 
ATOM     15  C   UNL     1      11.675  13.198  19.783  0.00  0.00    +0.000 A 
ATOM     16  C   UNL     1      11.487  14.538  19.468  0.00  0.00    +0.000 A 
ATOM     17  C   UNL     1      10.411  14.933  18.675  0.00  0.00    +0.000 A 
ATOM     18  C   UNL     1       9.511  14.006  18.176  0.00  0.00    +0.000 A 
BRANCH  16  19
ATOM     19  O   UNL     1      12.333  15.512  19.916  0.00  0.00    +0.000 OA
ATOM     20  H   UNL     1      11.804  16.302  20.124  0.00  0.00    +0.000 HD
ENDBRANCH  16  19
BRANCH  17  21
ATOM     21  O   UNL     1      10.226  16.253  18.379  0.00  0.00    +0.000 OA
ATOM     22  H   UNL     1       9.659  16.590  19.103  0.00  0.00    +0.000 HD
ENDBRANCH  17  21
ENDBRANCH  10  13
ENDBRANCH   7  11
ENDBRANCH   1   8
BRANCH   4  23
ATOM     23  O   UNL     1       4.942   3.934  17.203  0.00  0.00    +0.000 OA
BRANCH  23  24
ATOM     24  C   UNL     1       3.643   4.478  16.937  0.00  0.00    +0.000 C 
BRANCH  24  25
ATOM     25  C   UNL     1       2.653   3.998  17.973  0.00  0.00    +0.000 A 
ATOM     26  C   UNL     1       2.150   2.688  17.846  0.00  0.00    +0.000 A 
ATOM     27  C   UNL     1       1.235   2.178  18.762  0.00  0.00    +0.000 A 
ATOM     28  C   UNL     1       0.794   2.970  19.815  0.00  0.00    +0.000 A 
ATOM     29  C   UNL     1       1.302   4.260  19.971  0.00  0.00    +0.000 A 
ATOM     30  C   UNL     1       2.256   4.786  19.075  0.00  0.00    +0.000 A 
BRANCH  30  31
ATOM     31  C   UNL     1       2.799   6.166  19.391  0.00  0.00    +0.000 C 
ATOM     32  F   UNL     1       2.154   6.847  20.372  0.00  0.00    +0.000 F 
ATOM     33  F   UNL     1       4.114   6.144  19.745  0.00  0.00    +0.000 F 
ATOM     34  F   UNL     1       2.731   6.990  18.302  0.00  0.00    +0.000 F 
ENDBRANCH  30  31
ENDBRANCH  24  25
ENDBRANCH  23  24
ENDBRANCH   4  23
TORSDOF 9
ENDMDL
MODEL 6
REMARK VINA RESULT:      -8.4      1.978      2.366
REMARK  Name = 
REMARK  9 active torsions:
REMARK  status: ('A' for Active; 'I' for Inactive)
REMARK    1  A    between atoms: C_2  and  C_24
REMARK    2  A    between atoms: N_3  and  N_4
REMARK    3  A    between atoms: C_5  and  C_6
REMARK    4  A    between atoms: C_9  and  O_10
REMARK    5  A    between atoms: O_10  and  C_11
REMARK    6  A    between atoms: C_11  and  C_12
REMARK    7  A    between atoms: C_17  and  C_18
REMARK    8  A    between atoms: C_27  and  O_28
REMARK    9  A    between atoms: C_29  and  O_30
REMARK                            x       y       z     vdW  Elec       q    Type
REMARK                         _______ _______ _______ _____ _____    ______ ____
ROOT
ATOM      1  C   UNL     1       7.812   7.383  18.162  0.00  0.00    +0.000 A 
ATOM      2  C   UNL     1       7.971   6.220  18.923  0.00  0.00    +0.000 A 
ATOM      3  C   UNL     1       7.153   5.121  18.692  0.00  0.00    +0.000 A 
ATOM      4  C   UNL     1       6.148   5.193  17.728  0.00  0.00    +0.000 A 
ATOM      5  C   UNL     1       6.043   6.325  16.912  0.00  0.00    +0.000 A 
ATOM      6  C   UNL     1       6.873   7.431  17.132  0.00  0.00    +0.000 A 
ENDROOT
BRANCH   1   8
ATOM      7  N   UNL     1       8.503   9.641  17.797  0.00  0.00    +0.000 NA
ATOM      8  C   UNL     1       8.622   8.566  18.506  0.00  0.00    +0.000 C 
BRANCH   7  11
ATOM      9  O   UNL     1       7.800  12.248  17.221  0.00  0.00    +0.000 OA
ATOM     10  C   UNL     1       8.851  11.972  17.795  0.00  0.00    +0.000 C 
ATOM     11  N   UNL     1       9.277  10.697  18.134  0.00  0.00    +0.000 N 
ATOM     12  H   UNL     1      10.106  10.542  18.698  0.00  0.00    +0.000 HD
BRANCH  10  13
ATOM     13  C   UNL     1       9.753  13.074  18.217  0.00  0.00    +0.000 A 
ATOM     14  C   UNL     1       9.766  13.444  19.571  0.00  0.00    +0.000 A 
ATOM     15  C   UNL     1      10.617  14.457  20.020  0.00  0.00    +0.000 A 
ATOM     16  C   UNL     1      11.442  15.098  19.104  0.00  0.00    +0.000 A 
ATOM     17  C   UNL     1      11.408  14.745  17.756  0.00  0.00    +0.000 A 
ATOM     18  C   UNL     1      10.565  13.747  17.298  0.00  0.00    +0.000 A 
BRANCH  16  19
ATOM     19  O   UNL     1      12.304  16.089  19.478  0.00  0.00    +0.000 OA
ATOM     20  H   UNL     1      11.842  16.673  20.105  0.00  0.00    +0.000 HD
ENDBRANCH  16  19
BRANCH  17  21
ATOM     21  O   UNL     1      12.213  15.388  16.860  0.00  0.00    +0.000 OA
ATOM     22  H   UNL     1      11.738  15.316  16.007  0.00  0.00    +0.000 HD
ENDBRANCH  17  21
ENDBRANCH  10  13
ENDBRANCH   7  11
ENDBRANCH   1   8
BRANCH   4  23
ATOM     23  O   UNL     1       5.198   4.219  17.550  0.00  0.00    +0.000 OA
BRANCH  23  24
ATOM     24  C   UNL     1       3.908   4.747  17.211  0.00  0.00    +0.000 C 
BRANCH  24  25
ATOM     25  C   UNL     1       3.073   4.924  18.457  0.00  0.00    +0.000 A 
ATOM     26  C   UNL     1       2.905   6.231  18.957  0.00  0.00    +0.000 A 
ATOM     27  C   UNL     1       2.150   6.471  20.101  0.00  0.00    +0.000 A 
ATOM     28  C   UNL     1       1.558   5.411  20.777  0.00  0.00    +0.000 A 
ATOM     29  C   UNL     1       1.692   4.113  20.280  0.00  0.00    +0.000 A 
ATOM     30  C   UNL     1       2.423   3.850  19.104  0.00  0.00    +0.000 A 
BRANCH  30  31
ATOM     31  C   UNL     1       2.431   2.415  18.614  0.00  0.00    +0.000 C 
ATOM     32  F   UNL     1       1.557   1.574  19.224  0.00  0.00    +0.000 F 
ATOM     33  F   UNL     1       2.182   2.316  17.278  0.00  0.00    +0.000 F 
ATOM     34  F   UNL     1       3.653   1.831  18.799  0.00  0.00    +0.000 F 
ENDBRANCH  30  31
ENDBRANCH  24  25
ENDBRANCH  23  24
ENDBRANCH   4  23
TORSDOF 9
ENDMDL
MODEL 7
REMARK VINA RESULT:      -8.4      2.116      2.724
REMARK  Name = 
REMARK  9 active torsions:
REMARK  status: ('A' for Active; 'I' for Inactive)
REMARK    1  A    between atoms: C_2  and  C_24
REMARK    2  A    between atoms: N_3  and  N_4
REMARK    3  A    between atoms: C_5  and  C_6
REMARK    4  A    between atoms: C_9  and  O_10
REMARK    5  A    between atoms: O_10  and  C_11
REMARK    6  A    between atoms: C_11  and  C_12
REMARK    7  A    between atoms: C_17  and  C_18
REMARK    8  A    between atoms: C_27  and  O_28
REMARK    9  A    between atoms: C_29  and  O_30
REMARK                            x       y       z     vdW  Elec       q    Type
REMARK                         _______ _______ _______ _____ _____    ______ ____
ROOT
ATOM      1  C   UNL     1       7.810   7.279  18.149  0.00  0.00    +0.000 A 
ATOM      2  C   UNL     1       7.920   6.104  18.900  0.00  0.00    +0.000 A 
ATOM      3  C   UNL     1       7.117   5.010  18.601  0.00  0.00    +0.000 A 
ATOM      4  C   UNL     1       6.176   5.098  17.576  0.00  0.00    +0.000 A 
ATOM      5  C   UNL     1       6.124   6.242  16.772  0.00  0.00    +0.000 A 
ATOM      6  C   UNL     1       6.940   7.343  17.062  0.00  0.00    +0.000 A 
ENDROOT
BRANCH   1   8
ATOM      7  N   UNL     1       8.451   9.569  17.922  0.00  0.00    +0.000 NA
ATOM      8  C   UNL     1       8.597   8.455  18.562  0.00  0.00    +0.000 C 
BRANCH   7  11
ATOM      9  O   UNL     1       7.870  12.175  17.217  0.00  0.00    +0.000 OA
ATOM     10  C   UNL     1       8.845  11.893  17.909  0.00  0.00    +0.000 C 
ATOM     11  N   UNL     1       9.204  10.619  18.320  0.00  0.00    +0.000 N 
ATOM     12  H   UNL     1       9.963  10.462  18.975  0.00  0.00    +0.000 HD
BRANCH  10  13
ATOM     13  C   UNL     1       9.717  12.988  18.405  0.00  0.00    +0.000 A 
ATOM     14  C   UNL     1      10.561  13.636  17.490  0.00  0.00    +0.000 A 
ATOM     15  C   UNL     1      11.379  14.690  17.904  0.00  0.00    +0.000 A 
ATOM     16  C   UNL     1      11.351  15.080  19.238  0.00  0.00    +0.000 A 
ATOM     17  C   UNL     1      10.529  14.418  20.149  0.00  0.00    +0.000 A 
ATOM     18  C   UNL     1       9.719  13.369  19.752  0.00  0.00    +0.000 A 
BRANCH  16  19
ATOM     19  O   UNL     1      12.117  16.108  19.707  0.00  0.00    +0.000 OA
ATOM     20  H   UNL     1      11.726  16.944  19.396  0.00  0.00    +0.000 HD
ENDBRANCH  16  19
BRANCH  17  21
ATOM     21  O   UNL     1      10.516  14.799  21.460  0.00  0.00    +0.000 OA
ATOM     22  H   UNL     1      11.395  14.536  21.802  0.00  0.00    +0.000 HD
ENDBRANCH  17  21
ENDBRANCH  10  13
ENDBRANCH   7  11
ENDBRANCH   1   8
BRANCH   4  23
ATOM     23  O   UNL     1       5.239   4.128  17.323  0.00  0.00    +0.000 OA
BRANCH  23  24
ATOM     24  C   UNL     1       3.941   4.663  17.032  0.00  0.00    +0.000 C 
BRANCH  24  25
ATOM     25  C   UNL     1       3.150   4.839  18.307  0.00  0.00    +0.000 A 
ATOM     26  C   UNL     1       2.948   6.151  18.781  0.00  0.00    +0.000 A 
ATOM     27  C   UNL     1       2.231   6.390  19.949  0.00  0.00    +0.000 A 
ATOM     28  C   UNL     1       1.713   5.325  20.675  0.00  0.00    +0.000 A 
ATOM     29  C   UNL     1       1.881   4.021  20.206  0.00  0.00    +0.000 A 
ATOM     30  C   UNL     1       2.574   3.757  19.007  0.00  0.00    +0.000 A 
BRANCH  30  31
ATOM     31  C   UNL     1       2.623   2.311  18.553  0.00  0.00    +0.000 C 
ATOM     32  F   UNL     1       2.287   2.083  17.257  0.00  0.00    +0.000 F 
ATOM     33  F   UNL     1       3.849   1.746  18.733  0.00  0.00    +0.000 F 
ATOM     34  F   UNL     1       1.757   1.533  19.271  0.00  0.00    +0.000 F 
ENDBRANCH  30  31
ENDBRANCH  24  25
ENDBRANCH  23  24
ENDBRANCH   4  23
TORSDOF 9
ENDMDL
MODEL 8
REMARK VINA RESULT:      -8.2      1.343      1.651
REMARK  Name = 
REMARK  9 active torsions:
REMARK  status: ('A' for Active; 'I' for Inactive)
REMARK    1  A    between atoms: C_2  and  C_24
REMARK    2  A    between atoms: N_3  and  N_4
REMARK    3  A    between atoms: C_5  and  C_6
REMARK    4  A    between atoms: C_9  and  O_10
REMARK    5  A    between atoms: O_10  and  C_11
REMARK    6  A    between atoms: C_11  and  C_12
REMARK    7  A    between atoms: C_17  and  C_18
REMARK    8  A    between atoms: C_27  and  O_28
REMARK    9  A    between atoms: C_29  and  O_30
REMARK                            x       y       z     vdW  Elec       q    Type
REMARK                         _______ _______ _______ _____ _____    ______ ____
ROOT
ATOM      1  C   UNL     1       7.242   6.403  17.267  0.00  0.00    +0.000 A 
ATOM      2  C   UNL     1       6.834   6.029  18.551  0.00  0.00    +0.000 A 
ATOM      3  C   UNL     1       6.075   4.878  18.732  0.00  0.00    +0.000 A 
ATOM      4  C   UNL     1       5.689   4.120  17.627  0.00  0.00    +0.000 A 
ATOM      5  C   UNL     1       6.166   4.448  16.354  0.00  0.00    +0.000 A 
ATOM      6  C   UNL     1       6.942   5.599  16.168  0.00  0.00    +0.000 A 
ENDROOT
BRANCH   1   8
ATOM      7  N   UNL     1       7.550   8.720  17.762  0.00  0.00    +0.000 NA
ATOM      8  C   UNL     1       7.951   7.685  17.099  0.00  0.00    +0.000 C 
BRANCH   7  11
ATOM      9  O   UNL     1       9.277   9.785  19.635  0.00  0.00    +0.000 OA
ATOM     10  C   UNL     1       9.053  10.347  18.565  0.00  0.00    +0.000 C 
ATOM     11  N   UNL     1       8.215   9.881  17.565  0.00  0.00    +0.000 N 
ATOM     12  H   UNL     1       8.151  10.340  16.663  0.00  0.00    +0.000 HD
BRANCH  10  13
ATOM     13  C   UNL     1       9.757  11.620  18.260  0.00  0.00    +0.000 A 
ATOM     14  C   UNL     1      11.157  11.601  18.159  0.00  0.00    +0.000 A 
ATOM     15  C   UNL     1      11.860  12.768  17.847  0.00  0.00    +0.000 A 
ATOM     16  C   UNL     1      11.153  13.947  17.648  0.00  0.00    +0.000 A 
ATOM     17  C   UNL     1       9.764  13.967  17.772  0.00  0.00    +0.000 A 
ATOM     18  C   UNL     1       9.057  12.819  18.087  0.00  0.00    +0.000 A 
BRANCH  16  19
ATOM     19  O   UNL     1      11.777  15.119  17.330  0.00  0.00    +0.000 OA
ATOM     20  H   UNL     1      11.186  15.628  16.747  0.00  0.00    +0.000 HD
ENDBRANCH  16  19
BRANCH  17  21
ATOM     21  O   UNL     1       9.077  15.132  17.587  0.00  0.00    +0.000 OA
ATOM     22  H   UNL     1       8.299  14.875  17.051  0.00  0.00    +0.000 HD
ENDBRANCH  17  21
ENDBRANCH  10  13
ENDBRANCH   7  11
ENDBRANCH   1   8
BRANCH   4  23
ATOM     23  O   UNL     1       4.810   3.068  17.700  0.00  0.00    +0.000 OA
BRANCH  23  24
ATOM     24  C   UNL     1       3.471   3.429  17.334  0.00  0.00    +0.000 C 
BRANCH  24  25
ATOM     25  C   UNL     1       2.620   3.601  18.570  0.00  0.00    +0.000 A 
ATOM     26  C   UNL     1       2.296   2.448  19.313  0.00  0.00    +0.000 A 
ATOM     27  C   UNL     1       1.515   2.529  20.461  0.00  0.00    +0.000 A 
ATOM     28  C   UNL     1       1.032   3.760  20.886  0.00  0.00    +0.000 A 
ATOM     29  C   UNL     1       1.366   4.916  20.178  0.00  0.00    +0.000 A 
ATOM     30  C   UNL     1       2.184   4.862  19.030  0.00  0.00    +0.000 A 
BRANCH  30  31
ATOM     31  C   UNL     1       2.549   6.188  18.392  0.00  0.00    +0.000 C 
ATOM     32  F   UNL     1       1.524   6.878  17.828  0.00  0.00    +0.000 F 
ATOM     33  F   UNL     1       3.146   7.044  19.266  0.00  0.00    +0.000 F 
ATOM     34  F   UNL     1       3.448   6.022  17.376  0.00  0.00    +0.000 F 
ENDBRANCH  30  31
ENDBRANCH  24  25
ENDBRANCH  23  24
ENDBRANCH   4  23
TORSDOF 9
ENDMDL
MODEL 9
REMARK VINA RESULT:      -8.2      2.113      2.772
REMARK  Name = 
REMARK  9 active torsions:
REMARK  status: ('A' for Active; 'I' for Inactive)
REMARK    1  A    between atoms: C_2  and  C_24
REMARK    2  A    between atoms: N_3  and  N_4
REMARK    3  A    between atoms: C_5  and  C_6
REMARK    4  A    between atoms: C_9  and  O_10
REMARK    5  A    between atoms: O_10  and  C_11
REMARK    6  A    between atoms: C_11  and  C_12
REMARK    7  A    between atoms: C_17  and  C_18
REMARK    8  A    between atoms: C_27  and  O_28
REMARK    9  A    between atoms: C_29  and  O_30
REMARK                            x       y       z     vdW  Elec       q    Type
REMARK                         _______ _______ _______ _____ _____    ______ ____
ROOT
ATOM      1  C   UNL     1       7.681   7.706  17.824  0.00  0.00    +0.000 A 
ATOM      2  C   UNL     1       8.004   6.718  18.760  0.00  0.00    +0.000 A 
ATOM      3  C   UNL     1       7.354   5.490  18.729  0.00  0.00    +0.000 A 
ATOM      4  C   UNL     1       6.352   5.259  17.787  0.00  0.00    +0.000 A 
ATOM      5  C   UNL     1       6.086   6.214  16.801  0.00  0.00    +0.000 A 
ATOM      6  C   UNL     1       6.748   7.449  16.820  0.00  0.00    +0.000 A 
ENDROOT
BRANCH   1   8
ATOM      7  N   UNL     1       8.995   9.306  19.015  0.00  0.00    +0.000 NA
ATOM      8  C   UNL     1       8.310   9.032  17.953  0.00  0.00    +0.000 C 
BRANCH   7  11
ATOM      9  O   UNL     1       8.938  10.798  21.338  0.00  0.00    +0.000 OA
ATOM     10  C   UNL     1       9.455  11.222  20.307  0.00  0.00    +0.000 C 
ATOM     11  N   UNL     1       9.540  10.540  19.104  0.00  0.00    +0.000 N 
ATOM     12  H   UNL     1      10.069  10.903  18.318  0.00  0.00    +0.000 HD
BRANCH  10  13
ATOM     13  C   UNL     1      10.095  12.563  20.321  0.00  0.00    +0.000 A 
ATOM     14  C   UNL     1      10.918  12.921  19.242  0.00  0.00    +0.000 A 
ATOM     15  C   UNL     1      11.520  14.182  19.199  0.00  0.00    +0.000 A 
ATOM     16  C   UNL     1      11.297  15.070  20.244  0.00  0.00    +0.000 A 
ATOM     17  C   UNL     1      10.498  14.702  21.325  0.00  0.00    +0.000 A 
ATOM     18  C   UNL     1       9.902  13.454  21.383  0.00  0.00    +0.000 A 
BRANCH  16  19
ATOM     19  O   UNL     1      11.845  16.321  20.259  0.00  0.00    +0.000 OA
ATOM     20  H   UNL     1      11.869  16.631  21.181  0.00  0.00    +0.000 HD
ENDBRANCH  16  19
BRANCH  17  21
ATOM     21  O   UNL     1      10.294  15.576  22.353  0.00  0.00    +0.000 OA
ATOM     22  H   UNL     1       9.884  16.360  21.933  0.00  0.00    +0.000 HD
ENDBRANCH  17  21
ENDBRANCH  10  13
ENDBRANCH   7  11
ENDBRANCH   1   8
BRANCH   4  23
ATOM     23  O   UNL     1       5.553   4.143  17.791  0.00  0.00    +0.000 OA
BRANCH  23  24
ATOM     24  C   UNL     1       4.226   4.400  17.313  0.00  0.00    +0.000 C 
BRANCH  24  25
ATOM     25  C   UNL     1       3.297   4.673  18.473  0.00  0.00    +0.000 A 
ATOM     26  C   UNL     1       3.144   6.008  18.895  0.00  0.00    +0.000 A 
ATOM     27  C   UNL     1       2.307   6.335  19.957  0.00  0.00    +0.000 A 
ATOM     28  C   UNL     1       1.616   5.334  20.628  0.00  0.00    +0.000 A 
ATOM     29  C   UNL     1       1.734   4.009  20.207  0.00  0.00    +0.000 A 
ATOM     30  C   UNL     1       2.550   3.658  19.111  0.00  0.00    +0.000 A 
BRANCH  30  31
ATOM     31  C   UNL     1       2.537   2.201  18.691  0.00  0.00    +0.000 C 
ATOM     32  F   UNL     1       1.648   1.405  19.338  0.00  0.00    +0.000 F 
ATOM     33  F   UNL     1       2.292   2.042  17.361  0.00  0.00    +0.000 F 
ATOM     34  F   UNL     1       3.749   1.608  18.910  0.00  0.00    +0.000 F 
ENDBRANCH  30  31
ENDBRANCH  24  25
ENDBRANCH  23  24
ENDBRANCH   4  23
TORSDOF 9
ENDMDL
