MODEL 1
REMARK VINA RESULT:      -8.2      0.000      0.000
REMARK  Name = 
REMARK  5 active torsions:
REMARK  status: ('A' for Active; 'I' for Inactive)
REMARK    1  A    between atoms: C_1  and  C_2
REMARK    2  A    between atoms: C_7  and  C_8
REMARK    3  A    between atoms: C_8  and  O_9
REMARK    4  A    between atoms: O_9  and  C_10
REMARK    5  A    between atoms: C_16  and  C_17
REMARK                            x       y       z     vdW  Elec       q    Type
REMARK                         _______ _______ _______ _____ _____    ______ ____
ROOT
ATOM      1  C   UNL     1       2.833   4.438  19.031  0.00  0.00    +0.000 C 
ATOM      2  C   UNL     1       2.605   5.943  18.785  0.00  0.00    +0.000 C 
ATOM      3  N   UNL     1       2.201   6.446  20.096  0.00  0.00    +0.000 N 
ATOM      4  C   UNL     1       1.650   7.706  20.220  0.00  0.00    +0.000 A 
ATOM      5  C   UNL     1       1.301   8.182  21.484  0.00  0.00    +0.000 A 
ATOM      6  C   UNL     1       0.754   9.457  21.642  0.00  0.00    +0.000 A 
ATOM      7  C   UNL     1       0.559  10.249  20.520  0.00  0.00    +0.000 A 
ATOM      8  C   UNL     1       0.939   9.724  19.297  0.00  0.00    +0.000 A 
ATOM      9  N   UNL     1       1.486   8.489  19.131  0.00  0.00    +0.000 NA
ATOM     10  C   UNL     1       1.686   5.352  20.929  0.00  0.00    +0.000 C 
ATOM     11  C   UNL     1       1.732   4.114  20.037  0.00  0.00    +0.000 C 
ATOM     12  F   UNL     1       0.533   3.991  19.397  0.00  0.00    +0.000 F 
ENDROOT
BRANCH   7  13
ATOM     13  C   UNL     1       0.000  11.557  20.628  0.00  0.00    +0.000 C 
ATOM     14  N   UNL     1      -0.481  12.613  20.711  0.00  0.00    +0.000 NA
ENDBRANCH   7  13
BRANCH   1  15
ATOM     15  O   UNL     1       2.717   3.599  17.884  0.00  0.00    +0.000 OA
BRANCH  15  16
ATOM     16  C   UNL     1       3.983   3.126  17.418  0.00  0.00    +0.000 C 
BRANCH  16  23
ATOM     17  C   UNL     1       8.332   9.102  17.565  0.00  0.00    +0.000 C 
ATOM     18  C   UNL     1       7.765   7.754  17.903  0.00  0.00    +0.000 A 
ATOM     19  C   UNL     1       8.343   6.963  18.909  0.00  0.00    +0.000 A 
ATOM     20  C   UNL     1       7.831   5.702  19.238  0.00  0.00    +0.000 A 
ATOM     21  C   UNL     1       6.718   5.271  18.516  0.00  0.00    +0.000 A 
ATOM     22  N   UNL     1       5.976   4.123  18.563  0.00  0.00    +0.000 N 
ATOM     23  C   UNL     1       4.972   4.215  17.628  0.00  0.00    +0.000 A 
ATOM     24  N   UNL     1       5.040   5.361  16.978  0.00  0.00    +0.000 NA
ATOM     25  C   UNL     1       6.116   6.025  17.517  0.00  0.00    +0.000 A 
ATOM     26  C   UNL     1       6.641   7.285  17.200  0.00  0.00    +0.000 A 
ATOM     27  H   UNL     1       6.116   3.326  19.168  0.00  0.00    +0.000 HD
ENDBRANCH  16  23
ENDBRANCH  15  16
ENDBRANCH   1  15
TORSDOF 4
ENDMDL
MODEL 2
REMARK VINA RESULT:      -8.0      3.988      6.453
REMARK  Name = 
REMARK  5 active torsions:
REMARK  status: ('A' for Active; 'I' for Inactive)
REMARK    1  A    between atoms: C_1  and  C_2
REMARK    2  A    between atoms: C_7  and  C_8
REMARK    3  A    between atoms: C_8  and  O_9
REMARK    4  A    between atoms: O_9  and  C_10
REMARK    5  A    between atoms: C_16  and  C_17
REMARK                            x       y       z     vdW  Elec       q    Type
REMARK                         _______ _______ _______ _____ _____    ______ ____
ROOT
ATOM      1  C   UNL     1      -0.305  11.148  20.367  0.00  0.00    +0.000 C 
ATOM      2  C   UNL     1      -1.726  11.736  20.478  0.00  0.00    +0.000 C 
ATOM      3  N   UNL     1      -1.861  12.039  21.901  0.00  0.00    +0.000 N 
ATOM      4  C   UNL     1      -3.099  12.334  22.437  0.00  0.00    +0.000 A 
ATOM      5  C   UNL     1      -3.203  12.652  23.792  0.00  0.00    +0.000 A 
ATOM      6  C   UNL     1      -4.439  12.967  24.359  0.00  0.00    +0.000 A 
ATOM      7  C   UNL     1      -5.569  12.959  23.556  0.00  0.00    +0.000 A 
ATOM      8  C   UNL     1      -5.397  12.648  22.218  0.00  0.00    +0.000 A 
ATOM      9  N   UNL     1      -4.196  12.353  21.650  0.00  0.00    +0.000 NA
ATOM     10  C   UNL     1      -0.908  11.244  22.687  0.00  0.00    +0.000 C 
ATOM     11  C   UNL     1      -0.190  10.361  21.670  0.00  0.00    +0.000 C 
ATOM     12  F   UNL     1      -0.861   9.178  21.564  0.00  0.00    +0.000 F 
ENDROOT
BRANCH   7  13
ATOM     13  C   UNL     1      -6.855  13.269  24.089  0.00  0.00    +0.000 C 
ATOM     14  N   UNL     1      -7.916  13.514  24.500  0.00  0.00    +0.000 NA
ENDBRANCH   7  13
BRANCH   1  15
ATOM     15  O   UNL     1      -0.076  10.291  19.251  0.00  0.00    +0.000 OA
BRANCH  15  16
ATOM     16  C   UNL     1       1.209  10.494  18.657  0.00  0.00    +0.000 C 
BRANCH  16  23
ATOM     17  C   UNL     1       4.921   4.278  17.164  0.00  0.00    +0.000 C 
ATOM     18  C   UNL     1       4.057   5.274  17.881  0.00  0.00    +0.000 A 
ATOM     19  C   UNL     1       3.488   4.968  19.127  0.00  0.00    +0.000 A 
ATOM     20  C   UNL     1       2.677   5.882  19.810  0.00  0.00    +0.000 A 
ATOM     21  C   UNL     1       2.464   7.113  19.191  0.00  0.00    +0.000 A 
ATOM     22  N   UNL     1       1.742   8.216  19.555  0.00  0.00    +0.000 N 
ATOM     23  C   UNL     1       1.875   9.168  18.572  0.00  0.00    +0.000 A 
ATOM     24  N   UNL     1       2.639   8.726  17.592  0.00  0.00    +0.000 NA
ATOM     25  C   UNL     1       3.010   7.455  17.960  0.00  0.00    +0.000 A 
ATOM     26  C   UNL     1       3.820   6.528  17.290  0.00  0.00    +0.000 A 
ATOM     27  H   UNL     1       1.193   8.341  20.394  0.00  0.00    +0.000 HD
ENDBRANCH  16  23
ENDBRANCH  15  16
ENDBRANCH   1  15
TORSDOF 4
ENDMDL
MODEL 3
REMARK VINA RESULT:      -8.0      3.875      9.673
REMARK  Name = 
REMARK  5 active torsions:
REMARK  status: ('A' for Active; 'I' for Inactive)
REMARK    1  A    between atoms: C_1  and  C_2
REMARK    2  A    between atoms: C_7  and  C_8
REMARK    3  A    between atoms: C_8  and  O_9
REMARK    4  A    between atoms: O_9  and  C_10
REMARK    5  A    between atoms: C_16  and  C_17
REMARK                            x       y       z     vdW  Elec       q    Type
REMARK                         _______ _______ _______ _____ _____    ______ ____
ROOT
ATOM      1  C   UNL     1       1.094   9.838  19.638  0.00  0.00    +0.000 C 
ATOM      2  C   UNL     1       1.383   8.375  20.031  0.00  0.00    +0.000 C 
ATOM      3  N   UNL     1       2.306   7.919  18.995  0.00  0.00    +0.000 N 
ATOM      4  C   UNL     1       2.586   6.574  18.853  0.00  0.00    +0.000 A 
ATOM      5  C   UNL     1       3.496   6.160  17.880  0.00  0.00    +0.000 A 
ATOM      6  C   UNL     1       3.807   4.809  17.721  0.00  0.00    +0.000 A 
ATOM      7  C   UNL     1       3.198   3.876  18.546  0.00  0.00    +0.000 A 
ATOM      8  C   UNL     1       2.315   4.353  19.501  0.00  0.00    +0.000 A 
ATOM      9  N   UNL     1       2.014   5.668  19.675  0.00  0.00    +0.000 NA
ATOM     10  C   UNL     1       2.189   8.759  17.796  0.00  0.00    +0.000 C 
ATOM     11  C   UNL     1       1.077   9.755  18.113  0.00  0.00    +0.000 C 
ATOM     12  F   UNL     1      -0.111   9.237  17.686  0.00  0.00    +0.000 F 
ENDROOT
BRANCH   7  13
ATOM     13  C   UNL     1       3.480   2.484  18.421  0.00  0.00    +0.000 C 
ATOM     14  N   UNL     1       3.687   1.345  18.306  0.00  0.00    +0.000 NA
ENDBRANCH   7  13
BRANCH   1  15
ATOM     15  O   UNL     1      -0.136  10.376  20.117  0.00  0.00    +0.000 OA
BRANCH  15  16
ATOM     16  C   UNL     1      -0.350  11.724  19.692  0.00  0.00    +0.000 C 
BRANCH  16  23
ATOM     17  C   UNL     1      -7.621  12.926  19.123  0.00  0.00    +0.000 C 
ATOM     18  C   UNL     1      -6.228  12.486  18.782  0.00  0.00    +0.000 A 
ATOM     19  C   UNL     1      -5.952  11.851  17.560  0.00  0.00    +0.000 A 
ATOM     20  C   UNL     1      -4.660  11.430  17.225  0.00  0.00    +0.000 A 
ATOM     21  C   UNL     1      -3.659  11.673  18.165  0.00  0.00    +0.000 A 
ATOM     22  N   UNL     1      -2.319  11.401  18.177  0.00  0.00    +0.000 N 
ATOM     23  C   UNL     1      -1.791  11.865  19.359  0.00  0.00    +0.000 A 
ATOM     24  N   UNL     1      -2.728  12.412  20.109  0.00  0.00    +0.000 NA
ATOM     25  C   UNL     1      -3.890  12.299  19.383  0.00  0.00    +0.000 A 
ATOM     26  C   UNL     1      -5.190  12.715  19.703  0.00  0.00    +0.000 A 
ATOM     27  H   UNL     1      -1.780  10.939  17.458  0.00  0.00    +0.000 HD
ENDBRANCH  16  23
ENDBRANCH  15  16
ENDBRANCH   1  15
TORSDOF 4
ENDMDL
MODEL 4
REMARK VINA RESULT:      -7.9      3.327      5.875
REMARK  Name = 
REMARK  5 active torsions:
REMARK  status: ('A' for Active; 'I' for Inactive)
REMARK    1  A    between atoms: C_1  and  C_2
REMARK    2  A    between atoms: C_7  and  C_8
REMARK    3  A    between atoms: C_8  and  O_9
REMARK    4  A    between atoms: O_9  and  C_10
REMARK    5  A    between atoms: C_16  and  C_17
REMARK                            x       y       z     vdW  Elec       q    Type
REMARK                         _______ _______ _______ _____ _____    ______ ____
ROOT
ATOM      1  C   UNL     1      -0.468  10.164  20.555  0.00  0.00    +0.000 C 
ATOM      2  C   UNL     1       0.685  11.163  20.778  0.00  0.00    +0.000 C 
ATOM      3  N   UNL     1       0.296  12.319  19.975  0.00  0.00    +0.000 N 
ATOM      4  C   UNL     1       1.209  13.320  19.706  0.00  0.00    +0.000 A 
ATOM      5  C   UNL     1       0.810  14.433  18.964  0.00  0.00    +0.000 A 
ATOM      6  C   UNL     1       1.707  15.466  18.687  0.00  0.00    +0.000 A 
ATOM      7  C   UNL     1       3.007  15.373  19.160  0.00  0.00    +0.000 A 
ATOM      8  C   UNL     1       3.336  14.251  19.901  0.00  0.00    +0.000 A 
ATOM      9  N   UNL     1       2.468  13.244  20.190  0.00  0.00    +0.000 NA
ATOM     10  C   UNL     1      -0.662  11.922  18.935  0.00  0.00    +0.000 C 
ATOM     11  C   UNL     1      -0.818  10.412  19.089  0.00  0.00    +0.000 C 
ATOM     12  F   UNL     1       0.090   9.793  18.280  0.00  0.00    +0.000 F 
ENDROOT
BRANCH   7  13
ATOM     13  C   UNL     1       3.962  16.401  18.901  0.00  0.00    +0.000 C 
ATOM     14  N   UNL     1       4.759  17.224  18.703  0.00  0.00    +0.000 NA
ENDBRANCH   7  13
BRANCH   1  15
ATOM     15  O   UNL     1      -0.145   8.790  20.760  0.00  0.00    +0.000 OA
BRANCH  15  16
ATOM     16  C   UNL     1       1.176   8.607  21.276  0.00  0.00    +0.000 C 
BRANCH  16  23
ATOM     17  C   UNL     1       4.566   4.140  16.460  0.00  0.00    +0.000 C 
ATOM     18  C   UNL     1       3.858   4.614  17.695  0.00  0.00    +0.000 A 
ATOM     19  C   UNL     1       3.561   3.726  18.740  0.00  0.00    +0.000 A 
ATOM     20  C   UNL     1       2.899   4.148  19.899  0.00  0.00    +0.000 A 
ATOM     21  C   UNL     1       2.549   5.496  19.963  0.00  0.00    +0.000 A 
ATOM     22  N   UNL     1       1.906   6.238  20.916  0.00  0.00    +0.000 N 
ATOM     23  C   UNL     1       1.824   7.537  20.474  0.00  0.00    +0.000 A 
ATOM     24  N   UNL     1       2.375   7.663  19.282  0.00  0.00    +0.000 NA
ATOM     25  C   UNL     1       2.827   6.407  18.952  0.00  0.00    +0.000 A 
ATOM     26  C   UNL     1       3.491   5.968  17.799  0.00  0.00    +0.000 A 
ATOM     27  H   UNL     1       1.540   5.916  21.801  0.00  0.00    +0.000 HD
ENDBRANCH  16  23
ENDBRANCH  15  16
ENDBRANCH   1  15
TORSDOF 4
ENDMDL
MODEL 5
REMARK VINA RESULT:      -7.9      2.470      8.014
REMARK  Name = 
REMARK  5 active torsions:
REMARK  status: ('A' for Active; 'I' for Inactive)
REMARK    1  A    between atoms: C_1  and  C_2
REMARK    2  A    between atoms: C_7  and  C_8
REMARK    3  A    between atoms: C_8  and  O_9
REMARK    4  A    between atoms: O_9  and  C_10
REMARK    5  A    between atoms: C_16  and  C_17
REMARK                            x       y       z     vdW  Elec       q    Type
REMARK                         _______ _______ _______ _____ _____    ______ ____
ROOT
ATOM      1  C   UNL     1       1.603   5.246  19.622  0.00  0.00    +0.000 C 
ATOM      2  C   UNL     1       2.437   5.831  18.465  0.00  0.00    +0.000 C 
ATOM      3  N   UNL     1       3.095   4.660  17.891  0.00  0.00    +0.000 N 
ATOM      4  C   UNL     1       4.138   4.813  16.998  0.00  0.00    +0.000 A 
ATOM      5  C   UNL     1       4.732   3.683  16.435  0.00  0.00    +0.000 A 
ATOM      6  C   UNL     1       5.779   3.807  15.521  0.00  0.00    +0.000 A 
ATOM      7  C   UNL     1       6.225   5.074  15.176  0.00  0.00    +0.000 A 
ATOM      8  C   UNL     1       5.585   6.155  15.759  0.00  0.00    +0.000 A 
ATOM      9  N   UNL     1       4.554   6.048  16.641  0.00  0.00    +0.000 NA
ATOM     10  C   UNL     1       3.143   3.567  18.871  0.00  0.00    +0.000 C 
ATOM     11  C   UNL     1       2.519   4.141  20.140  0.00  0.00    +0.000 C 
ATOM     12  F   UNL     1       3.509   4.676  20.912  0.00  0.00    +0.000 F 
ENDROOT
BRANCH   7  13
ATOM     13  C   UNL     1       7.294   5.254  14.249  0.00  0.00    +0.000 C 
ATOM     14  N   UNL     1       8.160   5.376  13.482  0.00  0.00    +0.000 NA
ENDBRANCH   7  13
BRANCH   1  15
ATOM     15  O   UNL     1       1.281   6.154  20.673  0.00  0.00    +0.000 OA
BRANCH  15  16
ATOM     16  C   UNL     1       2.029   7.370  20.598  0.00  0.00    +0.000 C 
BRANCH  16  23
ATOM     17  C   UNL     1      -2.490  12.430  23.534  0.00  0.00    +0.000 C 
ATOM     18  C   UNL     1      -1.670  11.677  22.527  0.00  0.00    +0.000 A 
ATOM     19  C   UNL     1      -1.631  12.082  21.184  0.00  0.00    +0.000 A 
ATOM     20  C   UNL     1      -0.875  11.393  20.229  0.00  0.00    +0.000 A 
ATOM     21  C   UNL     1      -0.161  10.282  20.679  0.00  0.00    +0.000 A 
ATOM     22  N   UNL     1       0.658   9.392  20.042  0.00  0.00    +0.000 N 
ATOM     23  C   UNL     1       1.114   8.481  20.966  0.00  0.00    +0.000 A 
ATOM     24  N   UNL     1       0.621   8.739  22.162  0.00  0.00    +0.000 NA
ATOM     25  C   UNL     1      -0.171   9.851  22.000  0.00  0.00    +0.000 A 
ATOM     26  C   UNL     1      -0.934  10.553  22.943  0.00  0.00    +0.000 A 
ATOM     27  H   UNL     1       0.905   9.377  19.062  0.00  0.00    +0.000 HD
ENDBRANCH  16  23
ENDBRANCH  15  16
ENDBRANCH   1  15
TORSDOF 4
ENDMDL
MODEL 6
REMARK VINA RESULT:      -7.8      4.068     10.273
REMARK  Name = 
REMARK  5 active torsions:
REMARK  status: ('A' for Active; 'I' for Inactive)
REMARK    1  A    between atoms: C_1  and  C_2
REMARK    2  A    between atoms: C_7  and  C_8
REMARK    3  A    between atoms: C_8  and  O_9
REMARK    4  A    between atoms: O_9  and  C_10
REMARK    5  A    between atoms: C_16  and  C_17
REMARK                            x       y       z     vdW  Elec       q    Type
REMARK                         _______ _______ _______ _____ _____    ______ ____
ROOT
ATOM      1  C   UNL     1       0.740  10.121  21.258  0.00  0.00    +0.000 C 
ATOM      2  C   UNL     1       1.161   8.644  21.388  0.00  0.00    +0.000 C 
ATOM      3  N   UNL     1       1.751   8.341  20.086  0.00  0.00    +0.000 N 
ATOM      4  C   UNL     1       2.005   7.033  19.723  0.00  0.00    +0.000 A 
ATOM      5  C   UNL     1       2.599   6.765  18.489  0.00  0.00    +0.000 A 
ATOM      6  C   UNL     1       2.878   5.454  18.100  0.00  0.00    +0.000 A 
ATOM      7  C   UNL     1       2.556   4.414  18.959  0.00  0.00    +0.000 A 
ATOM      8  C   UNL     1       1.981   4.747  20.173  0.00  0.00    +0.000 A 
ATOM      9  N   UNL     1       1.716   6.021  20.571  0.00  0.00    +0.000 NA
ATOM     10  C   UNL     1       1.271   9.288  19.072  0.00  0.00    +0.000 C 
ATOM     11  C   UNL     1       0.280  10.189  19.804  0.00  0.00    +0.000 C 
ATOM     12  F   UNL     1      -0.970   9.656  19.683  0.00  0.00    +0.000 F 
ENDROOT
BRANCH   7  13
ATOM     13  C   UNL     1       2.818   3.057  18.606  0.00  0.00    +0.000 C 
ATOM     14  N   UNL     1       3.018   1.954  18.294  0.00  0.00    +0.000 NA
ENDBRANCH   7  13
BRANCH   1  15
ATOM     15  O   UNL     1      -0.307  10.545  22.128  0.00  0.00    +0.000 OA
BRANCH  15  16
ATOM     16  C   UNL     1      -0.452  11.967  22.162  0.00  0.00    +0.000 C 
BRANCH  16  23
ATOM     17  C   UNL     1      -7.431  13.307  24.197  0.00  0.00    +0.000 C 
ATOM     18  C   UNL     1      -6.223  13.106  23.330  0.00  0.00    +0.000 A 
ATOM     19  C   UNL     1      -6.315  13.202  21.933  0.00  0.00    +0.000 A 
ATOM     20  C   UNL     1      -5.200  13.014  21.107  0.00  0.00    +0.000 A 
ATOM     21  C   UNL     1      -3.992  12.728  21.742  0.00  0.00    +0.000 A 
ATOM     22  N   UNL     1      -2.733  12.487  21.265  0.00  0.00    +0.000 N 
ATOM     23  C   UNL     1      -1.898  12.264  22.335  0.00  0.00    +0.000 A 
ATOM     24  N   UNL     1      -2.561  12.342  23.472  0.00  0.00    +0.000 NA
ATOM     25  C   UNL     1      -3.859  12.627  23.122  0.00  0.00    +0.000 A 
ATOM     26  C   UNL     1      -4.985  12.818  23.933  0.00  0.00    +0.000 A 
ATOM     27  H   UNL     1      -2.436  12.467  20.300  0.00  0.00    +0.000 HD
ENDBRANCH  16  23
ENDBRANCH  15  16
ENDBRANCH   1  15
TORSDOF 4
ENDMDL
MODEL 7
REMARK VINA RESULT:      -7.8      2.514      7.937
REMARK  Name = 
REMARK  5 active torsions:
REMARK  status: ('A' for Active; 'I' for Inactive)
REMARK    1  A    between atoms: C_1  and  C_2
REMARK    2  A    between atoms: C_7  and  C_8
REMARK    3  A    between atoms: C_8  and  O_9
REMARK    4  A    between atoms: O_9  and  C_10
REMARK    5  A    between atoms: C_16  and  C_17
REMARK                            x       y       z     vdW  Elec       q    Type
REMARK                         _______ _______ _______ _____ _____    ______ ____
ROOT
ATOM      1  C   UNL     1       1.736   5.235  19.543  0.00  0.00    +0.000 C 
ATOM      2  C   UNL     1       2.537   5.810  18.358  0.00  0.00    +0.000 C 
ATOM      3  N   UNL     1       3.208   4.639  17.799  0.00  0.00    +0.000 N 
ATOM      4  C   UNL     1       4.231   4.792  16.884  0.00  0.00    +0.000 A 
ATOM      5  C   UNL     1       4.838   3.661  16.336  0.00  0.00    +0.000 A 
ATOM      6  C   UNL     1       5.866   3.784  15.400  0.00  0.00    +0.000 A 
ATOM      7  C   UNL     1       6.280   5.052  15.019  0.00  0.00    +0.000 A 
ATOM      8  C   UNL     1       5.628   6.132  15.588  0.00  0.00    +0.000 A 
ATOM      9  N   UNL     1       4.616   6.026  16.491  0.00  0.00    +0.000 NA
ATOM     10  C   UNL     1       3.295   3.570  18.803  0.00  0.00    +0.000 C 
ATOM     11  C   UNL     1       2.684   4.160  20.070  0.00  0.00    +0.000 C 
ATOM     12  F   UNL     1       3.676   4.733  20.811  0.00  0.00    +0.000 F 
ENDROOT
BRANCH   7  13
ATOM     13  C   UNL     1       7.329   5.230  14.068  0.00  0.00    +0.000 C 
ATOM     14  N   UNL     1       8.199   5.388  13.312  0.00  0.00    +0.000 NA
ENDBRANCH   7  13
BRANCH   1  15
ATOM     15  O   UNL     1       1.414   6.161  20.579  0.00  0.00    +0.000 OA
BRANCH  15  16
ATOM     16  C   UNL     1       2.114   7.400  20.446  0.00  0.00    +0.000 C 
BRANCH  16  23
ATOM     17  C   UNL     1      -2.488  13.132  21.230  0.00  0.00    +0.000 C 
ATOM     18  C   UNL     1      -1.647  11.934  21.565  0.00  0.00    +0.000 A 
ATOM     19  C   UNL     1      -1.581  11.447  22.879  0.00  0.00    +0.000 A 
ATOM     20  C   UNL     1      -0.800  10.333  23.213  0.00  0.00    +0.000 A 
ATOM     21  C   UNL     1      -0.092   9.732  22.172  0.00  0.00    +0.000 A 
ATOM     22  N   UNL     1       0.753   8.657  22.132  0.00  0.00    +0.000 N 
ATOM     23  C   UNL     1       1.178   8.486  20.835  0.00  0.00    +0.000 A 
ATOM     24  N   UNL     1       0.655   9.403  20.045  0.00  0.00    +0.000 NA
ATOM     25  C   UNL     1      -0.133  10.183  20.859  0.00  0.00    +0.000 A 
ATOM     26  C   UNL     1      -0.920  11.298  20.543  0.00  0.00    +0.000 A 
ATOM     27  H   UNL     1       1.037   8.071  22.904  0.00  0.00    +0.000 HD
ENDBRANCH  16  23
ENDBRANCH  15  16
ENDBRANCH   1  15
TORSDOF 4
ENDMDL
MODEL 8
REMARK VINA RESULT:      -7.8      2.276      2.869
REMARK  Name = 
REMARK  5 active torsions:
REMARK  status: ('A' for Active; 'I' for Inactive)
REMARK    1  A    between atoms: C_1  and  C_2
REMARK    2  A    between atoms: C_7  and  C_8
REMARK    3  A    between atoms: C_8  and  O_9
REMARK    4  A    between atoms: O_9  and  C_10
REMARK    5  A    between atoms: C_16  and  C_17
REMARK                            x       y       z     vdW  Elec       q    Type
REMARK                         _______ _______ _______ _____ _____    ______ ____
ROOT
ATOM      1  C   UNL     1       3.335   5.094  19.840  0.00  0.00    +0.000 C 
ATOM      2  C   UNL     1       3.151   6.489  19.209  0.00  0.00    +0.000 C 
ATOM      3  N   UNL     1       2.206   7.148  20.107  0.00  0.00    +0.000 N 
ATOM      4  C   UNL     1       1.588   8.323  19.728  0.00  0.00    +0.000 A 
ATOM      5  C   UNL     1       0.713   8.956  20.613  0.00  0.00    +0.000 A 
ATOM      6  C   UNL     1       0.084  10.151  20.262  0.00  0.00    +0.000 A 
ATOM      7  C   UNL     1       0.338  10.706  19.017  0.00  0.00    +0.000 A 
ATOM      8  C   UNL     1       1.225  10.036  18.192  0.00  0.00    +0.000 A 
ATOM      9  N   UNL     1       1.856   8.879  18.527  0.00  0.00    +0.000 NA
ATOM     10  C   UNL     1       1.448   6.152  20.875  0.00  0.00    +0.000 C 
ATOM     11  C   UNL     1       1.931   4.798  20.362  0.00  0.00    +0.000 C 
ATOM     12  F   UNL     1       1.123   4.404  19.335  0.00  0.00    +0.000 F 
ENDROOT
BRANCH   7  13
ATOM     13  C   UNL     1      -0.284  11.924  18.611  0.00  0.00    +0.000 C 
ATOM     14  N   UNL     1      -0.767  12.926  18.271  0.00  0.00    +0.000 NA
ENDBRANCH   7  13
BRANCH   1  15
ATOM     15  O   UNL     1       3.758   4.064  18.950  0.00  0.00    +0.000 OA
BRANCH  15  16
ATOM     16  C   UNL     1       5.177   3.885  18.951  0.00  0.00    +0.000 C 
BRANCH  16  23
ATOM     17  C   UNL     1       8.345   5.712  12.527  0.00  0.00    +0.000 C 
ATOM     18  C   UNL     1       7.422   5.064  13.517  0.00  0.00    +0.000 A 
ATOM     19  C   UNL     1       6.422   4.176  13.093  0.00  0.00    +0.000 A 
ATOM     20  C   UNL     1       5.548   3.563  14.000  0.00  0.00    +0.000 A 
ATOM     21  C   UNL     1       5.723   3.880  15.347  0.00  0.00    +0.000 A 
ATOM     22  N   UNL     1       5.068   3.484  16.480  0.00  0.00    +0.000 N 
ATOM     23  C   UNL     1       5.655   4.099  17.560  0.00  0.00    +0.000 A 
ATOM     24  N   UNL     1       6.648   4.877  17.175  0.00  0.00    +0.000 NA
ATOM     25  C   UNL     1       6.702   4.752  15.807  0.00  0.00    +0.000 A 
ATOM     26  C   UNL     1       7.567   5.356  14.885  0.00  0.00    +0.000 A 
ATOM     27  H   UNL     1       4.282   2.851  16.546  0.00  0.00    +0.000 HD
ENDBRANCH  16  23
ENDBRANCH  15  16
ENDBRANCH   1  15
TORSDOF 4
ENDMDL
MODEL 9
REMARK VINA RESULT:      -7.8      3.610      8.897
REMARK  Name = 
REMARK  5 active torsions:
REMARK  status: ('A' for Active; 'I' for Inactive)
REMARK    1  A    between atoms: C_1  and  C_2
REMARK    2  A    between atoms: C_7  and  C_8
REMARK    3  A    between atoms: C_8  and  O_9
REMARK    4  A    between atoms: O_9  and  C_10
REMARK    5  A    between atoms: C_16  and  C_17
REMARK                            x       y       z     vdW  Elec       q    Type
REMARK                         _______ _______ _______ _____ _____    ______ ____
ROOT
ATOM      1  C   UNL     1       0.740   9.061  20.028  0.00  0.00    +0.000 C 
ATOM      2  C   UNL     1       1.795   8.767  18.943  0.00  0.00    +0.000 C 
ATOM      3  N   UNL     1       2.062   7.340  19.104  0.00  0.00    +0.000 N 
ATOM      4  C   UNL     1       3.152   6.761  18.485  0.00  0.00    +0.000 A 
ATOM      5  C   UNL     1       3.372   5.390  18.623  0.00  0.00    +0.000 A 
ATOM      6  C   UNL     1       4.459   4.775  17.999  0.00  0.00    +0.000 A 
ATOM      7  C   UNL     1       5.322   5.546  17.236  0.00  0.00    +0.000 A 
ATOM      8  C   UNL     1       5.041   6.897  17.127  0.00  0.00    +0.000 A 
ATOM      9  N   UNL     1       3.978   7.507  17.718  0.00  0.00    +0.000 NA
ATOM     10  C   UNL     1       1.679   6.895  20.450  0.00  0.00    +0.000 C 
ATOM     11  C   UNL     1       1.200   8.154  21.167  0.00  0.00    +0.000 C 
ATOM     12  F   UNL     1       2.259   8.718  21.816  0.00  0.00    +0.000 F 
ENDROOT
BRANCH   7  13
ATOM     13  C   UNL     1       6.449   4.965  16.581  0.00  0.00    +0.000 C 
ATOM     14  N   UNL     1       7.367   4.511  16.029  0.00  0.00    +0.000 NA
ENDBRANCH   7  13
BRANCH   1  15
ATOM     15  O   UNL     1       0.670  10.414  20.473  0.00  0.00    +0.000 OA
BRANCH  15  16
ATOM     16  C   UNL     1       0.664  11.349  19.391  0.00  0.00    +0.000 C 
BRANCH  16  23
ATOM     17  C   UNL     1      -6.539  11.915  17.827  0.00  0.00    +0.000 C 
ATOM     18  C   UNL     1      -5.068  11.671  17.658  0.00  0.00    +0.000 A 
ATOM     19  C   UNL     1      -4.543  11.269  16.419  0.00  0.00    +0.000 A 
ATOM     20  C   UNL     1      -3.175  11.034  16.241  0.00  0.00    +0.000 A 
ATOM     21  C   UNL     1      -2.358  11.220  17.356  0.00  0.00    +0.000 A 
ATOM     22  N   UNL     1      -1.011  11.081  17.546  0.00  0.00    +0.000 N 
ATOM     23  C   UNL     1      -0.720  11.400  18.852  0.00  0.00    +0.000 A 
ATOM     24  N   UNL     1      -1.815  11.727  19.510  0.00  0.00    +0.000 NA
ATOM     25  C   UNL     1      -2.838  11.620  18.597  0.00  0.00    +0.000 A 
ATOM     26  C   UNL     1      -4.210  11.851  18.758  0.00  0.00    +0.000 A 
ATOM     27  H   UNL     1      -0.321  10.794  16.866  0.00  0.00    +0.000 HD
ENDBRANCH  16  23
ENDBRANCH  15  16
ENDBRANCH   1  15
TORSDOF 4
ENDMDL
