MODEL 1
REMARK VINA RESULT:      -7.0      0.000      0.000
REMARK  Name = 
REMARK  11 active torsions:
REMARK  status: ('A' for Active; 'I' for Inactive)
REMARK    1  A    between atoms: N_1  and  S_2
REMARK    2  A    between atoms: S_2  and  C_5
REMARK    3  A    between atoms: C_8  and  N_9
REMARK    4  A    between atoms: N_9  and  C_10
REMARK    5  A    between atoms: C_10  and  N_12
REMARK    6  A    between atoms: N_12  and  C_13
REMARK    7  A    between atoms: C_14  and  O_15
REMARK    8  A    between atoms: C_17  and  C_18
REMARK    9  A    between atoms: C_18  and  O_19
REMARK   10  A    between atoms: C_20  and  O_21
REMARK   11  A    between atoms: C_22  and  O_23
REMARK                            x       y       z     vdW  Elec       q    Type
REMARK                         _______ _______ _______ _____ _____    ______ ____
ROOT
ATOM      1  N   UNL     1       3.884   3.937  19.957  0.00  0.00    +0.000 N 
ATOM      2  H   UNL     1       3.868   3.176  20.628  0.00  0.00    +0.000 HD
ENDROOT
BRANCH   1   3
ATOM      3  C   UNL     1       4.791   3.809  18.809  0.00  0.00    +0.000 C 
ATOM      4  C   UNL     1       4.028   3.725  17.463  0.00  0.00    +0.000 C 
ATOM      5  O   UNL     1       4.947   3.532  16.391  0.00  0.00    +0.000 OA
ATOM      6  C   UNL     1       5.886   4.610  16.235  0.00  0.00    +0.000 C 
ATOM      7  C   UNL     1       6.722   4.803  17.513  0.00  0.00    +0.000 C 
ATOM      8  C   UNL     1       5.800   4.975  18.737  0.00  0.00    +0.000 C 
BRANCH   4   9
ATOM      9  O   UNL     1       3.188   4.836  17.185  0.00  0.00    +0.000 OA
ATOM     10  H   UNL     1       2.914   4.823  16.256  0.00  0.00    +0.000 HD
ENDBRANCH   4   9
BRANCH   7  11
ATOM     11  O   UNL     1       7.607   5.920  17.390  0.00  0.00    +0.000 OA
ATOM     12  H   UNL     1       7.854   6.238  18.274  0.00  0.00    +0.000 HD
ENDBRANCH   7  11
BRANCH   8  13
ATOM     13  O   UNL     1       6.559   5.061  19.949  0.00  0.00    +0.000 OA
ATOM     14  H   UNL     1       6.153   5.734  20.528  0.00  0.00    +0.000 HD
ENDBRANCH   8  13
BRANCH   6  15
ATOM     15  C   UNL     1       6.765   4.246  15.031  0.00  0.00    +0.000 C 
BRANCH  15  16
ATOM     16  O   UNL     1       7.545   5.376  14.638  0.00  0.00    +0.000 OA
ATOM     17  H   UNL     1       6.951   6.146  14.722  0.00  0.00    +0.000 HD
ENDBRANCH  15  16
ENDBRANCH   6  15
ENDBRANCH   1   3
BRANCH   1  18
ATOM     18  C   UNL     1       2.871   4.834  20.159  0.00  0.00    +0.000 C 
ATOM     19  S   UNL     1       1.382   4.184  20.547  0.00  0.00    +0.000 S 
BRANCH  18  20
ATOM     20  N   UNL     1       3.205   6.164  20.055  0.00  0.00    +0.000 N 
ATOM     21  H   UNL     1       4.125   6.400  20.398  0.00  0.00    +0.000 HD
BRANCH  20  25
ATOM     22  C   UNL     1       0.753   9.548  19.491  0.00  0.00    +0.000 A 
ATOM     23  C   UNL     1       0.813   8.927  20.738  0.00  0.00    +0.000 A 
ATOM     24  C   UNL     1       1.630   7.799  20.904  0.00  0.00    +0.000 A 
ATOM     25  C   UNL     1       2.352   7.270  19.823  0.00  0.00    +0.000 A 
ATOM     26  C   UNL     1       2.269   7.904  18.580  0.00  0.00    +0.000 A 
ATOM     27  C   UNL     1       1.463   9.035  18.410  0.00  0.00    +0.000 A 
BRANCH  22  28
ATOM     28  S   UNL     1      -0.226  11.002  19.246  0.00  0.00    +0.000 S 
ATOM     29  O   UNL     1      -0.828  11.393  20.494  0.00  0.00    +0.000 OA
ATOM     30  O   UNL     1      -0.989  10.864  18.022  0.00  0.00    +0.000 OA
BRANCH  28  31
ATOM     31  N   UNL     1       0.962  12.141  18.913  0.00  0.00    +0.000 NA
ATOM     32  H   UNL     1       1.781  11.962  19.508  0.00  0.00    +0.000 HD
ATOM     33  H   UNL     1       0.592  13.086  19.001  0.00  0.00    +0.000 HD
ENDBRANCH  28  31
ENDBRANCH  22  28
ENDBRANCH  20  25
ENDBRANCH  18  20
ENDBRANCH   1  18
TORSDOF 11
ENDMDL
MODEL 2
REMARK VINA RESULT:      -7.0      1.555      1.711
REMARK  Name = 
REMARK  11 active torsions:
REMARK  status: ('A' for Active; 'I' for Inactive)
REMARK    1  A    between atoms: N_1  and  S_2
REMARK    2  A    between atoms: S_2  and  C_5
REMARK    3  A    between atoms: C_8  and  N_9
REMARK    4  A    between atoms: N_9  and  C_10
REMARK    5  A    between atoms: C_10  and  N_12
REMARK    6  A    between atoms: N_12  and  C_13
REMARK    7  A    between atoms: C_14  and  O_15
REMARK    8  A    between atoms: C_17  and  C_18
REMARK    9  A    between atoms: C_18  and  O_19
REMARK   10  A    between atoms: C_20  and  O_21
REMARK   11  A    between atoms: C_22  and  O_23
REMARK                            x       y       z     vdW  Elec       q    Type
REMARK                         _______ _______ _______ _____ _____    ______ ____
ROOT
ATOM      1  N   UNL     1       4.007   5.637  19.415  0.00  0.00    +0.000 N 
ATOM      2  H   UNL     1       4.649   5.774  20.191  0.00  0.00    +0.000 HD
ENDROOT
BRANCH   1   3
ATOM      3  C   UNL     1       4.576   5.190  18.137  0.00  0.00    +0.000 C 
ATOM      4  C   UNL     1       4.439   6.261  17.027  0.00  0.00    +0.000 C 
ATOM      5  O   UNL     1       4.941   5.755  15.793  0.00  0.00    +0.000 OA
ATOM      6  C   UNL     1       6.339   5.417  15.834  0.00  0.00    +0.000 C 
ATOM      7  C   UNL     1       6.618   4.347  16.904  0.00  0.00    +0.000 C 
ATOM      8  C   UNL     1       6.063   4.798  18.271  0.00  0.00    +0.000 C 
BRANCH   4   9
ATOM      9  O   UNL     1       5.055   7.507  17.323  0.00  0.00    +0.000 OA
ATOM     10  H   UNL     1       5.352   7.522  18.244  0.00  0.00    +0.000 HD
ENDBRANCH   4   9
BRANCH   7  11
ATOM     11  O   UNL     1       8.015   4.060  16.999  0.00  0.00    +0.000 OA
ATOM     12  H   UNL     1       8.204   3.642  17.856  0.00  0.00    +0.000 HD
ENDBRANCH   7  11
BRANCH   8  13
ATOM     13  O   UNL     1       6.228   3.776  19.261  0.00  0.00    +0.000 OA
ATOM     14  H   UNL     1       5.356   3.559  19.639  0.00  0.00    +0.000 HD
ENDBRANCH   8  13
BRANCH   6  15
ATOM     15  C   UNL     1       6.704   4.922  14.428  0.00  0.00    +0.000 C 
BRANCH  15  16
ATOM     16  O   UNL     1       6.492   3.512  14.338  0.00  0.00    +0.000 OA
ATOM     17  H   UNL     1       7.372   3.127  14.160  0.00  0.00    +0.000 HD
ENDBRANCH  15  16
ENDBRANCH   6  15
ENDBRANCH   1   3
BRANCH   1  18
ATOM     18  C   UNL     1       2.697   5.689  19.804  0.00  0.00    +0.000 C 
ATOM     19  S   UNL     1       1.747   4.389  19.357  0.00  0.00    +0.000 S 
BRANCH  18  20
ATOM     20  N   UNL     1       2.324   6.785  20.547  0.00  0.00    +0.000 N 
ATOM     21  H   UNL     1       2.320   6.640  21.547  0.00  0.00    +0.000 HD
BRANCH  20  25
ATOM     22  C   UNL     1       0.459  10.382  19.381  0.00  0.00    +0.000 A 
ATOM     23  C   UNL     1       0.258   9.873  20.664  0.00  0.00    +0.000 A 
ATOM     24  C   UNL     1       0.883   8.672  21.031  0.00  0.00    +0.000 A 
ATOM     25  C   UNL     1       1.671   7.962  20.111  0.00  0.00    +0.000 A 
ATOM     26  C   UNL     1       1.850   8.487  18.828  0.00  0.00    +0.000 A 
ATOM     27  C   UNL     1       1.237   9.690  18.459  0.00  0.00    +0.000 A 
BRANCH  22  28
ATOM     28  S   UNL     1      -0.269  11.918  18.889  0.00  0.00    +0.000 S 
ATOM     29  O   UNL     1       0.761  12.815  18.433  0.00  0.00    +0.000 OA
ATOM     30  O   UNL     1      -1.267  12.309  19.864  0.00  0.00    +0.000 OA
BRANCH  28  31
ATOM     31  N   UNL     1      -1.129  11.448  17.525  0.00  0.00    +0.000 NA
ATOM     32  H   UNL     1      -1.220  12.249  16.888  0.00  0.00    +0.000 HD
ATOM     33  H   UNL     1      -2.021  11.031  17.786  0.00  0.00    +0.000 HD
ENDBRANCH  28  31
ENDBRANCH  22  28
ENDBRANCH  20  25
ENDBRANCH  18  20
ENDBRANCH   1  18
TORSDOF 11
ENDMDL
MODEL 3
REMARK VINA RESULT:      -6.9      1.587      1.984
REMARK  Name = 
REMARK  11 active torsions:
REMARK  status: ('A' for Active; 'I' for Inactive)
REMARK    1  A    between atoms: N_1  and  S_2
REMARK    2  A    between atoms: S_2  and  C_5
REMARK    3  A    between atoms: C_8  and  N_9
REMARK    4  A    between atoms: N_9  and  C_10
REMARK    5  A    between atoms: C_10  and  N_12
REMARK    6  A    between atoms: N_12  and  C_13
REMARK    7  A    between atoms: C_14  and  O_15
REMARK    8  A    between atoms: C_17  and  C_18
REMARK    9  A    between atoms: C_18  and  O_19
REMARK   10  A    between atoms: C_20  and  O_21
REMARK   11  A    between atoms: C_22  and  O_23
REMARK                            x       y       z     vdW  Elec       q    Type
REMARK                         _______ _______ _______ _____ _____    ______ ____
ROOT
ATOM      1  N   UNL     1       3.951   5.544  19.399  0.00  0.00    +0.000 N 
ATOM      2  H   UNL     1       4.526   5.470  20.233  0.00  0.00    +0.000 HD
ENDROOT
BRANCH   1   3
ATOM      3  C   UNL     1       4.557   5.153  18.120  0.00  0.00    +0.000 C 
ATOM      4  C   UNL     1       4.445   6.269  17.051  0.00  0.00    +0.000 C 
ATOM      5  O   UNL     1       4.983   5.815  15.812  0.00  0.00    +0.000 OA
ATOM      6  C   UNL     1       6.380   5.481  15.877  0.00  0.00    +0.000 C 
ATOM      7  C   UNL     1       6.635   4.369  16.910  0.00  0.00    +0.000 C 
ATOM      8  C   UNL     1       6.041   4.761  18.278  0.00  0.00    +0.000 C 
BRANCH   4   9
ATOM      9  O   UNL     1       5.046   7.503  17.415  0.00  0.00    +0.000 OA
ATOM     10  H   UNL     1       4.864   7.702  18.345  0.00  0.00    +0.000 HD
ENDBRANCH   4   9
BRANCH   7  11
ATOM     11  O   UNL     1       8.031   4.084  17.032  0.00  0.00    +0.000 OA
ATOM     12  H   UNL     1       8.287   3.424  16.366  0.00  0.00    +0.000 HD
ENDBRANCH   7  11
BRANCH   8  13
ATOM     13  O   UNL     1       6.184   3.700  19.230  0.00  0.00    +0.000 OA
ATOM     14  H   UNL     1       7.132   3.569  19.416  0.00  0.00    +0.000 HD
ENDBRANCH   8  13
BRANCH   6  15
ATOM     15  C   UNL     1       6.786   5.046  14.463  0.00  0.00    +0.000 C 
BRANCH  15  16
ATOM     16  O   UNL     1       6.657   3.629  14.333  0.00  0.00    +0.000 OA
ATOM     17  H   UNL     1       6.335   3.316  15.200  0.00  0.00    +0.000 HD
ENDBRANCH  15  16
ENDBRANCH   6  15
ENDBRANCH   1   3
BRANCH   1  18
ATOM     18  C   UNL     1       2.638   5.792  19.691  0.00  0.00    +0.000 C 
ATOM     19  S   UNL     1       1.535   4.680  19.107  0.00  0.00    +0.000 S 
BRANCH  18  20
ATOM     20  N   UNL     1       2.382   6.902  20.460  0.00  0.00    +0.000 N 
ATOM     21  H   UNL     1       2.520   6.774  21.453  0.00  0.00    +0.000 HD
BRANCH  20  25
ATOM     22  C   UNL     1       0.220  10.316  19.258  0.00  0.00    +0.000 A 
ATOM     23  C   UNL     1       1.127   9.718  18.383  0.00  0.00    +0.000 A 
ATOM     24  C   UNL     1       1.840   8.586  18.804  0.00  0.00    +0.000 A 
ATOM     25  C   UNL     1       1.680   8.078  20.102  0.00  0.00    +0.000 A 
ATOM     26  C   UNL     1       0.773   8.701  20.965  0.00  0.00    +0.000 A 
ATOM     27  C   UNL     1       0.051   9.824  20.548  0.00  0.00    +0.000 A 
BRANCH  22  28
ATOM     28  S   UNL     1      -0.739  11.717  18.754  0.00  0.00    +0.000 S 
ATOM     29  O   UNL     1       0.138  12.756  18.283  0.00  0.00    +0.000 OA
ATOM     30  O   UNL     1      -1.779  11.960  19.732  0.00  0.00    +0.000 OA
BRANCH  28  31
ATOM     31  N   UNL     1      -1.522  11.104  17.401  0.00  0.00    +0.000 NA
ATOM     32  H   UNL     1      -2.477  11.483  17.361  0.00  0.00    +0.000 HD
ATOM     33  H   UNL     1      -1.486  10.087  17.392  0.00  0.00    +0.000 HD
ENDBRANCH  28  31
ENDBRANCH  22  28
ENDBRANCH  20  25
ENDBRANCH  18  20
ENDBRANCH   1  18
TORSDOF 11
ENDMDL
MODEL 4
REMARK VINA RESULT:      -6.9      0.368      1.034
REMARK  Name = 
REMARK  11 active torsions:
REMARK  status: ('A' for Active; 'I' for Inactive)
REMARK    1  A    between atoms: N_1  and  S_2
REMARK    2  A    between atoms: S_2  and  C_5
REMARK    3  A    between atoms: C_8  and  N_9
REMARK    4  A    between atoms: N_9  and  C_10
REMARK    5  A    between atoms: C_10  and  N_12
REMARK    6  A    between atoms: N_12  and  C_13
REMARK    7  A    between atoms: C_14  and  O_15
REMARK    8  A    between atoms: C_17  and  C_18
REMARK    9  A    between atoms: C_18  and  O_19
REMARK   10  A    between atoms: C_20  and  O_21
REMARK   11  A    between atoms: C_22  and  O_23
REMARK                            x       y       z     vdW  Elec       q    Type
REMARK                         _______ _______ _______ _____ _____    ______ ____
ROOT
ATOM      1  N   UNL     1       3.963   4.041  19.928  0.00  0.00    +0.000 N 
ATOM      2  H   UNL     1       3.877   3.252  20.561  0.00  0.00    +0.000 HD
ENDROOT
BRANCH   1   3
ATOM      3  C   UNL     1       4.927   3.924  18.825  0.00  0.00    +0.000 C 
ATOM      4  C   UNL     1       4.230   3.790  17.448  0.00  0.00    +0.000 C 
ATOM      5  O   UNL     1       5.203   3.610  16.423  0.00  0.00    +0.000 OA
ATOM      6  C   UNL     1       6.113   4.716  16.290  0.00  0.00    +0.000 C 
ATOM      7  C   UNL     1       6.883   4.959  17.601  0.00  0.00    +0.000 C 
ATOM      8  C   UNL     1       5.900   5.121  18.778  0.00  0.00    +0.000 C 
BRANCH   4   9
ATOM      9  O   UNL     1       3.368   4.868  17.111  0.00  0.00    +0.000 OA
ATOM     10  H   UNL     1       3.825   5.713  17.236  0.00  0.00    +0.000 HD
ENDBRANCH   4   9
BRANCH   7  11
ATOM     11  O   UNL     1       7.736   6.102  17.498  0.00  0.00    +0.000 OA
ATOM     12  H   UNL     1       7.199   6.894  17.328  0.00  0.00    +0.000 HD
ENDBRANCH   7  11
BRANCH   8  13
ATOM     13  O   UNL     1       6.598   5.254  20.022  0.00  0.00    +0.000 OA
ATOM     14  H   UNL     1       6.205   4.641  20.671  0.00  0.00    +0.000 HD
ENDBRANCH   8  13
BRANCH   6  15
ATOM     15  C   UNL     1       7.058   4.361  15.135  0.00  0.00    +0.000 C 
BRANCH  15  16
ATOM     16  O   UNL     1       7.677   5.545  14.629  0.00  0.00    +0.000 OA
ATOM     17  H   UNL     1       7.507   5.538  13.668  0.00  0.00    +0.000 HD
ENDBRANCH  15  16
ENDBRANCH   6  15
ENDBRANCH   1   3
BRANCH   1  18
ATOM     18  C   UNL     1       2.981   4.974  20.118  0.00  0.00    +0.000 C 
ATOM     19  S   UNL     1       1.546   4.408  20.759  0.00  0.00    +0.000 S 
BRANCH  18  20
ATOM     20  N   UNL     1       3.302   6.272  19.796  0.00  0.00    +0.000 N 
ATOM     21  H   UNL     1       4.286   6.493  19.850  0.00  0.00    +0.000 HD
BRANCH  20  25
ATOM     22  C   UNL     1       0.650   9.522  19.373  0.00  0.00    +0.000 A 
ATOM     23  C   UNL     1       1.392   9.078  18.280  0.00  0.00    +0.000 A 
ATOM     24  C   UNL     1       2.272   7.998  18.442  0.00  0.00    +0.000 A 
ATOM     25  C   UNL     1       2.443   7.392  19.696  0.00  0.00    +0.000 A 
ATOM     26  C   UNL     1       1.696   7.862  20.780  0.00  0.00    +0.000 A 
ATOM     27  C   UNL     1       0.808   8.932  20.624  0.00  0.00    +0.000 A 
BRANCH  22  28
ATOM     28  S   UNL     1      -0.510  10.849  19.206  0.00  0.00    +0.000 S 
ATOM     29  O   UNL     1      -0.584  11.583  20.442  0.00  0.00    +0.000 OA
ATOM     30  O   UNL     1      -1.688  10.369  18.512  0.00  0.00    +0.000 OA
BRANCH  28  31
ATOM     31  N   UNL     1       0.288  11.841  18.111  0.00  0.00    +0.000 NA
ATOM     32  H   UNL     1       0.714  12.630  18.614  0.00  0.00    +0.000 HD
ATOM     33  H   UNL     1      -0.338  12.127  17.360  0.00  0.00    +0.000 HD
ENDBRANCH  28  31
ENDBRANCH  22  28
ENDBRANCH  20  25
ENDBRANCH  18  20
ENDBRANCH   1  18
TORSDOF 11
ENDMDL
MODEL 5
REMARK VINA RESULT:      -6.9      1.542      1.948
REMARK  Name = 
REMARK  11 active torsions:
REMARK  status: ('A' for Active; 'I' for Inactive)
REMARK    1  A    between atoms: N_1  and  S_2
REMARK    2  A    between atoms: S_2  and  C_5
REMARK    3  A    between atoms: C_8  and  N_9
REMARK    4  A    between atoms: N_9  and  C_10
REMARK    5  A    between atoms: C_10  and  N_12
REMARK    6  A    between atoms: N_12  and  C_13
REMARK    7  A    between atoms: C_14  and  O_15
REMARK    8  A    between atoms: C_17  and  C_18
REMARK    9  A    between atoms: C_18  and  O_19
REMARK   10  A    between atoms: C_20  and  O_21
REMARK   11  A    between atoms: C_22  and  O_23
REMARK                            x       y       z     vdW  Elec       q    Type
REMARK                         _______ _______ _______ _____ _____    ______ ____
ROOT
ATOM      1  N   UNL     1       3.945   5.677  19.235  0.00  0.00    +0.000 N 
ATOM      2  H   UNL     1       4.541   5.941  20.014  0.00  0.00    +0.000 HD
ENDROOT
BRANCH   1   3
ATOM      3  C   UNL     1       4.602   5.192  18.014  0.00  0.00    +0.000 C 
ATOM      4  C   UNL     1       4.531   6.224  16.860  0.00  0.00    +0.000 C 
ATOM      5  O   UNL     1       5.118   5.680  15.681  0.00  0.00    +0.000 OA
ATOM      6  C   UNL     1       6.512   5.358  15.826  0.00  0.00    +0.000 C 
ATOM      7  C   UNL     1       6.727   4.328  16.950  0.00  0.00    +0.000 C 
ATOM      8  C   UNL     1       6.079   4.820  18.260  0.00  0.00    +0.000 C 
BRANCH   4   9
ATOM      9  O   UNL     1       5.116   7.485  17.153  0.00  0.00    +0.000 OA
ATOM     10  H   UNL     1       6.066   7.464  16.964  0.00  0.00    +0.000 HD
ENDBRANCH   4   9
BRANCH   7  11
ATOM     11  O   UNL     1       8.117   4.058  17.147  0.00  0.00    +0.000 OA
ATOM     12  H   UNL     1       8.380   4.344  18.038  0.00  0.00    +0.000 HD
ENDBRANCH   7  11
BRANCH   8  13
ATOM     13  O   UNL     1       6.185   3.834  19.293  0.00  0.00    +0.000 OA
ATOM     14  H   UNL     1       5.483   3.989  19.951  0.00  0.00    +0.000 HD
ENDBRANCH   8  13
BRANCH   6  15
ATOM     15  C   UNL     1       6.974   4.819  14.466  0.00  0.00    +0.000 C 
BRANCH  15  16
ATOM     16  O   UNL     1       6.347   3.563  14.201  0.00  0.00    +0.000 OA
ATOM     17  H   UNL     1       5.388   3.742  14.218  0.00  0.00    +0.000 HD
ENDBRANCH  15  16
ENDBRANCH   6  15
ENDBRANCH   1   3
BRANCH   1  18
ATOM     18  C   UNL     1       2.623   5.623  19.583  0.00  0.00    +0.000 C 
ATOM     19  S   UNL     1       1.753   4.340  18.959  0.00  0.00    +0.000 S 
BRANCH  18  20
ATOM     20  N   UNL     1       2.175   6.607  20.431  0.00  0.00    +0.000 N 
ATOM     21  H   UNL     1       1.926   6.290  21.357  0.00  0.00    +0.000 HD
BRANCH  20  25
ATOM     22  C   UNL     1       0.768  10.430  19.346  0.00  0.00    +0.000 A 
ATOM     23  C   UNL     1       1.434   9.639  18.411  0.00  0.00    +0.000 A 
ATOM     24  C   UNL     1       1.899   8.372  18.793  0.00  0.00    +0.000 A 
ATOM     25  C   UNL     1       1.737   7.914  20.110  0.00  0.00    +0.000 A 
ATOM     26  C   UNL     1       1.074   8.730  21.032  0.00  0.00    +0.000 A 
ATOM     27  C   UNL     1       0.599   9.991  20.655  0.00  0.00    +0.000 A 
BRANCH  22  28
ATOM     28  S   UNL     1       0.120  12.016  18.897  0.00  0.00    +0.000 S 
ATOM     29  O   UNL     1      -1.117  11.844  18.180  0.00  0.00    +0.000 OA
ATOM     30  O   UNL     1       1.196  12.850  18.405  0.00  0.00    +0.000 OA
BRANCH  28  31
ATOM     31  N   UNL     1      -0.285  12.639  20.402  0.00  0.00    +0.000 NA
ATOM     32  H   UNL     1      -1.195  12.259  20.694  0.00  0.00    +0.000 HD
ATOM     33  H   UNL     1      -0.253  13.657  20.393  0.00  0.00    +0.000 HD
ENDBRANCH  28  31
ENDBRANCH  22  28
ENDBRANCH  20  25
ENDBRANCH  18  20
ENDBRANCH   1  18
TORSDOF 11
ENDMDL
MODEL 6
REMARK VINA RESULT:      -6.8      2.712      8.153
REMARK  Name = 
REMARK  11 active torsions:
REMARK  status: ('A' for Active; 'I' for Inactive)
REMARK    1  A    between atoms: N_1  and  S_2
REMARK    2  A    between atoms: S_2  and  C_5
REMARK    3  A    between atoms: C_8  and  N_9
REMARK    4  A    between atoms: N_9  and  C_10
REMARK    5  A    between atoms: C_10  and  N_12
REMARK    6  A    between atoms: N_12  and  C_13
REMARK    7  A    between atoms: C_14  and  O_15
REMARK    8  A    between atoms: C_17  and  C_18
REMARK    9  A    between atoms: C_18  and  O_19
REMARK   10  A    between atoms: C_20  and  O_21
REMARK   11  A    between atoms: C_22  and  O_23
REMARK                            x       y       z     vdW  Elec       q    Type
REMARK                         _______ _______ _______ _____ _____    ______ ____
ROOT
ATOM      1  N   UNL     1       1.915   7.476  20.821  0.00  0.00    +0.000 N 
ATOM      2  H   UNL     1       2.790   7.719  21.276  0.00  0.00    +0.000 HD
ENDROOT
BRANCH   1   3
ATOM      3  C   UNL     1       0.835   8.471  20.857  0.00  0.00    +0.000 C 
ATOM      4  C   UNL     1       0.578   9.008  22.287  0.00  0.00    +0.000 C 
ATOM      5  O   UNL     1      -0.521   9.915  22.279  0.00  0.00    +0.000 OA
ATOM      6  C   UNL     1      -0.304  11.078  21.462  0.00  0.00    +0.000 C 
ATOM      7  C   UNL     1      -0.039  10.684  19.999  0.00  0.00    +0.000 C 
ATOM      8  C   UNL     1       1.115   9.664  19.919  0.00  0.00    +0.000 C 
BRANCH   4   9
ATOM      9  O   UNL     1       1.703   9.620  22.903  0.00  0.00    +0.000 OA
ATOM     10  H   UNL     1       1.718   9.415  23.849  0.00  0.00    +0.000 HD
ENDBRANCH   4   9
BRANCH   7  11
ATOM     11  O   UNL     1       0.249  11.831  19.196  0.00  0.00    +0.000 OA
ATOM     12  H   UNL     1      -0.581  12.269  18.945  0.00  0.00    +0.000 HD
ENDBRANCH   7  11
BRANCH   8  13
ATOM     13  O   UNL     1       1.316   9.212  18.574  0.00  0.00    +0.000 OA
ATOM     14  H   UNL     1       1.967   8.485  18.580  0.00  0.00    +0.000 HD
ENDBRANCH   8  13
BRANCH   6  15
ATOM     15  C   UNL     1      -1.566  11.941  21.597  0.00  0.00    +0.000 C 
BRANCH  15  16
ATOM     16  O   UNL     1      -1.302  13.266  21.133  0.00  0.00    +0.000 OA
ATOM     17  H   UNL     1      -1.487  13.249  20.175  0.00  0.00    +0.000 HD
ENDBRANCH  15  16
ENDBRANCH   6  15
ENDBRANCH   1   3
BRANCH   1  18
ATOM     18  C   UNL     1       2.014   6.338  20.070  0.00  0.00    +0.000 C 
ATOM     19  S   UNL     1       1.895   4.895  20.905  0.00  0.00    +0.000 S 
BRANCH  18  20
ATOM     20  N   UNL     1       2.162   6.512  18.714  0.00  0.00    +0.000 N 
ATOM     21  H   UNL     1       1.320   6.784  18.226  0.00  0.00    +0.000 HD
BRANCH  20  25
ATOM     22  C   UNL     1       5.440   5.301  16.355  0.00  0.00    +0.000 A 
ATOM     23  C   UNL     1       5.270   6.647  16.679  0.00  0.00    +0.000 A 
ATOM     24  C   UNL     1       4.170   7.030  17.460  0.00  0.00    +0.000 A 
ATOM     25  C   UNL     1       3.224   6.084  17.882  0.00  0.00    +0.000 A 
ATOM     26  C   UNL     1       3.410   4.742  17.537  0.00  0.00    +0.000 A 
ATOM     27  C   UNL     1       4.510   4.351  16.766  0.00  0.00    +0.000 A 
BRANCH  22  28
ATOM     28  S   UNL     1       6.839   4.763  15.413  0.00  0.00    +0.000 S 
ATOM     29  O   UNL     1       7.918   4.424  16.304  0.00  0.00    +0.000 OA
ATOM     30  O   UNL     1       7.014   5.641  14.274  0.00  0.00    +0.000 OA
BRANCH  28  31
ATOM     31  N   UNL     1       6.268   3.314  14.784  0.00  0.00    +0.000 NA
ATOM     32  H   UNL     1       6.142   2.638  15.548  0.00  0.00    +0.000 HD
ATOM     33  H   UNL     1       6.876   2.979  14.039  0.00  0.00    +0.000 HD
ENDBRANCH  28  31
ENDBRANCH  22  28
ENDBRANCH  20  25
ENDBRANCH  18  20
ENDBRANCH   1  18
TORSDOF 11
ENDMDL
MODEL 7
REMARK VINA RESULT:      -6.8      0.953      2.145
REMARK  Name = 
REMARK  11 active torsions:
REMARK  status: ('A' for Active; 'I' for Inactive)
REMARK    1  A    between atoms: N_1  and  S_2
REMARK    2  A    between atoms: S_2  and  C_5
REMARK    3  A    between atoms: C_8  and  N_9
REMARK    4  A    between atoms: N_9  and  C_10
REMARK    5  A    between atoms: C_10  and  N_12
REMARK    6  A    between atoms: N_12  and  C_13
REMARK    7  A    between atoms: C_14  and  O_15
REMARK    8  A    between atoms: C_17  and  C_18
REMARK    9  A    between atoms: C_18  and  O_19
REMARK   10  A    between atoms: C_20  and  O_21
REMARK   11  A    between atoms: C_22  and  O_23
REMARK                            x       y       z     vdW  Elec       q    Type
REMARK                         _______ _______ _______ _____ _____    ______ ____
ROOT
ATOM      1  N   UNL     1       3.471   4.421  19.860  0.00  0.00    +0.000 N 
ATOM      2  H   UNL     1       3.805   3.617  20.383  0.00  0.00    +0.000 HD
ENDROOT
BRANCH   1   3
ATOM      3  C   UNL     1       4.205   4.789  18.642  0.00  0.00    +0.000 C 
ATOM      4  C   UNL     1       5.489   5.599  18.951  0.00  0.00    +0.000 C 
ATOM      5  O   UNL     1       6.125   5.990  17.738  0.00  0.00    +0.000 OA
ATOM      6  C   UNL     1       6.553   4.882  16.927  0.00  0.00    +0.000 C 
ATOM      7  C   UNL     1       5.361   3.988  16.540  0.00  0.00    +0.000 C 
ATOM      8  C   UNL     1       4.585   3.553  17.800  0.00  0.00    +0.000 C 
BRANCH   4   9
ATOM      9  O   UNL     1       6.421   4.935  19.793  0.00  0.00    +0.000 OA
ATOM     10  H   UNL     1       6.534   5.427  20.620  0.00  0.00    +0.000 HD
ENDBRANCH   4   9
BRANCH   7  11
ATOM     11  O   UNL     1       5.790   2.845  15.795  0.00  0.00    +0.000 OA
ATOM     12  H   UNL     1       5.847   3.074  14.852  0.00  0.00    +0.000 HD
ENDBRANCH   7  11
BRANCH   8  13
ATOM     13  O   UNL     1       3.417   2.798  17.455  0.00  0.00    +0.000 OA
ATOM     14  H   UNL     1       3.659   1.856  17.387  0.00  0.00    +0.000 HD
ENDBRANCH   8  13
BRANCH   6  15
ATOM     15  C   UNL     1       7.232   5.488  15.692  0.00  0.00    +0.000 C 
BRANCH  15  16
ATOM     16  O   UNL     1       6.356   5.409  14.566  0.00  0.00    +0.000 OA
ATOM     17  H   UNL     1       6.749   4.737  13.977  0.00  0.00    +0.000 HD
ENDBRANCH  15  16
ENDBRANCH   6  15
ENDBRANCH   1   3
BRANCH   1  18
ATOM     18  C   UNL     1       2.251   4.860  20.297  0.00  0.00    +0.000 C 
ATOM     19  S   UNL     1       0.954   3.855  19.981  0.00  0.00    +0.000 S 
BRANCH  18  20
ATOM     20  N   UNL     1       2.241   6.056  20.976  0.00  0.00    +0.000 N 
ATOM     21  H   UNL     1       2.391   5.980  21.973  0.00  0.00    +0.000 HD
BRANCH  20  25
ATOM     22  C   UNL     1       0.738   9.719  19.530  0.00  0.00    +0.000 A 
ATOM     23  C   UNL     1       1.598   8.956  18.741  0.00  0.00    +0.000 A 
ATOM     24  C   UNL     1       2.091   7.742  19.242  0.00  0.00    +0.000 A 
ATOM     25  C   UNL     1       1.761   7.313  20.537  0.00  0.00    +0.000 A 
ATOM     26  C   UNL     1       0.906   8.100  21.313  0.00  0.00    +0.000 A 
ATOM     27  C   UNL     1       0.401   9.307  20.815  0.00  0.00    +0.000 A 
BRANCH  22  28
ATOM     28  S   UNL     1       0.050  11.233  18.921  0.00  0.00    +0.000 S 
ATOM     29  O   UNL     1      -0.196  12.127  20.022  0.00  0.00    +0.000 OA
ATOM     30  O   UNL     1      -0.953  10.934  17.920  0.00  0.00    +0.000 OA
BRANCH  28  31
ATOM     31  N   UNL     1       1.357  11.866  18.077  0.00  0.00    +0.000 NA
ATOM     32  H   UNL     1       1.732  12.676  18.589  0.00  0.00    +0.000 HD
ATOM     33  H   UNL     1       1.099  12.077  17.115  0.00  0.00    +0.000 HD
ENDBRANCH  28  31
ENDBRANCH  22  28
ENDBRANCH  20  25
ENDBRANCH  18  20
ENDBRANCH   1  18
TORSDOF 11
ENDMDL
MODEL 8
REMARK VINA RESULT:      -6.8      2.705      8.041
REMARK  Name = 
REMARK  11 active torsions:
REMARK  status: ('A' for Active; 'I' for Inactive)
REMARK    1  A    between atoms: N_1  and  S_2
REMARK    2  A    between atoms: S_2  and  C_5
REMARK    3  A    between atoms: C_8  and  N_9
REMARK    4  A    between atoms: N_9  and  C_10
REMARK    5  A    between atoms: C_10  and  N_12
REMARK    6  A    between atoms: N_12  and  C_13
REMARK    7  A    between atoms: C_14  and  O_15
REMARK    8  A    between atoms: C_17  and  C_18
REMARK    9  A    between atoms: C_18  and  O_19
REMARK   10  A    between atoms: C_20  and  O_21
REMARK   11  A    between atoms: C_22  and  O_23
REMARK                            x       y       z     vdW  Elec       q    Type
REMARK                         _______ _______ _______ _____ _____    ______ ____
ROOT
ATOM      1  N   UNL     1       1.961   7.334  20.758  0.00  0.00    +0.000 N 
ATOM      2  H   UNL     1       2.841   7.576  21.202  0.00  0.00    +0.000 HD
ENDROOT
BRANCH   1   3
ATOM      3  C   UNL     1       0.909   8.359  20.735  0.00  0.00    +0.000 C 
ATOM      4  C   UNL     1       0.610   8.927  22.145  0.00  0.00    +0.000 C 
ATOM      5  O   UNL     1      -0.461   9.864  22.078  0.00  0.00    +0.000 OA
ATOM      6  C   UNL     1      -0.178  11.007  21.254  0.00  0.00    +0.000 C 
ATOM      7  C   UNL     1       0.136  10.582  19.808  0.00  0.00    +0.000 C 
ATOM      8  C   UNL     1       1.262   9.528  19.791  0.00  0.00    +0.000 C 
BRANCH   4   9
ATOM      9  O   UNL     1       1.726   9.516  22.797  0.00  0.00    +0.000 OA
ATOM     10  H   UNL     1       2.461   9.618  22.175  0.00  0.00    +0.000 HD
ENDBRANCH   4   9
BRANCH   7  11
ATOM     11  O   UNL     1       0.489  11.708  19.001  0.00  0.00    +0.000 OA
ATOM     12  H   UNL     1       1.246  12.169  19.399  0.00  0.00    +0.000 HD
ENDBRANCH   7  11
BRANCH   8  13
ATOM     13  O   UNL     1       1.504   9.049  18.463  0.00  0.00    +0.000 OA
ATOM     14  H   UNL     1       1.082   8.177  18.360  0.00  0.00    +0.000 HD
ENDBRANCH   8  13
BRANCH   6  15
ATOM     15  C   UNL     1      -1.418  11.908  21.324  0.00  0.00    +0.000 C 
BRANCH  15  16
ATOM     16  O   UNL     1      -2.109  11.884  20.073  0.00  0.00    +0.000 OA
ATOM     17  H   UNL     1      -1.901  11.016  19.677  0.00  0.00    +0.000 HD
ENDBRANCH  15  16
ENDBRANCH   6  15
ENDBRANCH   1   3
BRANCH   1  18
ATOM     18  C   UNL     1       2.029   6.153  20.071  0.00  0.00    +0.000 C 
ATOM     19  S   UNL     1       1.847   4.764  20.981  0.00  0.00    +0.000 S 
BRANCH  18  20
ATOM     20  N   UNL     1       2.201   6.249  18.710  0.00  0.00    +0.000 N 
ATOM     21  H   UNL     1       1.350   6.374  18.181  0.00  0.00    +0.000 HD
BRANCH  20  25
ATOM     22  C   UNL     1       5.478   5.133  16.303  0.00  0.00    +0.000 A 
ATOM     23  C   UNL     1       4.653   4.156  16.859  0.00  0.00    +0.000 A 
ATOM     24  C   UNL     1       3.571   4.547  17.661  0.00  0.00    +0.000 A 
ATOM     25  C   UNL     1       3.337   5.902  17.941  0.00  0.00    +0.000 A 
ATOM     26  C   UNL     1       4.184   6.863  17.380  0.00  0.00    +0.000 A 
ATOM     27  C   UNL     1       5.259   6.481  16.571  0.00  0.00    +0.000 A 
BRANCH  22  28
ATOM     28  S   UNL     1       6.826   4.690  15.244  0.00  0.00    +0.000 S 
ATOM     29  O   UNL     1       7.964   4.318  16.044  0.00  0.00    +0.000 OA
ATOM     30  O   UNL     1       6.915   5.645  14.159  0.00  0.00    +0.000 OA
BRANCH  28  31
ATOM     31  N   UNL     1       6.244   3.273  14.555  0.00  0.00    +0.000 NA
ATOM     32  H   UNL     1       6.884   2.500  14.777  0.00  0.00    +0.000 HD
ATOM     33  H   UNL     1       6.084   3.397  13.557  0.00  0.00    +0.000 HD
ENDBRANCH  28  31
ENDBRANCH  22  28
ENDBRANCH  20  25
ENDBRANCH  18  20
ENDBRANCH   1  18
TORSDOF 11
ENDMDL
MODEL 9
REMARK VINA RESULT:      -6.7      2.969      8.518
REMARK  Name = 
REMARK  11 active torsions:
REMARK  status: ('A' for Active; 'I' for Inactive)
REMARK    1  A    between atoms: N_1  and  S_2
REMARK    2  A    between atoms: S_2  and  C_5
REMARK    3  A    between atoms: C_8  and  N_9
REMARK    4  A    between atoms: N_9  and  C_10
REMARK    5  A    between atoms: C_10  and  N_12
REMARK    6  A    between atoms: N_12  and  C_13
REMARK    7  A    between atoms: C_14  and  O_15
REMARK    8  A    between atoms: C_17  and  C_18
REMARK    9  A    between atoms: C_18  and  O_19
REMARK   10  A    between atoms: C_20  and  O_21
REMARK   11  A    between atoms: C_22  and  O_23
REMARK                            x       y       z     vdW  Elec       q    Type
REMARK                         _______ _______ _______ _____ _____    ______ ____
ROOT
ATOM      1  N   UNL     1       1.544   9.427  19.057  0.00  0.00    +0.000 N 
ATOM      2  H   UNL     1       1.809   9.169  18.111  0.00  0.00    +0.000 HD
ENDROOT
BRANCH   1   3
ATOM      3  C   UNL     1       0.976  10.766  19.261  0.00  0.00    +0.000 C 
ATOM      4  C   UNL     1       1.948  11.889  18.821  0.00  0.00    +0.000 C 
ATOM      5  O   UNL     1       1.381  13.165  19.103  0.00  0.00    +0.000 OA
ATOM      6  C   UNL     1       0.153  13.419  18.399  0.00  0.00    +0.000 C 
ATOM      7  C   UNL     1      -0.914  12.368  18.751  0.00  0.00    +0.000 C 
ATOM      8  C   UNL     1      -0.363  10.946  18.516  0.00  0.00    +0.000 C 
BRANCH   4   9
ATOM      9  O   UNL     1       2.349  11.829  17.459  0.00  0.00    +0.000 OA
ATOM     10  H   UNL     1       2.235  12.695  17.039  0.00  0.00    +0.000 HD
ENDBRANCH   4   9
BRANCH   7  11
ATOM     11  O   UNL     1      -2.112  12.573  17.999  0.00  0.00    +0.000 OA
ATOM     12  H   UNL     1      -2.709  13.161  18.492  0.00  0.00    +0.000 HD
ENDBRANCH   7  11
BRANCH   8  13
ATOM     13  O   UNL     1      -1.307   9.950  18.927  0.00  0.00    +0.000 OA
ATOM     14  H   UNL     1      -1.718   9.558  18.134  0.00  0.00    +0.000 HD
ENDBRANCH   8  13
BRANCH   6  15
ATOM     15  C   UNL     1      -0.289  14.833  18.800  0.00  0.00    +0.000 C 
BRANCH  15  16
ATOM     16  O   UNL     1      -1.435  14.762  19.650  0.00  0.00    +0.000 OA
ATOM     17  H   UNL     1      -1.086  14.783  20.561  0.00  0.00    +0.000 HD
ENDBRANCH  15  16
ENDBRANCH   6  15
ENDBRANCH   1   3
BRANCH   1  18
ATOM     18  C   UNL     1       1.572   8.362  19.916  0.00  0.00    +0.000 C 
ATOM     19  S   UNL     1       1.186   8.695  21.507  0.00  0.00    +0.000 S 
BRANCH  18  20
ATOM     20  N   UNL     1       1.877   7.141  19.364  0.00  0.00    +0.000 N 
ATOM     21  H   UNL     1       1.209   6.408  19.557  0.00  0.00    +0.000 HD
BRANCH  20  25
ATOM     22  C   UNL     1       5.492   5.657  17.780  0.00  0.00    +0.000 A 
ATOM     23  C   UNL     1       5.008   5.170  18.994  0.00  0.00    +0.000 A 
ATOM     24  C   UNL     1       3.806   5.680  19.506  0.00  0.00    +0.000 A 
ATOM     25  C   UNL     1       3.113   6.698  18.834  0.00  0.00    +0.000 A 
ATOM     26  C   UNL     1       3.623   7.178  17.624  0.00  0.00    +0.000 A 
ATOM     27  C   UNL     1       4.816   6.666  17.101  0.00  0.00    +0.000 A 
BRANCH  22  28
ATOM     28  S   UNL     1       6.978   5.010  17.069  0.00  0.00    +0.000 S 
ATOM     29  O   UNL     1       7.795   4.431  18.104  0.00  0.00    +0.000 OA
ATOM     30  O   UNL     1       7.499   5.957  16.105  0.00  0.00    +0.000 OA
BRANCH  28  31
ATOM     31  N   UNL     1       6.375   3.728  16.167  0.00  0.00    +0.000 NA
ATOM     32  H   UNL     1       5.490   3.408  16.580  0.00  0.00    +0.000 HD
ATOM     33  H   UNL     1       7.072   2.992  16.074  0.00  0.00    +0.000 HD
ENDBRANCH  28  31
ENDBRANCH  22  28
ENDBRANCH  20  25
ENDBRANCH  18  20
ENDBRANCH   1  18
TORSDOF 11
ENDMDL
