MODEL 1
REMARK VINA RESULT:      -8.4      0.000      0.000
REMARK  Name = 
REMARK  8 active torsions:
REMARK  status: ('A' for Active; 'I' for Inactive)
REMARK    1  A    between atoms: C_2  and  C_3
REMARK    2  A    between atoms: C_2  and  C_12
REMARK    3  A    between atoms: C_4  and  C_5
REMARK    4  A    between atoms: C_8  and  O_9
REMARK    5  A    between atoms: C_12  and  C_13
REMARK    6  A    between atoms: C_13  and  C_15
REMARK    7  A    between atoms: C_16  and  C_17
REMARK    8  A    between atoms: C_24  and  O_25
REMARK                            x       y       z     vdW  Elec       q    Type
REMARK                         _______ _______ _______ _____ _____    ______ ____
ROOT
ATOM      1  C   UNL     1       1.824   2.547  18.678  0.00  0.00    +0.000 C 
ATOM      2  O   UNL     1       0.726   2.129  18.310  0.00  0.00    +0.000 OA
ENDROOT
BRANCH   1   3
ATOM      3  C   UNL     1       2.716   3.266  17.727  0.00  0.00    +0.000 C 
ATOM      4  C   UNL     1       4.021   3.411  18.010  0.00  0.00    +0.000 C 
BRANCH   4   5
ATOM      5  C   UNL     1       4.990   4.138  17.172  0.00  0.00    +0.000 A 
ATOM      6  C   UNL     1       5.164   3.696  15.847  0.00  0.00    +0.000 A 
ATOM      7  C   UNL     1       6.099   4.309  15.010  0.00  0.00    +0.000 A 
ATOM      8 CL   UNL     1       6.295   3.743  13.395  0.00  0.00    +0.000 Cl
ATOM      9  C   UNL     1       6.881   5.365  15.463  0.00  0.00    +0.000 A 
ATOM     10  C   UNL     1       6.731   5.800  16.777  0.00  0.00    +0.000 A 
ATOM     11 CL   UNL     1       7.713   7.098  17.351  0.00  0.00    +0.000 Cl
ATOM     12  C   UNL     1       5.802   5.187  17.630  0.00  0.00    +0.000 A 
BRANCH  12  13
ATOM     13  O   UNL     1       5.703   5.602  18.938  0.00  0.00    +0.000 OA
ATOM     14  H   UNL     1       5.458   4.828  19.475  0.00  0.00    +0.000 HD
ENDBRANCH  12  13
ENDBRANCH   4   5
ENDBRANCH   1   3
BRANCH   1  15
ATOM     15  C   UNL     1       2.306   2.377  20.097  0.00  0.00    +0.000 C 
BRANCH  15  17
ATOM     16  O   UNL     1       2.003   3.226  22.299  0.00  0.00    +0.000 OA
ATOM     17  C   UNL     1       1.929   3.454  21.089  0.00  0.00    +0.000 C 
BRANCH  17  18
ATOM     18  C   UNL     1       1.545   4.808  20.607  0.00  0.00    +0.000 C 
ATOM     19  C   UNL     1       2.466   5.720  20.262  0.00  0.00    +0.000 C 
BRANCH  19  20
ATOM     20  C   UNL     1       2.025   7.044  19.822  0.00  0.00    +0.000 A 
ATOM     21  C   UNL     1       2.334   7.490  18.531  0.00  0.00    +0.000 A 
ATOM     22  C   UNL     1       2.001   8.787  18.133  0.00  0.00    +0.000 A 
ATOM     23  C   UNL     1       1.357   9.633  19.031  0.00  0.00    +0.000 A 
ATOM     24  C   UNL     1       1.037   9.200  20.314  0.00  0.00    +0.000 A 
ATOM     25  C   UNL     1       1.372   7.905  20.711  0.00  0.00    +0.000 A 
BRANCH  23  26
ATOM     26  O   UNL     1       1.027  10.911  18.691  0.00  0.00    +0.000 OA
ATOM     27  H   UNL     1       1.480  11.138  17.863  0.00  0.00    +0.000 HD
ENDBRANCH  23  26
ENDBRANCH  19  20
ENDBRANCH  17  18
ENDBRANCH  15  17
ENDBRANCH   1  15
TORSDOF 8
ENDMDL
MODEL 2
REMARK VINA RESULT:      -8.0      5.051      7.589
REMARK  Name = 
REMARK  8 active torsions:
REMARK  status: ('A' for Active; 'I' for Inactive)
REMARK    1  A    between atoms: C_2  and  C_3
REMARK    2  A    between atoms: C_2  and  C_12
REMARK    3  A    between atoms: C_4  and  C_5
REMARK    4  A    between atoms: C_8  and  O_9
REMARK    5  A    between atoms: C_12  and  C_13
REMARK    6  A    between atoms: C_13  and  C_15
REMARK    7  A    between atoms: C_16  and  C_17
REMARK    8  A    between atoms: C_24  and  O_25
REMARK                            x       y       z     vdW  Elec       q    Type
REMARK                         _______ _______ _______ _____ _____    ______ ____
ROOT
ATOM      1  C   UNL     1       7.734   7.872  17.906  0.00  0.00    +0.000 C 
ATOM      2  O   UNL     1       8.165   7.067  18.731  0.00  0.00    +0.000 OA
ENDROOT
BRANCH   1   3
ATOM      3  C   UNL     1       8.189   9.291  17.926  0.00  0.00    +0.000 C 
ATOM      4  C   UNL     1       9.131   9.682  18.800  0.00  0.00    +0.000 C 
BRANCH   4   5
ATOM      5  C   UNL     1       9.628  11.061  18.943  0.00  0.00    +0.000 A 
ATOM      6  C   UNL     1      10.185  11.673  17.805  0.00  0.00    +0.000 A 
ATOM      7  C   UNL     1      10.717  12.963  17.879  0.00  0.00    +0.000 A 
ATOM      8 CL   UNL     1      11.396  13.684  16.471  0.00  0.00    +0.000 Cl
ATOM      9  C   UNL     1      10.714  13.669  19.075  0.00  0.00    +0.000 A 
ATOM     10  C   UNL     1      10.182  13.068  20.213  0.00  0.00    +0.000 A 
ATOM     11 CL   UNL     1      10.194  13.935  21.706  0.00  0.00    +0.000 Cl
ATOM     12  C   UNL     1       9.654  11.771  20.154  0.00  0.00    +0.000 A 
BRANCH  12  13
ATOM     13  O   UNL     1       9.176  11.179  21.300  0.00  0.00    +0.000 OA
ATOM     14  H   UNL     1       8.225  11.384  21.363  0.00  0.00    +0.000 HD
ENDBRANCH  12  13
ENDBRANCH   4   5
ENDBRANCH   1   3
BRANCH   1  15
ATOM     15  C   UNL     1       6.756   7.467  16.832  0.00  0.00    +0.000 C 
BRANCH  15  17
ATOM     16  O   UNL     1       7.305   5.316  15.976  0.00  0.00    +0.000 OA
ATOM     17  C   UNL     1       6.512   5.987  16.641  0.00  0.00    +0.000 C 
BRANCH  17  18
ATOM     18  C   UNL     1       5.362   5.330  17.319  0.00  0.00    +0.000 C 
ATOM     19  C   UNL     1       4.229   5.995  17.589  0.00  0.00    +0.000 C 
BRANCH  19  20
ATOM     20  C   UNL     1       3.145   5.300  18.283  0.00  0.00    +0.000 A 
ATOM     21  C   UNL     1       2.824   5.647  19.601  0.00  0.00    +0.000 A 
ATOM     22  C   UNL     1       1.856   4.928  20.305  0.00  0.00    +0.000 A 
ATOM     23  C   UNL     1       1.211   3.862  19.684  0.00  0.00    +0.000 A 
ATOM     24  C   UNL     1       1.514   3.512  18.373  0.00  0.00    +0.000 A 
ATOM     25  C   UNL     1       2.483   4.230  17.670  0.00  0.00    +0.000 A 
BRANCH  23  26
ATOM     26  O   UNL     1       0.271   3.123  20.338  0.00  0.00    +0.000 OA
ATOM     27  H   UNL     1       0.701   2.339  20.718  0.00  0.00    +0.000 HD
ENDBRANCH  23  26
ENDBRANCH  19  20
ENDBRANCH  17  18
ENDBRANCH  15  17
ENDBRANCH   1  15
TORSDOF 8
ENDMDL
MODEL 3
REMARK VINA RESULT:      -7.8      4.738      7.287
REMARK  Name = 
REMARK  8 active torsions:
REMARK  status: ('A' for Active; 'I' for Inactive)
REMARK    1  A    between atoms: C_2  and  C_3
REMARK    2  A    between atoms: C_2  and  C_12
REMARK    3  A    between atoms: C_4  and  C_5
REMARK    4  A    between atoms: C_8  and  O_9
REMARK    5  A    between atoms: C_12  and  C_13
REMARK    6  A    between atoms: C_13  and  C_15
REMARK    7  A    between atoms: C_16  and  C_17
REMARK    8  A    between atoms: C_24  and  O_25
REMARK                            x       y       z     vdW  Elec       q    Type
REMARK                         _______ _______ _______ _____ _____    ______ ____
ROOT
ATOM      1  C   UNL     1       7.776   7.243  17.973  0.00  0.00    +0.000 C 
ATOM      2  O   UNL     1       7.852   6.581  19.007  0.00  0.00    +0.000 OA
ENDROOT
BRANCH   1   3
ATOM      3  C   UNL     1       8.259   8.652  17.940  0.00  0.00    +0.000 C 
ATOM      4  C   UNL     1       8.906   9.165  19.000  0.00  0.00    +0.000 C 
BRANCH   4   5
ATOM      5  C   UNL     1       9.389  10.553  19.102  0.00  0.00    +0.000 A 
ATOM      6  C   UNL     1       9.924  11.142  17.941  0.00  0.00    +0.000 A 
ATOM      7  C   UNL     1      10.442  12.439  17.976  0.00  0.00    +0.000 A 
ATOM      8 CL   UNL     1      11.094  13.133  16.542  0.00  0.00    +0.000 Cl
ATOM      9  C   UNL     1      10.448  13.175  19.155  0.00  0.00    +0.000 A 
ATOM     10  C   UNL     1       9.938  12.597  20.314  0.00  0.00    +0.000 A 
ATOM     11 CL   UNL     1       9.961  13.500  21.785  0.00  0.00    +0.000 Cl
ATOM     12  C   UNL     1       9.424  11.292  20.294  0.00  0.00    +0.000 A 
BRANCH  12  13
ATOM     13  O   UNL     1       8.968  10.724  21.461  0.00  0.00    +0.000 OA
ATOM     14  H   UNL     1       9.459   9.893  21.595  0.00  0.00    +0.000 HD
ENDBRANCH  12  13
ENDBRANCH   4   5
ENDBRANCH   1   3
BRANCH   1  15
ATOM     15  C   UNL     1       7.222   6.665  16.695  0.00  0.00    +0.000 C 
BRANCH  15  17
ATOM     16  O   UNL     1       5.155   7.211  15.650  0.00  0.00    +0.000 OA
ATOM     17  C   UNL     1       5.718   6.597  16.561  0.00  0.00    +0.000 C 
BRANCH  17  18
ATOM     18  C   UNL     1       4.928   5.731  17.477  0.00  0.00    +0.000 C 
ATOM     19  C   UNL     1       3.605   5.888  17.629  0.00  0.00    +0.000 C 
BRANCH  19  20
ATOM     20  C   UNL     1       2.890   5.023  18.567  0.00  0.00    +0.000 A 
ATOM     21  C   UNL     1       1.990   4.063  18.086  0.00  0.00    +0.000 A 
ATOM     22  C   UNL     1       1.233   3.297  18.975  0.00  0.00    +0.000 A 
ATOM     23  C   UNL     1       1.380   3.495  20.345  0.00  0.00    +0.000 A 
ATOM     24  C   UNL     1       2.275   4.438  20.836  0.00  0.00    +0.000 A 
ATOM     25  C   UNL     1       3.032   5.205  19.947  0.00  0.00    +0.000 A 
BRANCH  23  26
ATOM     26  O   UNL     1       0.650   2.781  21.247  0.00  0.00    +0.000 OA
ATOM     27  H   UNL     1      -0.285   3.024  21.153  0.00  0.00    +0.000 HD
ENDBRANCH  23  26
ENDBRANCH  19  20
ENDBRANCH  17  18
ENDBRANCH  15  17
ENDBRANCH   1  15
TORSDOF 8
ENDMDL
MODEL 4
REMARK VINA RESULT:      -7.7      0.571      1.123
REMARK  Name = 
REMARK  8 active torsions:
REMARK  status: ('A' for Active; 'I' for Inactive)
REMARK    1  A    between atoms: C_2  and  C_3
REMARK    2  A    between atoms: C_2  and  C_12
REMARK    3  A    between atoms: C_4  and  C_5
REMARK    4  A    between atoms: C_8  and  O_9
REMARK    5  A    between atoms: C_12  and  C_13
REMARK    6  A    between atoms: C_13  and  C_15
REMARK    7  A    between atoms: C_16  and  C_17
REMARK    8  A    between atoms: C_24  and  O_25
REMARK                            x       y       z     vdW  Elec       q    Type
REMARK                         _______ _______ _______ _____ _____    ______ ____
ROOT
ATOM      1  C   UNL     1       2.665   2.153  19.246  0.00  0.00    +0.000 C 
ATOM      2  O   UNL     1       1.850   1.269  18.990  0.00  0.00    +0.000 OA
ENDROOT
BRANCH   1   3
ATOM      3  C   UNL     1       3.401   2.844  18.150  0.00  0.00    +0.000 C 
ATOM      4  C   UNL     1       4.543   3.498  18.417  0.00  0.00    +0.000 C 
BRANCH   4   5
ATOM      5  C   UNL     1       5.333   4.253  17.428  0.00  0.00    +0.000 A 
ATOM      6  C   UNL     1       5.366   3.761  16.110  0.00  0.00    +0.000 A 
ATOM      7  C   UNL     1       6.131   4.400  15.131  0.00  0.00    +0.000 A 
ATOM      8 CL   UNL     1       6.157   3.772  13.528  0.00  0.00    +0.000 Cl
ATOM      9  C   UNL     1       6.880   5.531  15.435  0.00  0.00    +0.000 A 
ATOM     10  C   UNL     1       6.869   6.017  16.739  0.00  0.00    +0.000 A 
ATOM     11 CL   UNL     1       7.813   7.410  17.125  0.00  0.00    +0.000 Cl
ATOM     12  C   UNL     1       6.113   5.379  17.733  0.00  0.00    +0.000 A 
BRANCH  12  13
ATOM     13  O   UNL     1       6.154   5.850  19.025  0.00  0.00    +0.000 OA
ATOM     14  H   UNL     1       6.004   6.812  18.992  0.00  0.00    +0.000 HD
ENDBRANCH  12  13
ENDBRANCH   4   5
ENDBRANCH   1   3
BRANCH   1  15
ATOM     15  C   UNL     1       2.943   2.597  20.661  0.00  0.00    +0.000 C 
BRANCH  15  17
ATOM     16  O   UNL     1       1.313   3.033  22.339  0.00  0.00    +0.000 OA
ATOM     17  C   UNL     1       1.895   3.453  21.336  0.00  0.00    +0.000 C 
BRANCH  17  18
ATOM     18  C   UNL     1       1.625   4.828  20.836  0.00  0.00    +0.000 C 
ATOM     19  C   UNL     1       2.551   5.528  20.163  0.00  0.00    +0.000 C 
BRANCH  19  20
ATOM     20  C   UNL     1       2.233   6.887  19.723  0.00  0.00    +0.000 A 
ATOM     21  C   UNL     1       1.529   7.749  20.572  0.00  0.00    +0.000 A 
ATOM     22  C   UNL     1       1.139   9.015  20.127  0.00  0.00    +0.000 A 
ATOM     23  C   UNL     1       1.457   9.412  18.832  0.00  0.00    +0.000 A 
ATOM     24  C   UNL     1       2.163   8.568  17.981  0.00  0.00    +0.000 A 
ATOM     25  C   UNL     1       2.552   7.303  18.425  0.00  0.00    +0.000 A 
BRANCH  23  26
ATOM     26  O   UNL     1       1.083  10.630  18.351  0.00  0.00    +0.000 OA
ATOM     27  H   UNL     1       0.888  11.215  19.102  0.00  0.00    +0.000 HD
ENDBRANCH  23  26
ENDBRANCH  19  20
ENDBRANCH  17  18
ENDBRANCH  15  17
ENDBRANCH   1  15
TORSDOF 8
ENDMDL
MODEL 5
REMARK VINA RESULT:      -7.7      5.154      7.512
REMARK  Name = 
REMARK  8 active torsions:
REMARK  status: ('A' for Active; 'I' for Inactive)
REMARK    1  A    between atoms: C_2  and  C_3
REMARK    2  A    between atoms: C_2  and  C_12
REMARK    3  A    between atoms: C_4  and  C_5
REMARK    4  A    between atoms: C_8  and  O_9
REMARK    5  A    between atoms: C_12  and  C_13
REMARK    6  A    between atoms: C_13  and  C_15
REMARK    7  A    between atoms: C_16  and  C_17
REMARK    8  A    between atoms: C_24  and  O_25
REMARK                            x       y       z     vdW  Elec       q    Type
REMARK                         _______ _______ _______ _____ _____    ______ ____
ROOT
ATOM      1  C   UNL     1       7.454   4.967  17.786  0.00  0.00    +0.000 C 
ATOM      2  O   UNL     1       8.151   4.224  17.098  0.00  0.00    +0.000 OA
ENDROOT
BRANCH   1   3
ATOM      3  C   UNL     1       5.994   4.709  17.937  0.00  0.00    +0.000 C 
ATOM      4  C   UNL     1       5.385   4.959  19.107  0.00  0.00    +0.000 C 
BRANCH   4   5
ATOM      5  C   UNL     1       3.962   4.703  19.389  0.00  0.00    +0.000 A 
ATOM      6  C   UNL     1       3.216   5.747  19.968  0.00  0.00    +0.000 A 
ATOM      7  C   UNL     1       1.873   5.559  20.304  0.00  0.00    +0.000 A 
ATOM      8 CL   UNL     1       0.986   6.852  21.017  0.00  0.00    +0.000 Cl
ATOM      9  C   UNL     1       1.244   4.341  20.081  0.00  0.00    +0.000 A 
ATOM     10  C   UNL     1       1.975   3.295  19.525  0.00  0.00    +0.000 A 
ATOM     11 CL   UNL     1       1.203   1.774  19.263  0.00  0.00    +0.000 Cl
ATOM     12  C   UNL     1       3.326   3.468  19.191  0.00  0.00    +0.000 A 
BRANCH  12  13
ATOM     13  O   UNL     1       4.042   2.407  18.686  0.00  0.00    +0.000 OA
ATOM     14  H   UNL     1       4.125   2.540  17.724  0.00  0.00    +0.000 HD
ENDBRANCH  12  13
ENDBRANCH   4   5
ENDBRANCH   1   3
BRANCH   1  15
ATOM     15  C   UNL     1       8.034   6.148  18.524  0.00  0.00    +0.000 C 
BRANCH  15  17
ATOM     16  O   UNL     1       7.269   7.620  16.819  0.00  0.00    +0.000 OA
ATOM     17  C   UNL     1       7.903   7.505  17.871  0.00  0.00    +0.000 C 
BRANCH  17  18
ATOM     18  C   UNL     1       8.471   8.708  18.536  0.00  0.00    +0.000 C 
ATOM     19  C   UNL     1       8.599   9.876  17.890  0.00  0.00    +0.000 C 
BRANCH  19  20
ATOM     20  C   UNL     1       9.192  11.015  18.591  0.00  0.00    +0.000 A 
ATOM     21  C   UNL     1       9.133  12.294  18.022  0.00  0.00    +0.000 A 
ATOM     22  C   UNL     1       9.776  13.371  18.636  0.00  0.00    +0.000 A 
ATOM     23  C   UNL     1      10.478  13.162  19.820  0.00  0.00    +0.000 A 
ATOM     24  C   UNL     1      10.538  11.900  20.400  0.00  0.00    +0.000 A 
ATOM     25  C   UNL     1       9.895  10.823  19.785  0.00  0.00    +0.000 A 
BRANCH  23  26
ATOM     26  O   UNL     1      11.134  14.180  20.445  0.00  0.00    +0.000 OA
ATOM     27  H   UNL     1      10.540  14.947  20.496  0.00  0.00    +0.000 HD
ENDBRANCH  23  26
ENDBRANCH  19  20
ENDBRANCH  17  18
ENDBRANCH  15  17
ENDBRANCH   1  15
TORSDOF 8
ENDMDL
MODEL 6
REMARK VINA RESULT:      -7.6      4.781      7.481
REMARK  Name = 
REMARK  8 active torsions:
REMARK  status: ('A' for Active; 'I' for Inactive)
REMARK    1  A    between atoms: C_2  and  C_3
REMARK    2  A    between atoms: C_2  and  C_12
REMARK    3  A    between atoms: C_4  and  C_5
REMARK    4  A    between atoms: C_8  and  O_9
REMARK    5  A    between atoms: C_12  and  C_13
REMARK    6  A    between atoms: C_13  and  C_15
REMARK    7  A    between atoms: C_16  and  C_17
REMARK    8  A    between atoms: C_24  and  O_25
REMARK                            x       y       z     vdW  Elec       q    Type
REMARK                         _______ _______ _______ _____ _____    ______ ____
ROOT
ATOM      1  C   UNL     1       7.968   7.309  18.299  0.00  0.00    +0.000 C 
ATOM      2  O   UNL     1       8.168   6.290  18.958  0.00  0.00    +0.000 OA
ENDROOT
BRANCH   1   3
ATOM      3  C   UNL     1       8.669   8.579  18.640  0.00  0.00    +0.000 C 
ATOM      4  C   UNL     1       8.379   9.706  17.969  0.00  0.00    +0.000 C 
BRANCH   4   5
ATOM      5  C   UNL     1       9.035  11.008  18.185  0.00  0.00    +0.000 A 
ATOM      6  C   UNL     1      10.205  11.024  18.967  0.00  0.00    +0.000 A 
ATOM      7  C   UNL     1      10.854  12.229  19.251  0.00  0.00    +0.000 A 
ATOM      8 CL   UNL     1      12.280  12.219  20.215  0.00  0.00    +0.000 Cl
ATOM      9  C   UNL     1      10.359  13.437  18.775  0.00  0.00    +0.000 A 
ATOM     10  C   UNL     1       9.192  13.436  18.015  0.00  0.00    +0.000 A 
ATOM     11 CL   UNL     1       8.564  14.936  17.437  0.00  0.00    +0.000 Cl
ATOM     12  C   UNL     1       8.527  12.235  17.731  0.00  0.00    +0.000 A 
BRANCH  12  13
ATOM     13  O   UNL     1       7.351  12.262  17.017  0.00  0.00    +0.000 OA
ATOM     14  H   UNL     1       7.213  11.373  16.644  0.00  0.00    +0.000 HD
ENDBRANCH  12  13
ENDBRANCH   4   5
ENDBRANCH   1   3
BRANCH   1  15
ATOM     15  C   UNL     1       7.036   7.323  17.113  0.00  0.00    +0.000 C 
BRANCH  15  17
ATOM     16  O   UNL     1       7.119   5.423  15.683  0.00  0.00    +0.000 OA
ATOM     17  C   UNL     1       6.535   5.987  16.611  0.00  0.00    +0.000 C 
BRANCH  17  18
ATOM     18  C   UNL     1       5.391   5.320  17.288  0.00  0.00    +0.000 C 
ATOM     19  C   UNL     1       4.230   5.958  17.503  0.00  0.00    +0.000 C 
BRANCH  19  20
ATOM     20  C   UNL     1       3.152   5.257  18.200  0.00  0.00    +0.000 A 
ATOM     21  C   UNL     1       2.749   5.682  19.472  0.00  0.00    +0.000 A 
ATOM     22  C   UNL     1       1.787   4.963  20.185  0.00  0.00    +0.000 A 
ATOM     23  C   UNL     1       1.230   3.820  19.620  0.00  0.00    +0.000 A 
ATOM     24  C   UNL     1       1.615   3.391  18.354  0.00  0.00    +0.000 A 
ATOM     25  C   UNL     1       2.578   4.109  17.642  0.00  0.00    +0.000 A 
BRANCH  23  26
ATOM     26  O   UNL     1       0.300   3.079  20.285  0.00  0.00    +0.000 OA
ATOM     27  H   UNL     1       0.399   2.149  20.025  0.00  0.00    +0.000 HD
ENDBRANCH  23  26
ENDBRANCH  19  20
ENDBRANCH  17  18
ENDBRANCH  15  17
ENDBRANCH   1  15
TORSDOF 8
ENDMDL
MODEL 7
REMARK VINA RESULT:      -7.6      5.223      7.637
REMARK  Name = 
REMARK  8 active torsions:
REMARK  status: ('A' for Active; 'I' for Inactive)
REMARK    1  A    between atoms: C_2  and  C_3
REMARK    2  A    between atoms: C_2  and  C_12
REMARK    3  A    between atoms: C_4  and  C_5
REMARK    4  A    between atoms: C_8  and  O_9
REMARK    5  A    between atoms: C_12  and  C_13
REMARK    6  A    between atoms: C_13  and  C_15
REMARK    7  A    between atoms: C_16  and  C_17
REMARK    8  A    between atoms: C_24  and  O_25
REMARK                            x       y       z     vdW  Elec       q    Type
REMARK                         _______ _______ _______ _____ _____    ______ ____
ROOT
ATOM      1  C   UNL     1       7.306   5.161  18.018  0.00  0.00    +0.000 C 
ATOM      2  O   UNL     1       7.755   4.553  17.048  0.00  0.00    +0.000 OA
ENDROOT
BRANCH   1   3
ATOM      3  C   UNL     1       6.012   4.752  18.633  0.00  0.00    +0.000 C 
ATOM      4  C   UNL     1       4.860   5.279  18.185  0.00  0.00    +0.000 C 
BRANCH   4   5
ATOM      5  C   UNL     1       3.527   4.987  18.741  0.00  0.00    +0.000 A 
ATOM      6  C   UNL     1       2.969   5.933  19.621  0.00  0.00    +0.000 A 
ATOM      7  C   UNL     1       1.729   5.701  20.221  0.00  0.00    +0.000 A 
ATOM      8 CL   UNL     1       1.072   6.873  21.298  0.00  0.00    +0.000 Cl
ATOM      9  C   UNL     1       1.021   4.532  19.970  0.00  0.00    +0.000 A 
ATOM     10  C   UNL     1       1.571   3.580  19.115  0.00  0.00    +0.000 A 
ATOM     11 CL   UNL     1       0.704   2.119  18.814  0.00  0.00    +0.000 Cl
ATOM     12  C   UNL     1       2.819   3.798  18.514  0.00  0.00    +0.000 A 
BRANCH  12  13
ATOM     13  O   UNL     1       3.364   2.824  17.709  0.00  0.00    +0.000 OA
ATOM     14  H   UNL     1       4.284   3.082  17.518  0.00  0.00    +0.000 HD
ENDBRANCH  12  13
ENDBRANCH   4   5
ENDBRANCH   1   3
BRANCH   1  15
ATOM     15  C   UNL     1       8.042   6.319  18.644  0.00  0.00    +0.000 C 
BRANCH  15  17
ATOM     16  O   UNL     1       7.189   7.797  16.986  0.00  0.00    +0.000 OA
ATOM     17  C   UNL     1       7.956   7.655  17.941  0.00  0.00    +0.000 C 
BRANCH  17  18
ATOM     18  C   UNL     1       8.738   8.814  18.450  0.00  0.00    +0.000 C 
ATOM     19  C   UNL     1       8.457  10.071  18.077  0.00  0.00    +0.000 C 
BRANCH  19  20
ATOM     20  C   UNL     1       9.282  11.166  18.590  0.00  0.00    +0.000 A 
ATOM     21  C   UNL     1       9.906  11.044  19.838  0.00  0.00    +0.000 A 
ATOM     22  C   UNL     1      10.617  12.117  20.380  0.00  0.00    +0.000 A 
ATOM     23  C   UNL     1      10.700  13.311  19.668  0.00  0.00    +0.000 A 
ATOM     24  C   UNL     1      10.092  13.442  18.424  0.00  0.00    +0.000 A 
ATOM     25  C   UNL     1       9.380  12.369  17.884  0.00  0.00    +0.000 A 
BRANCH  23  26
ATOM     26  O   UNL     1      11.370  14.388  20.164  0.00  0.00    +0.000 OA
ATOM     27  H   UNL     1      11.981  14.715  19.484  0.00  0.00    +0.000 HD
ENDBRANCH  23  26
ENDBRANCH  19  20
ENDBRANCH  17  18
ENDBRANCH  15  17
ENDBRANCH   1  15
TORSDOF 8
ENDMDL
MODEL 8
REMARK VINA RESULT:      -7.6      2.835      6.128
REMARK  Name = 
REMARK  8 active torsions:
REMARK  status: ('A' for Active; 'I' for Inactive)
REMARK    1  A    between atoms: C_2  and  C_3
REMARK    2  A    between atoms: C_2  and  C_12
REMARK    3  A    between atoms: C_4  and  C_5
REMARK    4  A    between atoms: C_8  and  O_9
REMARK    5  A    between atoms: C_12  and  C_13
REMARK    6  A    between atoms: C_13  and  C_15
REMARK    7  A    between atoms: C_16  and  C_17
REMARK    8  A    between atoms: C_24  and  O_25
REMARK                            x       y       z     vdW  Elec       q    Type
REMARK                         _______ _______ _______ _____ _____    ______ ____
ROOT
ATOM      1  C   UNL     1       1.845   3.425  20.927  0.00  0.00    +0.000 C 
ATOM      2  O   UNL     1       2.243   3.175  22.064  0.00  0.00    +0.000 OA
ENDROOT
BRANCH   1   3
ATOM      3  C   UNL     1       1.333   4.782  20.586  0.00  0.00    +0.000 C 
ATOM      4  C   UNL     1       2.106   5.861  20.790  0.00  0.00    +0.000 C 
BRANCH   4   5
ATOM      5  C   UNL     1       1.695   7.253  20.535  0.00  0.00    +0.000 A 
ATOM      6  C   UNL     1       0.941   7.901  21.531  0.00  0.00    +0.000 A 
ATOM      7  C   UNL     1       0.479   9.205  21.338  0.00  0.00    +0.000 A 
ATOM      8 CL   UNL     1      -0.445   9.972  22.571  0.00  0.00    +0.000 Cl
ATOM      9  C   UNL     1       0.746   9.890  20.158  0.00  0.00    +0.000 A 
ATOM     10  C   UNL     1       1.475   9.253  19.158  0.00  0.00    +0.000 A 
ATOM     11 CL   UNL     1       1.793  10.094  17.684  0.00  0.00    +0.000 Cl
ATOM     12  C   UNL     1       1.937   7.941  19.337  0.00  0.00    +0.000 A 
BRANCH  12  13
ATOM     13  O   UNL     1       2.616   7.315  18.317  0.00  0.00    +0.000 OA
ATOM     14  H   UNL     1       2.519   6.354  18.445  0.00  0.00    +0.000 HD
ENDBRANCH  12  13
ENDBRANCH   4   5
ENDBRANCH   1   3
BRANCH   1  15
ATOM     15  C   UNL     1       1.876   2.393  19.827  0.00  0.00    +0.000 C 
BRANCH  15  17
ATOM     16  O   UNL     1       3.448   1.102  18.594  0.00  0.00    +0.000 OA
ATOM     17  C   UNL     1       3.187   2.196  19.100  0.00  0.00    +0.000 C 
BRANCH  17  18
ATOM     18  C   UNL     1       4.122   3.340  18.931  0.00  0.00    +0.000 C 
ATOM     19  C   UNL     1       4.518   3.753  17.717  0.00  0.00    +0.000 C 
BRANCH  19  20
ATOM     20  C   UNL     1       5.462   4.866  17.618  0.00  0.00    +0.000 A 
ATOM     21  C   UNL     1       6.553   4.937  18.493  0.00  0.00    +0.000 A 
ATOM     22  C   UNL     1       7.406   6.043  18.470  0.00  0.00    +0.000 A 
ATOM     23  C   UNL     1       7.162   7.075  17.569  0.00  0.00    +0.000 A 
ATOM     24  C   UNL     1       6.087   7.014  16.689  0.00  0.00    +0.000 A 
ATOM     25  C   UNL     1       5.234   5.909  16.713  0.00  0.00    +0.000 A 
BRANCH  23  26
ATOM     26  O   UNL     1       7.959   8.180  17.522  0.00  0.00    +0.000 OA
ATOM     27  H   UNL     1       8.346   8.246  16.634  0.00  0.00    +0.000 HD
ENDBRANCH  23  26
ENDBRANCH  19  20
ENDBRANCH  17  18
ENDBRANCH  15  17
ENDBRANCH   1  15
TORSDOF 8
ENDMDL
MODEL 9
REMARK VINA RESULT:      -7.5      5.027      7.864
REMARK  Name = 
REMARK  8 active torsions:
REMARK  status: ('A' for Active; 'I' for Inactive)
REMARK    1  A    between atoms: C_2  and  C_3
REMARK    2  A    between atoms: C_2  and  C_12
REMARK    3  A    between atoms: C_4  and  C_5
REMARK    4  A    between atoms: C_8  and  O_9
REMARK    5  A    between atoms: C_12  and  C_13
REMARK    6  A    between atoms: C_13  and  C_15
REMARK    7  A    between atoms: C_16  and  C_17
REMARK    8  A    between atoms: C_24  and  O_25
REMARK                            x       y       z     vdW  Elec       q    Type
REMARK                         _______ _______ _______ _____ _____    ______ ____
ROOT
ATOM      1  C   UNL     1       8.015   7.669  18.129  0.00  0.00    +0.000 C 
ATOM      2  O   UNL     1       8.308   6.822  18.972  0.00  0.00    +0.000 OA
ENDROOT
BRANCH   1   3
ATOM      3  C   UNL     1       8.785   8.941  18.037  0.00  0.00    +0.000 C 
ATOM      4  C   UNL     1       8.686   9.857  19.014  0.00  0.00    +0.000 C 
BRANCH   4   5
ATOM      5  C   UNL     1       9.362  11.167  19.014  0.00  0.00    +0.000 A 
ATOM      6  C   UNL     1      10.020  11.558  17.833  0.00  0.00    +0.000 A 
ATOM      7  C   UNL     1      10.719  12.766  17.775  0.00  0.00    +0.000 A 
ATOM      8 CL   UNL     1      11.519  13.217  16.319  0.00  0.00    +0.000 Cl
ATOM      9  C   UNL     1      10.788  13.606  18.880  0.00  0.00    +0.000 A 
ATOM     10  C   UNL     1      10.156  13.222  20.060  0.00  0.00    +0.000 A 
ATOM     11 CL   UNL     1      10.254  14.252  21.441  0.00  0.00    +0.000 Cl
ATOM     12  C   UNL     1       9.458  12.007  20.133  0.00  0.00    +0.000 A 
BRANCH  12  13
ATOM     13  O   UNL     1       8.881  11.626  21.322  0.00  0.00    +0.000 OA
ATOM     14  H   UNL     1       9.339  12.103  22.038  0.00  0.00    +0.000 HD
ENDBRANCH  12  13
ENDBRANCH   4   5
ENDBRANCH   1   3
BRANCH   1  15
ATOM     15  C   UNL     1       6.894   7.459  17.143  0.00  0.00    +0.000 C 
BRANCH  15  17
ATOM     16  O   UNL     1       7.567   5.777  15.600  0.00  0.00    +0.000 OA
ATOM     17  C   UNL     1       6.785   6.095  16.500  0.00  0.00    +0.000 C 
BRANCH  17  18
ATOM     18  C   UNL     1       5.789   5.112  17.005  0.00  0.00    +0.000 C 
ATOM     19  C   UNL     1       4.471   5.357  16.960  0.00  0.00    +0.000 C 
BRANCH  19  20
ATOM     20  C   UNL     1       3.544   4.362  17.499  0.00  0.00    +0.000 A 
ATOM     21  C   UNL     1       3.950   3.028  17.632  0.00  0.00    +0.000 A 
ATOM     22  C   UNL     1       3.045   2.053  18.056  0.00  0.00    +0.000 A 
ATOM     23  C   UNL     1       1.733   2.419  18.347  0.00  0.00    +0.000 A 
ATOM     24  C   UNL     1       1.319   3.741  18.227  0.00  0.00    +0.000 A 
ATOM     25  C   UNL     1       2.224   4.715  17.802  0.00  0.00    +0.000 A 
BRANCH  23  26
ATOM     26  O   UNL     1       0.812   1.498  18.749  0.00  0.00    +0.000 OA
ATOM     27  H   UNL     1       0.466   1.042  17.964  0.00  0.00    +0.000 HD
ENDBRANCH  23  26
ENDBRANCH  19  20
ENDBRANCH  17  18
ENDBRANCH  15  17
ENDBRANCH   1  15
TORSDOF 8
ENDMDL
