MODEL 1
REMARK VINA RESULT:      -7.8      0.000      0.000
REMARK  Name = 
REMARK  14 active torsions:
REMARK  status: ('A' for Active; 'I' for Inactive)
REMARK    1  A    between atoms: C_1  and  C_2
REMARK    2  A    between atoms: C_2  and  C_3
REMARK    3  A    between atoms: C_3  and  C_4
REMARK    4  A    between atoms: C_4  and  C_5
REMARK    5  A    between atoms: C_5  and  C_6
REMARK    6  A    between atoms: C_6  and  C_7
REMARK    7  A    between atoms: C_7  and  C_8
REMARK    8  A    between atoms: C_8  and  C_9
REMARK    9  A    between atoms: C_9  and  C_10
REMARK   10  A    between atoms: C_10  and  C_11
REMARK   11  A    between atoms: C_15  and  C_16
REMARK   12  A    between atoms: C_19  and  C_20
REMARK   13  A    between atoms: C_22  and  C_23
REMARK   14  A    between atoms: C_24  and  O_25
REMARK                            x       y       z     vdW  Elec       q    Type
REMARK                         _______ _______ _______ _____ _____    ______ ____
ROOT
ATOM      1  C   UNL     1       6.615   5.401  17.051  0.00  0.00    +0.000 A 
ATOM      2  N   UNL     1       5.557   5.041  17.807  0.00  0.00    +0.000 NA
ATOM      3  C   UNL     1       4.582   4.330  17.227  0.00  0.00    +0.000 A 
ATOM      4  N   UNL     1       3.470   4.036  17.947  0.00  0.00    +0.000 N 
ATOM      5  C   UNL     1       2.723   2.812  17.737  0.00  0.00    +0.000 C 
ATOM      6  C   UNL     1       3.299   1.680  18.592  0.00  0.00    +0.000 C 
ATOM      7  C   UNL     1       1.334   3.230  18.218  0.00  0.00    +0.000 C 
ATOM      8  C   UNL     1       1.610   4.175  19.389  0.00  0.00    +0.000 C 
ATOM      9  C   UNL     1       3.013   4.774  19.120  0.00  0.00    +0.000 C 
ATOM     10  C   UNL     1       2.917   6.279  18.893  0.00  0.00    +0.000 C 
ATOM     11  N   UNL     1       4.621   3.960  15.935  0.00  0.00    +0.000 NA
ATOM     12  C   UNL     1       5.655   4.387  15.172  0.00  0.00    +0.000 A 
ATOM     13  C   UNL     1       5.571   4.066  13.712  0.00  0.00    +0.000 C 
ATOM     14  C   UNL     1       6.705   5.110  15.705  0.00  0.00    +0.000 A 
ENDROOT
BRANCH  14  15
ATOM     15  O   UNL     1       7.776   5.543  14.984  0.00  0.00    +0.000 OA
ATOM     16  H   UNL     1       7.617   5.413  14.037  0.00  0.00    +0.000 HD
ENDBRANCH  14  15
BRANCH   1  17
ATOM     17  C   UNL     1       7.692   6.177  17.754  0.00  0.00    +0.000 C 
BRANCH  17  18
ATOM     18  C   UNL     1       7.500   7.686  17.584  0.00  0.00    +0.000 C 
BRANCH  18  19
ATOM     19  C   UNL     1       8.467   8.499  18.446  0.00  0.00    +0.000 C 
BRANCH  19  20
ATOM     20  C   UNL     1       8.619   9.931  17.937  0.00  0.00    +0.000 C 
BRANCH  20  21
ATOM     21  C   UNL     1       9.374  10.812  18.924  0.00  0.00    +0.000 C 
BRANCH  21  22
ATOM     22  C   UNL     1      10.417  11.642  18.177  0.00  0.00    +0.000 C 
BRANCH  22  23
ATOM     23  C   UNL     1      11.777  11.554  18.855  0.00  0.00    +0.000 C 
BRANCH  23  24
ATOM     24  C   UNL     1      12.008  12.758  19.765  0.00  0.00    +0.000 C 
BRANCH  24  26
ATOM     25  C   UNL     1      11.768  15.249  19.994  0.00  0.00    +0.000 C 
ATOM     26  C   UNL     1      11.528  14.044  19.100  0.00  0.00    +0.000 C 
ENDBRANCH  24  26
ENDBRANCH  23  24
ENDBRANCH  22  23
ENDBRANCH  21  22
ENDBRANCH  20  21
ENDBRANCH  19  20
ENDBRANCH  18  19
ENDBRANCH  17  18
ENDBRANCH   1  17
TORSDOF 10
ENDMDL
MODEL 2
REMARK VINA RESULT:      -7.7      1.004      1.110
REMARK  Name = 
REMARK  14 active torsions:
REMARK  status: ('A' for Active; 'I' for Inactive)
REMARK    1  A    between atoms: C_1  and  C_2
REMARK    2  A    between atoms: C_2  and  C_3
REMARK    3  A    between atoms: C_3  and  C_4
REMARK    4  A    between atoms: C_4  and  C_5
REMARK    5  A    between atoms: C_5  and  C_6
REMARK    6  A    between atoms: C_6  and  C_7
REMARK    7  A    between atoms: C_7  and  C_8
REMARK    8  A    between atoms: C_8  and  C_9
REMARK    9  A    between atoms: C_9  and  C_10
REMARK   10  A    between atoms: C_10  and  C_11
REMARK   11  A    between atoms: C_15  and  C_16
REMARK   12  A    between atoms: C_19  and  C_20
REMARK   13  A    between atoms: C_22  and  C_23
REMARK   14  A    between atoms: C_24  and  O_25
REMARK                            x       y       z     vdW  Elec       q    Type
REMARK                         _______ _______ _______ _____ _____    ______ ____
ROOT
ATOM      1  C   UNL     1       6.508   5.516  17.370  0.00  0.00    +0.000 A 
ATOM      2  N   UNL     1       5.441   5.133  18.101  0.00  0.00    +0.000 NA
ATOM      3  C   UNL     1       4.490   4.410  17.496  0.00  0.00    +0.000 A 
ATOM      4  N   UNL     1       3.368   4.092  18.190  0.00  0.00    +0.000 N 
ATOM      5  C   UNL     1       2.647   2.858  17.955  0.00  0.00    +0.000 C 
ATOM      6  C   UNL     1       3.224   1.729  18.814  0.00  0.00    +0.000 C 
ATOM      7  C   UNL     1       1.241   3.249  18.410  0.00  0.00    +0.000 C 
ATOM      8  C   UNL     1       1.477   4.189  19.594  0.00  0.00    +0.000 C 
ATOM      9  C   UNL     1       2.875   4.813  19.359  0.00  0.00    +0.000 C 
ATOM     10  C   UNL     1       2.759   6.319  19.141  0.00  0.00    +0.000 C 
ATOM     11  N   UNL     1       4.562   4.051  16.202  0.00  0.00    +0.000 NA
ATOM     12  C   UNL     1       5.605   4.501  15.464  0.00  0.00    +0.000 A 
ATOM     13  C   UNL     1       5.556   4.190  14.000  0.00  0.00    +0.000 C 
ATOM     14  C   UNL     1       6.631   5.237  16.025  0.00  0.00    +0.000 A 
ENDROOT
BRANCH  14  15
ATOM     15  O   UNL     1       7.709   5.694  15.328  0.00  0.00    +0.000 OA
ATOM     16  H   UNL     1       7.769   6.658  15.398  0.00  0.00    +0.000 HD
ENDBRANCH  14  15
BRANCH   1  17
ATOM     17  C   UNL     1       7.557   6.305  18.101  0.00  0.00    +0.000 C 
BRANCH  17  18
ATOM     18  C   UNL     1       7.577   7.767  17.651  0.00  0.00    +0.000 C 
BRANCH  18  19
ATOM     19  C   UNL     1       8.550   8.618  18.469  0.00  0.00    +0.000 C 
BRANCH  19  20
ATOM     20  C   UNL     1       8.456  10.099  18.109  0.00  0.00    +0.000 C 
BRANCH  20  21
ATOM     21  C   UNL     1       9.552  10.921  18.774  0.00  0.00    +0.000 C 
BRANCH  21  22
ATOM     22  C   UNL     1      10.506  11.462  17.711  0.00  0.00    +0.000 C 
BRANCH  22  23
ATOM     23  C   UNL     1      10.382  12.974  17.581  0.00  0.00    +0.000 C 
BRANCH  23  24
ATOM     24  C   UNL     1      11.576  13.551  16.823  0.00  0.00    +0.000 C 
BRANCH  24  26
ATOM     25  C   UNL     1      10.435  15.728  17.347  0.00  0.00    +0.000 C 
ATOM     26  C   UNL     1      11.770  15.028  17.155  0.00  0.00    +0.000 C 
ENDBRANCH  24  26
ENDBRANCH  23  24
ENDBRANCH  22  23
ENDBRANCH  21  22
ENDBRANCH  20  21
ENDBRANCH  19  20
ENDBRANCH  18  19
ENDBRANCH  17  18
ENDBRANCH   1  17
TORSDOF 10
ENDMDL
MODEL 3
REMARK VINA RESULT:      -7.7      1.619      1.993
REMARK  Name = 
REMARK  14 active torsions:
REMARK  status: ('A' for Active; 'I' for Inactive)
REMARK    1  A    between atoms: C_1  and  C_2
REMARK    2  A    between atoms: C_2  and  C_3
REMARK    3  A    between atoms: C_3  and  C_4
REMARK    4  A    between atoms: C_4  and  C_5
REMARK    5  A    between atoms: C_5  and  C_6
REMARK    6  A    between atoms: C_6  and  C_7
REMARK    7  A    between atoms: C_7  and  C_8
REMARK    8  A    between atoms: C_8  and  C_9
REMARK    9  A    between atoms: C_9  and  C_10
REMARK   10  A    between atoms: C_10  and  C_11
REMARK   11  A    between atoms: C_15  and  C_16
REMARK   12  A    between atoms: C_19  and  C_20
REMARK   13  A    between atoms: C_22  and  C_23
REMARK   14  A    between atoms: C_24  and  O_25
REMARK                            x       y       z     vdW  Elec       q    Type
REMARK                         _______ _______ _______ _____ _____    ______ ____
ROOT
ATOM      1  C   UNL     1       6.548   5.526  17.310  0.00  0.00    +0.000 A 
ATOM      2  N   UNL     1       5.490   5.150  18.056  0.00  0.00    +0.000 NA
ATOM      3  C   UNL     1       4.525   4.435  17.464  0.00  0.00    +0.000 A 
ATOM      4  N   UNL     1       3.411   4.123  18.175  0.00  0.00    +0.000 N 
ATOM      5  C   UNL     1       2.677   2.894  17.949  0.00  0.00    +0.000 C 
ATOM      6  C   UNL     1       3.259   1.760  18.797  0.00  0.00    +0.000 C 
ATOM      7  C   UNL     1       1.281   3.295  18.425  0.00  0.00    +0.000 C 
ATOM      8  C   UNL     1       1.542   4.232  19.607  0.00  0.00    +0.000 C 
ATOM      9  C   UNL     1       2.941   4.846  19.352  0.00  0.00    +0.000 C 
ATOM     10  C   UNL     1       2.832   6.353  19.138  0.00  0.00    +0.000 C 
ATOM     11  N   UNL     1       4.574   4.077  16.168  0.00  0.00    +0.000 NA
ATOM     12  C   UNL     1       5.609   4.520  15.416  0.00  0.00    +0.000 A 
ATOM     13  C   UNL     1       5.537   4.212  13.953  0.00  0.00    +0.000 C 
ATOM     14  C   UNL     1       6.649   5.248  15.962  0.00  0.00    +0.000 A 
ENDROOT
BRANCH  14  15
ATOM     15  O   UNL     1       7.720   5.698  15.250  0.00  0.00    +0.000 OA
ATOM     16  H   UNL     1       8.543   5.504  15.724  0.00  0.00    +0.000 HD
ENDBRANCH  14  15
BRANCH   1  17
ATOM     17  C   UNL     1       7.614   6.306  18.026  0.00  0.00    +0.000 C 
BRANCH  17  18
ATOM     18  C   UNL     1       7.523   7.801  17.713  0.00  0.00    +0.000 C 
BRANCH  18  19
ATOM     19  C   UNL     1       8.537   8.628  18.506  0.00  0.00    +0.000 C 
BRANCH  19  20
ATOM     20  C   UNL     1       8.469  10.111  18.149  0.00  0.00    +0.000 C 
BRANCH  20  21
ATOM     21  C   UNL     1       9.712  10.866  18.600  0.00  0.00    +0.000 C 
BRANCH  21  22
ATOM     22  C   UNL     1       9.686  11.037  20.118  0.00  0.00    +0.000 C 
BRANCH  22  23
ATOM     23  C   UNL     1       9.371  12.476  20.503  0.00  0.00    +0.000 C 
BRANCH  23  24
ATOM     24  C   UNL     1       9.277  12.623  22.020  0.00  0.00    +0.000 C 
BRANCH  24  26
ATOM     25  C   UNL     1       8.127  11.618  24.015  0.00  0.00    +0.000 C 
ATOM     26  C   UNL     1       7.992  11.995  22.549  0.00  0.00    +0.000 C 
ENDBRANCH  24  26
ENDBRANCH  23  24
ENDBRANCH  22  23
ENDBRANCH  21  22
ENDBRANCH  20  21
ENDBRANCH  19  20
ENDBRANCH  18  19
ENDBRANCH  17  18
ENDBRANCH   1  17
TORSDOF 10
ENDMDL
MODEL 4
REMARK VINA RESULT:      -7.7      4.378      8.078
REMARK  Name = 
REMARK  14 active torsions:
REMARK  status: ('A' for Active; 'I' for Inactive)
REMARK    1  A    between atoms: C_1  and  C_2
REMARK    2  A    between atoms: C_2  and  C_3
REMARK    3  A    between atoms: C_3  and  C_4
REMARK    4  A    between atoms: C_4  and  C_5
REMARK    5  A    between atoms: C_5  and  C_6
REMARK    6  A    between atoms: C_6  and  C_7
REMARK    7  A    between atoms: C_7  and  C_8
REMARK    8  A    between atoms: C_8  and  C_9
REMARK    9  A    between atoms: C_9  and  C_10
REMARK   10  A    between atoms: C_10  and  C_11
REMARK   11  A    between atoms: C_15  and  C_16
REMARK   12  A    between atoms: C_19  and  C_20
REMARK   13  A    between atoms: C_22  and  C_23
REMARK   14  A    between atoms: C_24  and  O_25
REMARK                            x       y       z     vdW  Elec       q    Type
REMARK                         _______ _______ _______ _____ _____    ______ ____
ROOT
ATOM      1  C   UNL     1       5.185   5.622  16.784  0.00  0.00    +0.000 A 
ATOM      2  N   UNL     1       4.041   5.173  17.340  0.00  0.00    +0.000 NA
ATOM      3  C   UNL     1       4.036   4.921  18.654  0.00  0.00    +0.000 A 
ATOM      4  N   UNL     1       2.922   4.385  19.214  0.00  0.00    +0.000 N 
ATOM      5  C   UNL     1       2.532   4.681  20.578  0.00  0.00    +0.000 C 
ATOM      6  C   UNL     1       1.672   5.947  20.626  0.00  0.00    +0.000 C 
ATOM      7  C   UNL     1       1.721   3.434  20.928  0.00  0.00    +0.000 C 
ATOM      8  C   UNL     1       1.008   3.071  19.624  0.00  0.00    +0.000 C 
ATOM      9  C   UNL     1       1.897   3.640  18.490  0.00  0.00    +0.000 C 
ATOM     10  C   UNL     1       2.457   2.511  17.632  0.00  0.00    +0.000 C 
ATOM     11  N   UNL     1       5.117   5.101  19.434  0.00  0.00    +0.000 NA
ATOM     12  C   UNL     1       6.277   5.486  18.850  0.00  0.00    +0.000 A 
ATOM     13  C   UNL     1       7.478   5.531  19.742  0.00  0.00    +0.000 C 
ATOM     14  C   UNL     1       6.352   5.780  17.502  0.00  0.00    +0.000 A 
ENDROOT
BRANCH  14  15
ATOM     15  O   UNL     1       7.490   6.190  16.874  0.00  0.00    +0.000 OA
ATOM     16  H   UNL     1       8.109   6.570  17.516  0.00  0.00    +0.000 HD
ENDBRANCH  14  15
BRANCH   1  17
ATOM     17  C   UNL     1       5.131   5.912  15.310  0.00  0.00    +0.000 C 
BRANCH  17  18
ATOM     18  C   UNL     1       6.339   5.326  14.577  0.00  0.00    +0.000 C 
BRANCH  18  19
ATOM     19  C   UNL     1       6.104   3.884  14.122  0.00  0.00    +0.000 C 
BRANCH  19  20
ATOM     20  C   UNL     1       6.406   3.698  12.636  0.00  0.00    +0.000 C 
BRANCH  20  21
ATOM     21  C   UNL     1       6.104   2.283  12.164  0.00  0.00    +0.000 C 
BRANCH  21  22
ATOM     22  C   UNL     1       5.088   2.327  11.024  0.00  0.00    +0.000 C 
BRANCH  22  23
ATOM     23  C   UNL     1       4.167   3.533  11.156  0.00  0.00    +0.000 C 
BRANCH  23  24
ATOM     24  C   UNL     1       2.864   3.304  10.394  0.00  0.00    +0.000 C 
BRANCH  24  26
ATOM     25  C   UNL     1       2.094   5.208   8.947  0.00  0.00    +0.000 C 
ATOM     26  C   UNL     1       2.924   3.937   9.008  0.00  0.00    +0.000 C 
ENDBRANCH  24  26
ENDBRANCH  23  24
ENDBRANCH  22  23
ENDBRANCH  21  22
ENDBRANCH  20  21
ENDBRANCH  19  20
ENDBRANCH  18  19
ENDBRANCH  17  18
ENDBRANCH   1  17
TORSDOF 10
ENDMDL
MODEL 5
REMARK VINA RESULT:      -7.7      4.258      7.760
REMARK  Name = 
REMARK  14 active torsions:
REMARK  status: ('A' for Active; 'I' for Inactive)
REMARK    1  A    between atoms: C_1  and  C_2
REMARK    2  A    between atoms: C_2  and  C_3
REMARK    3  A    between atoms: C_3  and  C_4
REMARK    4  A    between atoms: C_4  and  C_5
REMARK    5  A    between atoms: C_5  and  C_6
REMARK    6  A    between atoms: C_6  and  C_7
REMARK    7  A    between atoms: C_7  and  C_8
REMARK    8  A    between atoms: C_8  and  C_9
REMARK    9  A    between atoms: C_9  and  C_10
REMARK   10  A    between atoms: C_10  and  C_11
REMARK   11  A    between atoms: C_15  and  C_16
REMARK   12  A    between atoms: C_19  and  C_20
REMARK   13  A    between atoms: C_22  and  C_23
REMARK   14  A    between atoms: C_24  and  O_25
REMARK                            x       y       z     vdW  Elec       q    Type
REMARK                         _______ _______ _______ _____ _____    ______ ____
ROOT
ATOM      1  C   UNL     1       5.787   4.184  16.887  0.00  0.00    +0.000 A 
ATOM      2  N   UNL     1       4.540   4.293  17.390  0.00  0.00    +0.000 NA
ATOM      3  C   UNL     1       4.390   4.900  18.574  0.00  0.00    +0.000 A 
ATOM      4  N   UNL     1       3.156   4.941  19.138  0.00  0.00    +0.000 N 
ATOM      5  C   UNL     1       2.730   6.048  19.969  0.00  0.00    +0.000 C 
ATOM      6  C   UNL     1       2.125   7.161  19.110  0.00  0.00    +0.000 C 
ATOM      7  C   UNL     1       1.672   5.370  20.840  0.00  0.00    +0.000 C 
ATOM      8  C   UNL     1       1.002   4.363  19.902  0.00  0.00    +0.000 C 
ATOM      9  C   UNL     1       2.064   4.022  18.828  0.00  0.00    +0.000 C 
ATOM     10  C   UNL     1       2.462   2.552  18.917  0.00  0.00    +0.000 C 
ATOM     11  N   UNL     1       5.425   5.403  19.271  0.00  0.00    +0.000 NA
ATOM     12  C   UNL     1       6.676   5.225  18.785  0.00  0.00    +0.000 A 
ATOM     13  C   UNL     1       7.795   5.678  19.671  0.00  0.00    +0.000 C 
ATOM     14  C   UNL     1       6.906   4.623  17.563  0.00  0.00    +0.000 A 
ENDROOT
BRANCH  14  15
ATOM     15  O   UNL     1       8.144   4.440  17.024  0.00  0.00    +0.000 OA
ATOM     16  H   UNL     1       8.413   3.513  17.110  0.00  0.00    +0.000 HD
ENDBRANCH  14  15
BRANCH   1  17
ATOM     17  C   UNL     1       5.898   3.517  15.545  0.00  0.00    +0.000 C 
BRANCH  17  18
ATOM     18  C   UNL     1       5.648   4.505  14.404  0.00  0.00    +0.000 C 
BRANCH  18  19
ATOM     19  C   UNL     1       6.890   5.329  14.061  0.00  0.00    +0.000 C 
BRANCH  19  20
ATOM     20  C   UNL     1       7.709   4.689  12.943  0.00  0.00    +0.000 C 
BRANCH  20  21
ATOM     21  C   UNL     1       6.831   4.179  11.809  0.00  0.00    +0.000 C 
BRANCH  21  22
ATOM     22  C   UNL     1       6.512   2.702  12.030  0.00  0.00    +0.000 C 
BRANCH  22  23
ATOM     23  C   UNL     1       5.299   2.274  11.216  0.00  0.00    +0.000 C 
BRANCH  23  24
ATOM     24  C   UNL     1       4.141   3.250  11.415  0.00  0.00    +0.000 C 
BRANCH  24  26
ATOM     25  C   UNL     1       2.918   4.367   9.526  0.00  0.00    +0.000 C 
ATOM     26  C   UNL     1       3.093   3.084  10.319  0.00  0.00    +0.000 C 
ENDBRANCH  24  26
ENDBRANCH  23  24
ENDBRANCH  22  23
ENDBRANCH  21  22
ENDBRANCH  20  21
ENDBRANCH  19  20
ENDBRANCH  18  19
ENDBRANCH  17  18
ENDBRANCH   1  17
TORSDOF 10
ENDMDL
MODEL 6
REMARK VINA RESULT:      -7.5      1.087      1.368
REMARK  Name = 
REMARK  14 active torsions:
REMARK  status: ('A' for Active; 'I' for Inactive)
REMARK    1  A    between atoms: C_1  and  C_2
REMARK    2  A    between atoms: C_2  and  C_3
REMARK    3  A    between atoms: C_3  and  C_4
REMARK    4  A    between atoms: C_4  and  C_5
REMARK    5  A    between atoms: C_5  and  C_6
REMARK    6  A    between atoms: C_6  and  C_7
REMARK    7  A    between atoms: C_7  and  C_8
REMARK    8  A    between atoms: C_8  and  C_9
REMARK    9  A    between atoms: C_9  and  C_10
REMARK   10  A    between atoms: C_10  and  C_11
REMARK   11  A    between atoms: C_15  and  C_16
REMARK   12  A    between atoms: C_19  and  C_20
REMARK   13  A    between atoms: C_22  and  C_23
REMARK   14  A    between atoms: C_24  and  O_25
REMARK                            x       y       z     vdW  Elec       q    Type
REMARK                         _______ _______ _______ _____ _____    ______ ____
ROOT
ATOM      1  C   UNL     1       6.759   4.590  17.474  0.00  0.00    +0.000 A 
ATOM      2  N   UNL     1       5.644   4.363  18.198  0.00  0.00    +0.000 NA
ATOM      3  C   UNL     1       4.536   3.987  17.547  0.00  0.00    +0.000 A 
ATOM      4  N   UNL     1       3.383   3.842  18.247  0.00  0.00    +0.000 N 
ATOM      5  C   UNL     1       2.380   2.864  17.876  0.00  0.00    +0.000 C 
ATOM      6  C   UNL     1       2.681   1.513  18.531  0.00  0.00    +0.000 C 
ATOM      7  C   UNL     1       1.118   3.503  18.456  0.00  0.00    +0.000 C 
ATOM      8  C   UNL     1       1.596   4.169  19.749  0.00  0.00    +0.000 C 
ATOM      9  C   UNL     1       3.099   4.472  19.532  0.00  0.00    +0.000 C 
ATOM     10  C   UNL     1       3.347   5.977  19.540  0.00  0.00    +0.000 C 
ATOM     11  N   UNL     1       4.497   3.823  16.212  0.00  0.00    +0.000 NA
ATOM     12  C   UNL     1       5.605   4.120  15.493  0.00  0.00    +0.000 A 
ATOM     13  C   UNL     1       5.458   4.057  14.004  0.00  0.00    +0.000 C 
ATOM     14  C   UNL     1       6.788   4.498  16.098  0.00  0.00    +0.000 A 
ENDROOT
BRANCH  14  15
ATOM     15  O   UNL     1       7.933   4.787  15.418  0.00  0.00    +0.000 OA
ATOM     16  H   UNL     1       7.822   5.602  14.906  0.00  0.00    +0.000 HD
ENDBRANCH  14  15
BRANCH   1  17
ATOM     17  C   UNL     1       7.981   4.986  18.254  0.00  0.00    +0.000 C 
BRANCH  17  18
ATOM     18  C   UNL     1       7.825   6.376  18.875  0.00  0.00    +0.000 C 
BRANCH  18  19
ATOM     19  C   UNL     1       7.171   7.374  17.917  0.00  0.00    +0.000 C 
BRANCH  19  20
ATOM     20  C   UNL     1       8.149   8.458  17.468  0.00  0.00    +0.000 C 
BRANCH  20  21
ATOM     21  C   UNL     1       8.583   9.351  18.622  0.00  0.00    +0.000 C 
BRANCH  21  22
ATOM     22  C   UNL     1       9.322  10.572  18.077  0.00  0.00    +0.000 C 
BRANCH  22  23
ATOM     23  C   UNL     1      10.257  11.161  19.124  0.00  0.00    +0.000 C 
BRANCH  23  24
ATOM     24  C   UNL     1      10.307  12.683  19.010  0.00  0.00    +0.000 C 
BRANCH  24  26
ATOM     25  C   UNL     1      11.307  13.394  16.818  0.00  0.00    +0.000 C 
ATOM     26  C   UNL     1      10.020  13.132  17.581  0.00  0.00    +0.000 C 
ENDBRANCH  24  26
ENDBRANCH  23  24
ENDBRANCH  22  23
ENDBRANCH  21  22
ENDBRANCH  20  21
ENDBRANCH  19  20
ENDBRANCH  18  19
ENDBRANCH  17  18
ENDBRANCH   1  17
TORSDOF 10
ENDMDL
MODEL 7
REMARK VINA RESULT:      -7.5      1.233      1.484
REMARK  Name = 
REMARK  14 active torsions:
REMARK  status: ('A' for Active; 'I' for Inactive)
REMARK    1  A    between atoms: C_1  and  C_2
REMARK    2  A    between atoms: C_2  and  C_3
REMARK    3  A    between atoms: C_3  and  C_4
REMARK    4  A    between atoms: C_4  and  C_5
REMARK    5  A    between atoms: C_5  and  C_6
REMARK    6  A    between atoms: C_6  and  C_7
REMARK    7  A    between atoms: C_7  and  C_8
REMARK    8  A    between atoms: C_8  and  C_9
REMARK    9  A    between atoms: C_9  and  C_10
REMARK   10  A    between atoms: C_10  and  C_11
REMARK   11  A    between atoms: C_15  and  C_16
REMARK   12  A    between atoms: C_19  and  C_20
REMARK   13  A    between atoms: C_22  and  C_23
REMARK   14  A    between atoms: C_24  and  O_25
REMARK                            x       y       z     vdW  Elec       q    Type
REMARK                         _______ _______ _______ _____ _____    ______ ____
ROOT
ATOM      1  C   UNL     1       6.574   5.462  17.145  0.00  0.00    +0.000 A 
ATOM      2  N   UNL     1       5.510   5.110  17.896  0.00  0.00    +0.000 NA
ATOM      3  C   UNL     1       4.540   4.393  17.317  0.00  0.00    +0.000 A 
ATOM      4  N   UNL     1       3.422   4.106  18.032  0.00  0.00    +0.000 N 
ATOM      5  C   UNL     1       2.677   2.880  17.829  0.00  0.00    +0.000 C 
ATOM      6  C   UNL     1       3.247   1.757  18.700  0.00  0.00    +0.000 C 
ATOM      7  C   UNL     1       1.284   3.303  18.295  0.00  0.00    +0.000 C 
ATOM      8  C   UNL     1       1.552   4.261  19.458  0.00  0.00    +0.000 C 
ATOM      9  C   UNL     1       2.957   4.857  19.194  0.00  0.00    +0.000 C 
ATOM     10  C   UNL     1       2.863   6.359  18.950  0.00  0.00    +0.000 C 
ATOM     11  N   UNL     1       4.588   4.009  16.029  0.00  0.00    +0.000 NA
ATOM     12  C   UNL     1       5.629   4.428  15.270  0.00  0.00    +0.000 A 
ATOM     13  C   UNL     1       5.556   4.092  13.813  0.00  0.00    +0.000 C 
ATOM     14  C   UNL     1       6.674   5.157  15.803  0.00  0.00    +0.000 A 
ENDROOT
BRANCH  14  15
ATOM     15  O   UNL     1       7.751   5.582  15.085  0.00  0.00    +0.000 OA
ATOM     16  H   UNL     1       7.701   5.249  14.177  0.00  0.00    +0.000 HD
ENDBRANCH  14  15
BRANCH   1  17
ATOM     17  C   UNL     1       7.646   6.246  17.848  0.00  0.00    +0.000 C 
BRANCH  17  18
ATOM     18  C   UNL     1       7.559   7.738  17.519  0.00  0.00    +0.000 C 
BRANCH  18  19
ATOM     19  C   UNL     1       8.473   8.586  18.405  0.00  0.00    +0.000 C 
BRANCH  19  20
ATOM     20  C   UNL     1       8.374  10.073  18.069  0.00  0.00    +0.000 C 
BRANCH  20  21
ATOM     21  C   UNL     1       9.729  10.764  18.128  0.00  0.00    +0.000 C 
BRANCH  21  22
ATOM     22  C   UNL     1      10.006  11.232  19.555  0.00  0.00    +0.000 C 
BRANCH  22  23
ATOM     23  C   UNL     1      10.163  12.746  19.616  0.00  0.00    +0.000 C 
BRANCH  23  24
ATOM     24  C   UNL     1       8.801  13.434  19.560  0.00  0.00    +0.000 C 
BRANCH  24  26
ATOM     25  C   UNL     1       7.257  14.024  17.668  0.00  0.00    +0.000 C 
ATOM     26  C   UNL     1       8.641  14.220  18.263  0.00  0.00    +0.000 C 
ENDBRANCH  24  26
ENDBRANCH  23  24
ENDBRANCH  22  23
ENDBRANCH  21  22
ENDBRANCH  20  21
ENDBRANCH  19  20
ENDBRANCH  18  19
ENDBRANCH  17  18
ENDBRANCH   1  17
TORSDOF 10
ENDMDL
MODEL 8
REMARK VINA RESULT:      -7.4      0.967      1.333
REMARK  Name = 
REMARK  14 active torsions:
REMARK  status: ('A' for Active; 'I' for Inactive)
REMARK    1  A    between atoms: C_1  and  C_2
REMARK    2  A    between atoms: C_2  and  C_3
REMARK    3  A    between atoms: C_3  and  C_4
REMARK    4  A    between atoms: C_4  and  C_5
REMARK    5  A    between atoms: C_5  and  C_6
REMARK    6  A    between atoms: C_6  and  C_7
REMARK    7  A    between atoms: C_7  and  C_8
REMARK    8  A    between atoms: C_8  and  C_9
REMARK    9  A    between atoms: C_9  and  C_10
REMARK   10  A    between atoms: C_10  and  C_11
REMARK   11  A    between atoms: C_15  and  C_16
REMARK   12  A    between atoms: C_19  and  C_20
REMARK   13  A    between atoms: C_22  and  C_23
REMARK   14  A    between atoms: C_24  and  O_25
REMARK                            x       y       z     vdW  Elec       q    Type
REMARK                         _______ _______ _______ _____ _____    ______ ____
ROOT
ATOM      1  C   UNL     1       6.744   4.589  17.546  0.00  0.00    +0.000 A 
ATOM      2  N   UNL     1       5.610   4.376  18.246  0.00  0.00    +0.000 NA
ATOM      3  C   UNL     1       4.517   3.996  17.574  0.00  0.00    +0.000 A 
ATOM      4  N   UNL     1       3.346   3.864  18.248  0.00  0.00    +0.000 N 
ATOM      5  C   UNL     1       2.348   2.886  17.865  0.00  0.00    +0.000 C 
ATOM      6  C   UNL     1       2.628   1.542  18.544  0.00  0.00    +0.000 C 
ATOM      7  C   UNL     1       1.076   3.537  18.407  0.00  0.00    +0.000 C 
ATOM      8  C   UNL     1       1.525   4.217  19.702  0.00  0.00    +0.000 C 
ATOM      9  C   UNL     1       3.035   4.512  19.517  0.00  0.00    +0.000 C 
ATOM     10  C   UNL     1       3.289   6.016  19.512  0.00  0.00    +0.000 C 
ATOM     11  N   UNL     1       4.508   3.815  16.241  0.00  0.00    +0.000 NA
ATOM     12  C   UNL     1       5.634   4.099  15.544  0.00  0.00    +0.000 A 
ATOM     13  C   UNL     1       5.522   4.017  14.053  0.00  0.00    +0.000 C 
ATOM     14  C   UNL     1       6.804   4.480  16.172  0.00  0.00    +0.000 A 
ENDROOT
BRANCH  14  15
ATOM     15  O   UNL     1       7.967   4.755  15.516  0.00  0.00    +0.000 OA
ATOM     16  H   UNL     1       8.196   4.026  14.921  0.00  0.00    +0.000 HD
ENDBRANCH  14  15
BRANCH   1  17
ATOM     17  C   UNL     1       7.948   4.990  18.350  0.00  0.00    +0.000 C 
BRANCH  17  18
ATOM     18  C   UNL     1       7.686   6.265  19.155  0.00  0.00    +0.000 C 
BRANCH  18  19
ATOM     19  C   UNL     1       8.517   7.450  18.660  0.00  0.00    +0.000 C 
BRANCH  19  20
ATOM     20  C   UNL     1       7.711   8.371  17.746  0.00  0.00    +0.000 C 
BRANCH  20  21
ATOM     21  C   UNL     1       8.151   9.824  17.864  0.00  0.00    +0.000 C 
BRANCH  21  22
ATOM     22  C   UNL     1       9.232   9.947  18.937  0.00  0.00    +0.000 C 
BRANCH  22  23
ATOM     23  C   UNL     1       9.482  11.405  19.300  0.00  0.00    +0.000 C 
BRANCH  23  24
ATOM     24  C   UNL     1      10.943  11.625  19.682  0.00  0.00    +0.000 C 
BRANCH  24  26
ATOM     25  C   UNL     1       9.903  13.337  21.199  0.00  0.00    +0.000 C 
ATOM     26  C   UNL     1      11.128  12.969  20.379  0.00  0.00    +0.000 C 
ENDBRANCH  24  26
ENDBRANCH  23  24
ENDBRANCH  22  23
ENDBRANCH  21  22
ENDBRANCH  20  21
ENDBRANCH  19  20
ENDBRANCH  18  19
ENDBRANCH  17  18
ENDBRANCH   1  17
TORSDOF 10
ENDMDL
MODEL 9
REMARK VINA RESULT:      -7.3      1.122      1.216
REMARK  Name = 
REMARK  14 active torsions:
REMARK  status: ('A' for Active; 'I' for Inactive)
REMARK    1  A    between atoms: C_1  and  C_2
REMARK    2  A    between atoms: C_2  and  C_3
REMARK    3  A    between atoms: C_3  and  C_4
REMARK    4  A    between atoms: C_4  and  C_5
REMARK    5  A    between atoms: C_5  and  C_6
REMARK    6  A    between atoms: C_6  and  C_7
REMARK    7  A    between atoms: C_7  and  C_8
REMARK    8  A    between atoms: C_8  and  C_9
REMARK    9  A    between atoms: C_9  and  C_10
REMARK   10  A    between atoms: C_10  and  C_11
REMARK   11  A    between atoms: C_15  and  C_16
REMARK   12  A    between atoms: C_19  and  C_20
REMARK   13  A    between atoms: C_22  and  C_23
REMARK   14  A    between atoms: C_24  and  O_25
REMARK                            x       y       z     vdW  Elec       q    Type
REMARK                         _______ _______ _______ _____ _____    ______ ____
ROOT
ATOM      1  C   UNL     1       6.783   5.684  16.593  0.00  0.00    +0.000 A 
ATOM      2  N   UNL     1       5.727   5.403  17.385  0.00  0.00    +0.000 NA
ATOM      3  C   UNL     1       4.774   4.598  16.901  0.00  0.00    +0.000 A 
ATOM      4  N   UNL     1       3.663   4.377  17.649  0.00  0.00    +0.000 N 
ATOM      5  C   UNL     1       2.945   3.119  17.601  0.00  0.00    +0.000 C 
ATOM      6  C   UNL     1       3.540   2.125  18.602  0.00  0.00    +0.000 C 
ATOM      7  C   UNL     1       1.543   3.565  18.014  0.00  0.00    +0.000 C 
ATOM      8  C   UNL     1       1.789   4.664  19.049  0.00  0.00    +0.000 C 
ATOM      9  C   UNL     1       3.179   5.254  18.710  0.00  0.00    +0.000 C 
ATOM     10  C   UNL     1       3.052   6.713  18.283  0.00  0.00    +0.000 C 
ATOM     11  N   UNL     1       4.831   4.059  15.670  0.00  0.00    +0.000 NA
ATOM     12  C   UNL     1       5.862   4.405  14.862  0.00  0.00    +0.000 A 
ATOM     13  C   UNL     1       5.797   3.889  13.458  0.00  0.00    +0.000 C 
ATOM     14  C   UNL     1       6.890   5.217  15.299  0.00  0.00    +0.000 A 
ENDROOT
BRANCH  14  15
ATOM     15  O   UNL     1       7.957   5.575  14.531  0.00  0.00    +0.000 OA
ATOM     16  H   UNL     1       8.084   6.535  14.560  0.00  0.00    +0.000 HD
ENDBRANCH  14  15
BRANCH   1  17
ATOM     17  C   UNL     1       7.836   6.572  17.191  0.00  0.00    +0.000 C 
BRANCH  17  18
ATOM     18  C   UNL     1       7.249   7.906  17.657  0.00  0.00    +0.000 C 
BRANCH  18  19
ATOM     19  C   UNL     1       8.284   8.788  18.357  0.00  0.00    +0.000 C 
BRANCH  19  20
ATOM     20  C   UNL     1       8.643  10.018  17.525  0.00  0.00    +0.000 C 
BRANCH  20  21
ATOM     21  C   UNL     1       9.123  11.174  18.392  0.00  0.00    +0.000 C 
BRANCH  21  22
ATOM     22  C   UNL     1       9.448  10.665  19.794  0.00  0.00    +0.000 C 
BRANCH  22  23
ATOM     23  C   UNL     1      10.390  11.616  20.520  0.00  0.00    +0.000 C 
BRANCH  23  24
ATOM     24  C   UNL     1       9.644  12.402  21.595  0.00  0.00    +0.000 C 
BRANCH  24  26
ATOM     25  C   UNL     1       9.673  14.443  20.130  0.00  0.00    +0.000 C 
ATOM     26  C   UNL     1       9.974  13.889  21.512  0.00  0.00    +0.000 C 
ENDBRANCH  24  26
ENDBRANCH  23  24
ENDBRANCH  22  23
ENDBRANCH  21  22
ENDBRANCH  20  21
ENDBRANCH  19  20
ENDBRANCH  18  19
ENDBRANCH  17  18
ENDBRANCH   1  17
TORSDOF 10
ENDMDL
