MODEL 1
REMARK VINA RESULT:      -5.6      0.000      0.000
REMARK  Name = 
REMARK  18 active torsions:
REMARK  status: ('A' for Active; 'I' for Inactive)
REMARK    1  A    between atoms: C_1  and  O_2
REMARK    2  A    between atoms: O_2  and  C_3
REMARK    3  A    between atoms: N_5  and  C_6
REMARK    4  A    between atoms: C_7  and  O_8
REMARK    5  A    between atoms: O_8  and  C_9
REMARK    6  A    between atoms: C_9  and  C_10
REMARK    7  A    between atoms: C_12  and  O_13
REMARK    8  A    between atoms: O_13  and  C_14
REMARK    9  A    between atoms: C_14  and  C_15
REMARK   10  A    between atoms: C_17  and  O_18
REMARK   11  A    between atoms: O_18  and  C_19
REMARK   12  A    between atoms: C_19  and  C_20
REMARK   13  A    between atoms: C_22  and  O_23
REMARK   14  A    between atoms: O_23  and  C_24
REMARK   15  A    between atoms: C_24  and  C_25
REMARK   16  A    between atoms: C_27  and  C_28
REMARK   17  A    between atoms: C_32  and  O_33
REMARK   18  A    between atoms: O_33  and  C_34
REMARK                            x       y       z     vdW  Elec       q    Type
REMARK                         _______ _______ _______ _____ _____    ______ ____
ROOT
ATOM      1  C   UNL     1      -1.886  13.211  19.735  0.00  0.00    +0.000 C 
ATOM      2  C   UNL     1      -2.787  12.313  20.634  0.00  0.00    +0.000 C 
ATOM      3  C   UNL     1      -2.424  12.271  22.142  0.00  0.00    +0.000 C 
ATOM      4  C   UNL     1      -0.908  12.241  22.385  0.00  0.00    +0.000 C 
ATOM      5  C   UNL     1      -0.234  13.472  21.734  0.00  0.00    +0.000 C 
ATOM      6  C   UNL     1      -0.406  13.397  20.195  0.00  0.00    +0.000 C 
ENDROOT
BRANCH   6   7
ATOM      7  C   UNL     1       0.267  14.569  19.463  0.00  0.00    +0.000 A 
ATOM      8  C   UNL     1      -0.441  15.712  19.054  0.00  0.00    +0.000 A 
ATOM      9  C   UNL     1       0.206  16.772  18.415  0.00  0.00    +0.000 A 
ATOM     10  C   UNL     1       1.566  16.688  18.139  0.00  0.00    +0.000 A 
ATOM     11  C   UNL     1       2.280  15.541  18.486  0.00  0.00    +0.000 A 
ATOM     12  C   UNL     1       1.638  14.500  19.165  0.00  0.00    +0.000 A 
BRANCH  11  13
ATOM     13  O   UNL     1       3.606  15.559  18.148  0.00  0.00    +0.000 OA
ATOM     14  C   UNL     1       4.395  16.530  18.825  0.00  0.00    +0.000 C 
ENDBRANCH  11  13
ENDBRANCH   6   7
BRANCH   1  17
ATOM     15  C   UNL     1      -1.769  11.487  17.864  0.00  0.00    +0.000 C 
ATOM     16  O   UNL     1      -1.536  10.506  18.552  0.00  0.00    +0.000 OA
ATOM     17  N   UNL     1      -1.929  12.766  18.325  0.00  0.00    +0.000 N 
ATOM     18  H   UNL     1      -2.267  13.405  17.618  0.00  0.00    +0.000 HD
BRANCH  15  20
ATOM     19  C   UNL     1      -2.727  10.489  15.944  0.00  0.00    +0.000 C 
ATOM     20  O   UNL     1      -1.884  11.497  16.511  0.00  0.00    +0.000 OA
ENDBRANCH  15  20
ENDBRANCH   1  17
BRANCH   2  21
ATOM     21  O   UNL     1      -4.160  12.812  20.605  0.00  0.00    +0.000 OA
BRANCH  21  22
ATOM     22  C   UNL     1      -5.107  12.249  19.826  0.00  0.00    +0.000 C 
ATOM     23  C   UNL     1      -6.292  11.871  20.671  0.00  0.00    +0.000 C 
ATOM     24  O   UNL     1      -5.033  12.095  18.618  0.00  0.00    +0.000 OA
ENDBRANCH  21  22
ENDBRANCH   2  21
BRANCH   3  25
ATOM     25  O   UNL     1      -2.966  13.420  22.855  0.00  0.00    +0.000 OA
BRANCH  25  26
ATOM     26  C   UNL     1      -3.586  13.191  24.045  0.00  0.00    +0.000 C 
ATOM     27  C   UNL     1      -3.551  14.424  24.900  0.00  0.00    +0.000 C 
ATOM     28  O   UNL     1      -4.140  12.152  24.374  0.00  0.00    +0.000 OA
ENDBRANCH  25  26
ENDBRANCH   3  25
BRANCH   4  29
ATOM     29  O   UNL     1      -0.306  11.055  21.809  0.00  0.00    +0.000 OA
BRANCH  29  30
ATOM     30  C   UNL     1      -0.186   9.959  22.605  0.00  0.00    +0.000 C 
ATOM     31  C   UNL     1      -0.366   8.697  21.814  0.00  0.00    +0.000 C 
ATOM     32  O   UNL     1       0.062   9.993  23.801  0.00  0.00    +0.000 OA
ENDBRANCH  29  30
ENDBRANCH   4  29
BRANCH   5  33
ATOM     33  O   UNL     1      -0.754  14.737  22.200  0.00  0.00    +0.000 OA
BRANCH  33  34
ATOM     34  C   UNL     1      -0.057  15.379  23.173  0.00  0.00    +0.000 C 
ATOM     35  C   UNL     1       1.083  16.155  22.578  0.00  0.00    +0.000 C 
ATOM     36  O   UNL     1      -0.272  15.279  24.371  0.00  0.00    +0.000 OA
ENDBRANCH  33  34
ENDBRANCH   5  33
TORSDOF 12
ENDMDL
MODEL 2
REMARK VINA RESULT:      -5.6      2.165      2.996
REMARK  Name = 
REMARK  18 active torsions:
REMARK  status: ('A' for Active; 'I' for Inactive)
REMARK    1  A    between atoms: C_1  and  O_2
REMARK    2  A    between atoms: O_2  and  C_3
REMARK    3  A    between atoms: N_5  and  C_6
REMARK    4  A    between atoms: C_7  and  O_8
REMARK    5  A    between atoms: O_8  and  C_9
REMARK    6  A    between atoms: C_9  and  C_10
REMARK    7  A    between atoms: C_12  and  O_13
REMARK    8  A    between atoms: O_13  and  C_14
REMARK    9  A    between atoms: C_14  and  C_15
REMARK   10  A    between atoms: C_17  and  O_18
REMARK   11  A    between atoms: O_18  and  C_19
REMARK   12  A    between atoms: C_19  and  C_20
REMARK   13  A    between atoms: C_22  and  O_23
REMARK   14  A    between atoms: O_23  and  C_24
REMARK   15  A    between atoms: C_24  and  C_25
REMARK   16  A    between atoms: C_27  and  C_28
REMARK   17  A    between atoms: C_32  and  O_33
REMARK   18  A    between atoms: O_33  and  C_34
REMARK                            x       y       z     vdW  Elec       q    Type
REMARK                         _______ _______ _______ _____ _____    ______ ____
ROOT
ATOM      1  C   UNL     1       0.433  12.507  18.955  0.00  0.00    +0.000 C 
ATOM      2  C   UNL     1      -0.973  11.962  19.348  0.00  0.00    +0.000 C 
ATOM      3  C   UNL     1      -1.631  12.605  20.598  0.00  0.00    +0.000 C 
ATOM      4  C   UNL     1      -0.623  12.873  21.724  0.00  0.00    +0.000 C 
ATOM      5  C   UNL     1       0.516  13.791  21.222  0.00  0.00    +0.000 C 
ATOM      6  C   UNL     1       1.318  13.054  20.117  0.00  0.00    +0.000 C 
ENDROOT
BRANCH   6   7
ATOM      7  C   UNL     1       2.496  13.885  19.583  0.00  0.00    +0.000 A 
ATOM      8  C   UNL     1       2.545  14.367  18.263  0.00  0.00    +0.000 A 
ATOM      9  C   UNL     1       3.616  15.142  17.816  0.00  0.00    +0.000 A 
ATOM     10  C   UNL     1       4.677  15.416  18.672  0.00  0.00    +0.000 A 
ATOM     11  C   UNL     1       4.678  14.905  19.970  0.00  0.00    +0.000 A 
ATOM     12  C   UNL     1       3.583  14.165  20.428  0.00  0.00    +0.000 A 
BRANCH  11  13
ATOM     13  O   UNL     1       5.780  15.220  20.717  0.00  0.00    +0.000 OA
ATOM     14  C   UNL     1       6.878  15.757  19.988  0.00  0.00    +0.000 C 
ENDBRANCH  11  13
ENDBRANCH   6   7
BRANCH   1  17
ATOM     15  C   UNL     1       1.434  10.207  18.512  0.00  0.00    +0.000 C 
ATOM     16  O   UNL     1       1.086   9.668  19.550  0.00  0.00    +0.000 OA
ATOM     17  N   UNL     1       1.188  11.508  18.166  0.00  0.00    +0.000 N 
ATOM     18  H   UNL     1       1.422  11.717  17.204  0.00  0.00    +0.000 HD
BRANCH  15  20
ATOM     19  C   UNL     1       2.593   8.284  17.763  0.00  0.00    +0.000 C 
ATOM     20  O   UNL     1       2.154   9.624  17.518  0.00  0.00    +0.000 OA
ENDBRANCH  15  20
ENDBRANCH   1  17
BRANCH   2  21
ATOM     21  O   UNL     1      -1.919  12.224  18.265  0.00  0.00    +0.000 OA
BRANCH  21  22
ATOM     22  C   UNL     1      -2.855  11.322  17.903  0.00  0.00    +0.000 C 
ATOM     23  C   UNL     1      -2.188  10.017  17.567  0.00  0.00    +0.000 C 
ATOM     24  O   UNL     1      -4.059  11.518  17.880  0.00  0.00    +0.000 OA
ENDBRANCH  21  22
ENDBRANCH   2  21
BRANCH   3  25
ATOM     25  O   UNL     1      -2.279  13.868  20.272  0.00  0.00    +0.000 OA
BRANCH  25  26
ATOM     26  C   UNL     1      -3.334  14.254  21.042  0.00  0.00    +0.000 C 
ATOM     27  C   UNL     1      -4.435  13.236  20.969  0.00  0.00    +0.000 C 
ATOM     28  O   UNL     1      -3.382  15.257  21.739  0.00  0.00    +0.000 OA
ENDBRANCH  25  26
ENDBRANCH   3  25
BRANCH   4  29
ATOM     29  O   UNL     1      -0.019  11.641  22.194  0.00  0.00    +0.000 OA
BRANCH  29  30
ATOM     30  C   UNL     1      -0.790  10.806  22.940  0.00  0.00    +0.000 C 
ATOM     31  C   UNL     1      -0.120   9.476  23.124  0.00  0.00    +0.000 C 
ATOM     32  O   UNL     1      -1.872  11.104  23.422  0.00  0.00    +0.000 OA
ENDBRANCH  29  30
ENDBRANCH   4  29
BRANCH   5  33
ATOM     33  O   UNL     1       0.057  15.057  20.698  0.00  0.00    +0.000 OA
BRANCH  33  34
ATOM     34  C   UNL     1       0.225  16.154  21.481  0.00  0.00    +0.000 C 
ATOM     35  C   UNL     1       1.220  17.094  20.862  0.00  0.00    +0.000 C 
ATOM     36  O   UNL     1      -0.296  16.323  22.573  0.00  0.00    +0.000 OA
ENDBRANCH  33  34
ENDBRANCH   5  33
TORSDOF 12
ENDMDL
MODEL 3
REMARK VINA RESULT:      -5.5      2.198      3.463
REMARK  Name = 
REMARK  18 active torsions:
REMARK  status: ('A' for Active; 'I' for Inactive)
REMARK    1  A    between atoms: C_1  and  O_2
REMARK    2  A    between atoms: O_2  and  C_3
REMARK    3  A    between atoms: N_5  and  C_6
REMARK    4  A    between atoms: C_7  and  O_8
REMARK    5  A    between atoms: O_8  and  C_9
REMARK    6  A    between atoms: C_9  and  C_10
REMARK    7  A    between atoms: C_12  and  O_13
REMARK    8  A    between atoms: O_13  and  C_14
REMARK    9  A    between atoms: C_14  and  C_15
REMARK   10  A    between atoms: C_17  and  O_18
REMARK   11  A    between atoms: O_18  and  C_19
REMARK   12  A    between atoms: C_19  and  C_20
REMARK   13  A    between atoms: C_22  and  O_23
REMARK   14  A    between atoms: O_23  and  C_24
REMARK   15  A    between atoms: C_24  and  C_25
REMARK   16  A    between atoms: C_27  and  C_28
REMARK   17  A    between atoms: C_32  and  O_33
REMARK   18  A    between atoms: O_33  and  C_34
REMARK                            x       y       z     vdW  Elec       q    Type
REMARK                         _______ _______ _______ _____ _____    ______ ____
ROOT
ATOM      1  C   UNL     1       0.262  11.696  18.536  0.00  0.00    +0.000 C 
ATOM      2  C   UNL     1      -1.120  10.997  18.710  0.00  0.00    +0.000 C 
ATOM      3  C   UNL     1      -2.040  11.566  19.823  0.00  0.00    +0.000 C 
ATOM      4  C   UNL     1      -1.264  11.951  21.091  0.00  0.00    +0.000 C 
ATOM      5  C   UNL     1      -0.168  12.990  20.758  0.00  0.00    +0.000 C 
ATOM      6  C   UNL     1       0.880  12.345  19.813  0.00  0.00    +0.000 C 
ENDROOT
BRANCH   6   7
ATOM      7  C   UNL     1       2.028  13.302  19.457  0.00  0.00    +0.000 A 
ATOM      8  C   UNL     1       2.239  13.778  18.151  0.00  0.00    +0.000 A 
ATOM      9  C   UNL     1       3.276  14.668  17.865  0.00  0.00    +0.000 A 
ATOM     10  C   UNL     1       4.145  15.067  18.875  0.00  0.00    +0.000 A 
ATOM     11  C   UNL     1       3.990  14.566  20.168  0.00  0.00    +0.000 A 
ATOM     12  C   UNL     1       2.924  13.709  20.460  0.00  0.00    +0.000 A 
BRANCH  11  13
ATOM     13  O   UNL     1       4.912  15.010  21.076  0.00  0.00    +0.000 OA
ATOM     14  C   UNL     1       6.224  15.216  20.562  0.00  0.00    +0.000 C 
ENDBRANCH  11  13
ENDBRANCH   6   7
BRANCH   1  17
ATOM     15  C   UNL     1       1.635   9.558  18.360  0.00  0.00    +0.000 C 
ATOM     16  O   UNL     1       1.254   9.027  19.390  0.00  0.00    +0.000 OA
ATOM     17  N   UNL     1       1.240  10.786  17.902  0.00  0.00    +0.000 N 
ATOM     18  H   UNL     1       1.549  10.978  16.958  0.00  0.00    +0.000 HD
BRANCH  15  20
ATOM     19  C   UNL     1       3.047   7.741  17.806  0.00  0.00    +0.000 C 
ATOM     20  O   UNL     1       2.542   9.042  17.490  0.00  0.00    +0.000 OA
ENDBRANCH  15  20
ENDBRANCH   1  17
BRANCH   2  21
ATOM     21  O   UNL     1      -1.902  11.146  17.484  0.00  0.00    +0.000 OA
BRANCH  21  22
ATOM     22  C   UNL     1      -2.701  10.160  17.024  0.00  0.00    +0.000 C 
ATOM     23  C   UNL     1      -2.728  10.198  15.521  0.00  0.00    +0.000 C 
ATOM     24  O   UNL     1      -3.287   9.343  17.714  0.00  0.00    +0.000 OA
ENDBRANCH  21  22
ENDBRANCH   2  21
BRANCH   3  25
ATOM     25  O   UNL     1      -2.763  12.746  19.369  0.00  0.00    +0.000 OA
BRANCH  25  26
ATOM     26  C   UNL     1      -3.990  12.983  19.910  0.00  0.00    +0.000 C 
ATOM     27  C   UNL     1      -5.047  12.227  19.160  0.00  0.00    +0.000 C 
ATOM     28  O   UNL     1      -4.217  13.670  20.895  0.00  0.00    +0.000 OA
ENDBRANCH  25  26
ENDBRANCH   3  25
BRANCH   4  29
ATOM     29  O   UNL     1      -0.611  10.798  21.679  0.00  0.00    +0.000 OA
BRANCH  29  30
ATOM     30  C   UNL     1      -0.758  10.605  23.017  0.00  0.00    +0.000 C 
ATOM     31  C   UNL     1      -1.951  11.350  23.541  0.00  0.00    +0.000 C 
ATOM     32  O   UNL     1      -0.033   9.899  23.701  0.00  0.00    +0.000 OA
ENDBRANCH  29  30
ENDBRANCH   4  29
BRANCH   5  33
ATOM     33  O   UNL     1      -0.674  14.194  20.139  0.00  0.00    +0.000 OA
BRANCH  33  34
ATOM     34  C   UNL     1      -0.788  15.298  20.921  0.00  0.00    +0.000 C 
ATOM     35  C   UNL     1       0.185  16.356  20.482  0.00  0.00    +0.000 C 
ATOM     36  O   UNL     1      -1.518  15.395  21.896  0.00  0.00    +0.000 OA
ENDBRANCH  33  34
ENDBRANCH   5  33
TORSDOF 12
ENDMDL
MODEL 4
REMARK VINA RESULT:      -5.5      1.237      1.798
REMARK  Name = 
REMARK  18 active torsions:
REMARK  status: ('A' for Active; 'I' for Inactive)
REMARK    1  A    between atoms: C_1  and  O_2
REMARK    2  A    between atoms: O_2  and  C_3
REMARK    3  A    between atoms: N_5  and  C_6
REMARK    4  A    between atoms: C_7  and  O_8
REMARK    5  A    between atoms: O_8  and  C_9
REMARK    6  A    between atoms: C_9  and  C_10
REMARK    7  A    between atoms: C_12  and  O_13
REMARK    8  A    between atoms: O_13  and  C_14
REMARK    9  A    between atoms: C_14  and  C_15
REMARK   10  A    between atoms: C_17  and  O_18
REMARK   11  A    between atoms: O_18  and  C_19
REMARK   12  A    between atoms: C_19  and  C_20
REMARK   13  A    between atoms: C_22  and  O_23
REMARK   14  A    between atoms: O_23  and  C_24
REMARK   15  A    between atoms: C_24  and  C_25
REMARK   16  A    between atoms: C_27  and  C_28
REMARK   17  A    between atoms: C_32  and  O_33
REMARK   18  A    between atoms: O_33  and  C_34
REMARK                            x       y       z     vdW  Elec       q    Type
REMARK                         _______ _______ _______ _____ _____    ______ ____
ROOT
ATOM      1  C   UNL     1      -1.874  13.117  19.939  0.00  0.00    +0.000 C 
ATOM      2  C   UNL     1      -2.932  12.503  20.904  0.00  0.00    +0.000 C 
ATOM      3  C   UNL     1      -2.525  12.416  22.399  0.00  0.00    +0.000 C 
ATOM      4  C   UNL     1      -1.057  12.011  22.590  0.00  0.00    +0.000 C 
ATOM      5  C   UNL     1      -0.124  13.011  21.867  0.00  0.00    +0.000 C 
ATOM      6  C   UNL     1      -0.377  12.936  20.339  0.00  0.00    +0.000 C 
ENDROOT
BRANCH   6   7
ATOM      7  C   UNL     1       0.536  13.877  19.537  0.00  0.00    +0.000 A 
ATOM      8  C   UNL     1       1.863  13.548  19.212  0.00  0.00    +0.000 A 
ATOM      9  C   UNL     1       2.658  14.414  18.459  0.00  0.00    +0.000 A 
ATOM     10  C   UNL     1       2.151  15.643  18.052  0.00  0.00    +0.000 A 
ATOM     11  C   UNL     1       0.855  16.016  18.408  0.00  0.00    +0.000 A 
ATOM     12  C   UNL     1       0.046  15.128  19.125  0.00  0.00    +0.000 A 
BRANCH  11  13
ATOM     13  O   UNL     1       0.468  17.254  17.971  0.00  0.00    +0.000 OA
ATOM     14  C   UNL     1      -0.917  17.548  18.118  0.00  0.00    +0.000 C 
ENDBRANCH  11  13
ENDBRANCH   6   7
BRANCH   1  17
ATOM     15  C   UNL     1      -1.936  11.380  18.077  0.00  0.00    +0.000 C 
ATOM     16  O   UNL     1      -1.564  10.419  18.730  0.00  0.00    +0.000 OA
ATOM     17  N   UNL     1      -2.091  12.655  18.550  0.00  0.00    +0.000 N 
ATOM     18  H   UNL     1      -2.554  13.271  17.894  0.00  0.00    +0.000 HD
BRANCH  15  20
ATOM     19  C   UNL     1      -2.592  10.100  16.198  0.00  0.00    +0.000 C 
ATOM     20  O   UNL     1      -2.237  11.371  16.753  0.00  0.00    +0.000 OA
ENDBRANCH  15  20
ENDBRANCH   1  17
BRANCH   2  21
ATOM     21  O   UNL     1      -4.135  13.333  20.903  0.00  0.00    +0.000 OA
BRANCH  21  22
ATOM     22  C   UNL     1      -5.363  12.808  20.707  0.00  0.00    +0.000 C 
ATOM     23  C   UNL     1      -5.936  13.342  19.423  0.00  0.00    +0.000 C 
ATOM     24  O   UNL     1      -5.914  12.000  21.436  0.00  0.00    +0.000 OA
ENDBRANCH  21  22
ENDBRANCH   2  21
BRANCH   3  25
ATOM     25  O   UNL     1      -2.729  13.686  23.084  0.00  0.00    +0.000 OA
BRANCH  25  26
ATOM     26  C   UNL     1      -3.343  13.657  24.298  0.00  0.00    +0.000 C 
ATOM     27  C   UNL     1      -4.157  12.405  24.443  0.00  0.00    +0.000 C 
ATOM     28  O   UNL     1      -3.227  14.496  25.180  0.00  0.00    +0.000 OA
ENDBRANCH  25  26
ENDBRANCH   3  25
BRANCH   4  29
ATOM     29  O   UNL     1      -0.798  10.694  22.040  0.00  0.00    +0.000 OA
BRANCH  29  30
ATOM     30  C   UNL     1       0.119   9.917  22.674  0.00  0.00    +0.000 C 
ATOM     31  C   UNL     1       1.047   9.268  21.690  0.00  0.00    +0.000 C 
ATOM     32  O   UNL     1       0.198   9.782  23.886  0.00  0.00    +0.000 OA
ENDBRANCH  29  30
ENDBRANCH   4  29
BRANCH   5  33
ATOM     33  O   UNL     1      -0.288  14.380  22.299  0.00  0.00    +0.000 OA
BRANCH  33  34
ATOM     34  C   UNL     1       0.839  15.113  22.495  0.00  0.00    +0.000 C 
ATOM     35  C   UNL     1       0.502  16.572  22.610  0.00  0.00    +0.000 C 
ATOM     36  O   UNL     1       1.975  14.665  22.497  0.00  0.00    +0.000 OA
ENDBRANCH  33  34
ENDBRANCH   5  33
TORSDOF 12
ENDMDL
MODEL 5
REMARK VINA RESULT:      -5.5      2.046      3.003
REMARK  Name = 
REMARK  18 active torsions:
REMARK  status: ('A' for Active; 'I' for Inactive)
REMARK    1  A    between atoms: C_1  and  O_2
REMARK    2  A    between atoms: O_2  and  C_3
REMARK    3  A    between atoms: N_5  and  C_6
REMARK    4  A    between atoms: C_7  and  O_8
REMARK    5  A    between atoms: O_8  and  C_9
REMARK    6  A    between atoms: C_9  and  C_10
REMARK    7  A    between atoms: C_12  and  O_13
REMARK    8  A    between atoms: O_13  and  C_14
REMARK    9  A    between atoms: C_14  and  C_15
REMARK   10  A    between atoms: C_17  and  O_18
REMARK   11  A    between atoms: O_18  and  C_19
REMARK   12  A    between atoms: C_19  and  C_20
REMARK   13  A    between atoms: C_22  and  O_23
REMARK   14  A    between atoms: O_23  and  C_24
REMARK   15  A    between atoms: C_24  and  C_25
REMARK   16  A    between atoms: C_27  and  C_28
REMARK   17  A    between atoms: C_32  and  O_33
REMARK   18  A    between atoms: O_33  and  C_34
REMARK                            x       y       z     vdW  Elec       q    Type
REMARK                         _______ _______ _______ _____ _____    ______ ____
ROOT
ATOM      1  C   UNL     1       0.374  12.525  19.056  0.00  0.00    +0.000 C 
ATOM      2  C   UNL     1      -1.029  11.955  19.420  0.00  0.00    +0.000 C 
ATOM      3  C   UNL     1      -1.714  12.569  20.671  0.00  0.00    +0.000 C 
ATOM      4  C   UNL     1      -0.726  12.833  21.816  0.00  0.00    +0.000 C 
ATOM      5  C   UNL     1       0.407  13.774  21.344  0.00  0.00    +0.000 C 
ATOM      6  C   UNL     1       1.235  13.067  20.239  0.00  0.00    +0.000 C 
ENDROOT
BRANCH   6   7
ATOM      7  C   UNL     1       2.408  13.923  19.735  0.00  0.00    +0.000 A 
ATOM      8  C   UNL     1       3.569  14.141  20.498  0.00  0.00    +0.000 A 
ATOM      9  C   UNL     1       4.628  14.901  19.999  0.00  0.00    +0.000 A 
ATOM     10  C   UNL     1       4.527  15.491  18.744  0.00  0.00    +0.000 A 
ATOM     11  C   UNL     1       3.364  15.335  17.990  0.00  0.00    +0.000 A 
ATOM     12  C   UNL     1       2.322  14.536  18.473  0.00  0.00    +0.000 A 
BRANCH  11  13
ATOM     13  O   UNL     1       3.367  15.974  16.781  0.00  0.00    +0.000 OA
ATOM     14  C   UNL     1       2.656  17.207  16.739  0.00  0.00    +0.000 C 
ENDBRANCH  11  13
ENDBRANCH   6   7
BRANCH   1  17
ATOM     15  C   UNL     1       1.408  10.245  18.588  0.00  0.00    +0.000 C 
ATOM     16  O   UNL     1       1.047   9.683  19.609  0.00  0.00    +0.000 OA
ATOM     17  N   UNL     1       1.154  11.550  18.263  0.00  0.00    +0.000 N 
ATOM     18  H   UNL     1       1.404  11.780  17.310  0.00  0.00    +0.000 HD
BRANCH  15  20
ATOM     19  C   UNL     1       2.571   8.337  17.809  0.00  0.00    +0.000 C 
ATOM     20  O   UNL     1       2.153   9.689  17.598  0.00  0.00    +0.000 OA
ENDBRANCH  15  20
ENDBRANCH   1  17
BRANCH   2  21
ATOM     21  O   UNL     1      -1.964  12.221  18.328  0.00  0.00    +0.000 OA
BRANCH  21  22
ATOM     22  C   UNL     1      -2.392  11.243  17.503  0.00  0.00    +0.000 C 
ATOM     23  C   UNL     1      -3.850  11.450  17.197  0.00  0.00    +0.000 C 
ATOM     24  O   UNL     1      -1.702  10.346  17.048  0.00  0.00    +0.000 OA
ENDBRANCH  21  22
ENDBRANCH   2  21
BRANCH   3  25
ATOM     25  O   UNL     1      -2.376  13.828  20.355  0.00  0.00    +0.000 OA
BRANCH  25  26
ATOM     26  C   UNL     1      -3.506  14.138  21.047  0.00  0.00    +0.000 C 
ATOM     27  C   UNL     1      -4.596  13.153  20.738  0.00  0.00    +0.000 C 
ATOM     28  O   UNL     1      -3.627  15.053  21.848  0.00  0.00    +0.000 OA
ENDBRANCH  25  26
ENDBRANCH   3  25
BRANCH   4  29
ATOM     29  O   UNL     1      -0.111  11.603  22.275  0.00  0.00    +0.000 OA
BRANCH  29  30
ATOM     30  C   UNL     1      -0.871  10.759  23.021  0.00  0.00    +0.000 C 
ATOM     31  C   UNL     1      -0.168   9.452  23.241  0.00  0.00    +0.000 C 
ATOM     32  O   UNL     1      -1.971  11.034  23.478  0.00  0.00    +0.000 OA
ENDBRANCH  29  30
ENDBRANCH   4  29
BRANCH   5  33
ATOM     33  O   UNL     1      -0.063  15.042  20.834  0.00  0.00    +0.000 OA
BRANCH  33  34
ATOM     34  C   UNL     1       0.197  16.149  21.576  0.00  0.00    +0.000 C 
ATOM     35  C   UNL     1       0.397  17.343  20.687  0.00  0.00    +0.000 C 
ATOM     36  O   UNL     1       0.331  16.164  22.790  0.00  0.00    +0.000 OA
ENDBRANCH  33  34
ENDBRANCH   5  33
TORSDOF 12
ENDMDL
MODEL 6
REMARK VINA RESULT:      -5.5      2.133      6.274
REMARK  Name = 
REMARK  18 active torsions:
REMARK  status: ('A' for Active; 'I' for Inactive)
REMARK    1  A    between atoms: C_1  and  O_2
REMARK    2  A    between atoms: O_2  and  C_3
REMARK    3  A    between atoms: N_5  and  C_6
REMARK    4  A    between atoms: C_7  and  O_8
REMARK    5  A    between atoms: O_8  and  C_9
REMARK    6  A    between atoms: C_9  and  C_10
REMARK    7  A    between atoms: C_12  and  O_13
REMARK    8  A    between atoms: O_13  and  C_14
REMARK    9  A    between atoms: C_14  and  C_15
REMARK   10  A    between atoms: C_17  and  O_18
REMARK   11  A    between atoms: O_18  and  C_19
REMARK   12  A    between atoms: C_19  and  C_20
REMARK   13  A    between atoms: C_22  and  O_23
REMARK   14  A    between atoms: O_23  and  C_24
REMARK   15  A    between atoms: C_24  and  C_25
REMARK   16  A    between atoms: C_27  and  C_28
REMARK   17  A    between atoms: C_32  and  O_33
REMARK   18  A    between atoms: O_33  and  C_34
REMARK                            x       y       z     vdW  Elec       q    Type
REMARK                         _______ _______ _______ _____ _____    ______ ____
ROOT
ATOM      1  C   UNL     1      -3.748  12.502  19.449  0.00  0.00    +0.000 C 
ATOM      2  C   UNL     1      -2.824  12.024  18.289  0.00  0.00    +0.000 C 
ATOM      3  C   UNL     1      -1.322  11.848  18.639  0.00  0.00    +0.000 C 
ATOM      4  C   UNL     1      -0.798  12.952  19.568  0.00  0.00    +0.000 C 
ATOM      5  C   UNL     1      -1.622  12.993  20.876  0.00  0.00    +0.000 C 
ATOM      6  C   UNL     1      -3.085  13.390  20.548  0.00  0.00    +0.000 C 
ENDROOT
BRANCH   6   7
ATOM      7  C   UNL     1      -3.970  13.487  21.801  0.00  0.00    +0.000 A 
ATOM      8  C   UNL     1      -3.680  14.357  22.867  0.00  0.00    +0.000 A 
ATOM      9  C   UNL     1      -4.519  14.441  23.979  0.00  0.00    +0.000 A 
ATOM     10  C   UNL     1      -5.643  13.627  24.062  0.00  0.00    +0.000 A 
ATOM     11  C   UNL     1      -5.924  12.717  23.042  0.00  0.00    +0.000 A 
ATOM     12  C   UNL     1      -5.105  12.666  21.909  0.00  0.00    +0.000 A 
BRANCH  11  13
ATOM     13  O   UNL     1      -7.043  11.954  23.238  0.00  0.00    +0.000 OA
ATOM     14  C   UNL     1      -7.880  11.793  22.098  0.00  0.00    +0.000 C 
ENDBRANCH  11  13
ENDBRANCH   6   7
BRANCH   1  17
ATOM     15  C   UNL     1      -6.157  12.566  18.624  0.00  0.00    +0.000 C 
ATOM     16  O   UNL     1      -6.401  11.374  18.722  0.00  0.00    +0.000 OA
ATOM     17  N   UNL     1      -4.962  13.163  18.923  0.00  0.00    +0.000 N 
ATOM     18  H   UNL     1      -5.010  14.174  18.923  0.00  0.00    +0.000 HD
BRANCH  15  20
ATOM     19  C   UNL     1      -7.039  13.723  16.758  0.00  0.00    +0.000 C 
ATOM     20  O   UNL     1      -7.015  13.517  18.174  0.00  0.00    +0.000 OA
ENDBRANCH  15  20
ENDBRANCH   1  17
BRANCH   2  21
ATOM     21  O   UNL     1      -3.249  10.700  17.838  0.00  0.00    +0.000 OA
BRANCH  21  22
ATOM     22  C   UNL     1      -3.572  10.456  16.551  0.00  0.00    +0.000 C 
ATOM     23  C   UNL     1      -2.546   9.539  15.944  0.00  0.00    +0.000 C 
ATOM     24  O   UNL     1      -4.557  10.883  15.973  0.00  0.00    +0.000 OA
ENDBRANCH  21  22
ENDBRANCH   2  21
BRANCH   3  25
ATOM     25  O   UNL     1      -1.070  10.566  19.284  0.00  0.00    +0.000 OA
BRANCH  25  26
ATOM     26  C   UNL     1       0.088   9.920  18.975  0.00  0.00    +0.000 C 
ATOM     27  C   UNL     1       0.815   9.521  20.225  0.00  0.00    +0.000 C 
ATOM     28  O   UNL     1       0.478   9.651  17.848  0.00  0.00    +0.000 OA
ENDBRANCH  25  26
ENDBRANCH   3  25
BRANCH   4  29
ATOM     29  O   UNL     1      -0.900  14.257  18.944  0.00  0.00    +0.000 OA
BRANCH  29  30
ATOM     30  C   UNL     1       0.163  15.096  19.060  0.00  0.00    +0.000 C 
ATOM     31  C   UNL     1       1.455  14.360  18.853  0.00  0.00    +0.000 C 
ATOM     32  O   UNL     1       0.082  16.295  19.278  0.00  0.00    +0.000 OA
ENDBRANCH  29  30
ENDBRANCH   4  29
BRANCH   5  33
ATOM     33  O   UNL     1      -1.630  11.742  21.599  0.00  0.00    +0.000 OA
BRANCH  33  34
ATOM     34  C   UNL     1      -0.941  11.692  22.768  0.00  0.00    +0.000 C 
ATOM     35  C   UNL     1      -0.847  10.276  23.263  0.00  0.00    +0.000 C 
ATOM     36  O   UNL     1      -0.524  12.664  23.379  0.00  0.00    +0.000 OA
ENDBRANCH  33  34
ENDBRANCH   5  33
TORSDOF 12
ENDMDL
MODEL 7
REMARK VINA RESULT:      -5.5      0.918      1.062
REMARK  Name = 
REMARK  18 active torsions:
REMARK  status: ('A' for Active; 'I' for Inactive)
REMARK    1  A    between atoms: C_1  and  O_2
REMARK    2  A    between atoms: O_2  and  C_3
REMARK    3  A    between atoms: N_5  and  C_6
REMARK    4  A    between atoms: C_7  and  O_8
REMARK    5  A    between atoms: O_8  and  C_9
REMARK    6  A    between atoms: C_9  and  C_10
REMARK    7  A    between atoms: C_12  and  O_13
REMARK    8  A    between atoms: O_13  and  C_14
REMARK    9  A    between atoms: C_14  and  C_15
REMARK   10  A    between atoms: C_17  and  O_18
REMARK   11  A    between atoms: O_18  and  C_19
REMARK   12  A    between atoms: C_19  and  C_20
REMARK   13  A    between atoms: C_22  and  O_23
REMARK   14  A    between atoms: O_23  and  C_24
REMARK   15  A    between atoms: C_24  and  C_25
REMARK   16  A    between atoms: C_27  and  C_28
REMARK   17  A    between atoms: C_32  and  O_33
REMARK   18  A    between atoms: O_33  and  C_34
REMARK                            x       y       z     vdW  Elec       q    Type
REMARK                         _______ _______ _______ _____ _____    ______ ____
ROOT
ATOM      1  C   UNL     1      -2.165  13.020  19.711  0.00  0.00    +0.000 C 
ATOM      2  C   UNL     1      -3.204  12.223  20.556  0.00  0.00    +0.000 C 
ATOM      3  C   UNL     1      -2.933  12.148  22.082  0.00  0.00    +0.000 C 
ATOM      4  C   UNL     1      -1.445  11.961  22.409  0.00  0.00    +0.000 C 
ATOM      5  C   UNL     1      -0.610  13.112  21.801  0.00  0.00    +0.000 C 
ATOM      6  C   UNL     1      -0.703  13.051  20.254  0.00  0.00    +0.000 C 
ENDROOT
BRANCH   6   7
ATOM      7  C   UNL     1       0.129  14.143  19.564  0.00  0.00    +0.000 A 
ATOM      8  C   UNL     1      -0.394  15.412  19.256  0.00  0.00    +0.000 A 
ATOM      9  C   UNL     1       0.397  16.392  18.654  0.00  0.00    +0.000 A 
ATOM     10  C   UNL     1       1.715  16.106  18.313  0.00  0.00    +0.000 A 
ATOM     11  C   UNL     1       2.241  14.838  18.559  0.00  0.00    +0.000 A 
ATOM     12  C   UNL     1       1.460  13.872  19.202  0.00  0.00    +0.000 A 
BRANCH  11  13
ATOM     13  O   UNL     1       3.539  14.663  18.165  0.00  0.00    +0.000 OA
ATOM     14  C   UNL     1       4.523  15.178  19.054  0.00  0.00    +0.000 C 
ENDBRANCH  11  13
ENDBRANCH   6   7
BRANCH   1  17
ATOM     15  C   UNL     1      -2.018  11.297  17.841  0.00  0.00    +0.000 C 
ATOM     16  O   UNL     1      -1.814  10.313  18.533  0.00  0.00    +0.000 OA
ATOM     17  N   UNL     1      -2.176  12.577  18.300  0.00  0.00    +0.000 N 
ATOM     18  H   UNL     1      -2.489  13.221  17.585  0.00  0.00    +0.000 HD
BRANCH  15  20
ATOM     19  C   UNL     1      -2.673  10.151  15.877  0.00  0.00    +0.000 C 
ATOM     20  O   UNL     1      -2.097  11.311  16.485  0.00  0.00    +0.000 OA
ENDBRANCH  15  20
ENDBRANCH   1  17
BRANCH   2  21
ATOM     21  O   UNL     1      -4.514  12.864  20.451  0.00  0.00    +0.000 OA
BRANCH  21  22
ATOM     22  C   UNL     1      -5.648  12.147  20.301  0.00  0.00    +0.000 C 
ATOM     23  C   UNL     1      -5.889  11.892  18.839  0.00  0.00    +0.000 C 
ATOM     24  O   UNL     1      -6.354  11.739  21.208  0.00  0.00    +0.000 OA
ENDBRANCH  21  22
ENDBRANCH   2  21
BRANCH   3  25
ATOM     25  O   UNL     1      -3.391  13.350  22.767  0.00  0.00    +0.000 OA
BRANCH  25  26
ATOM     26  C   UNL     1      -4.332  13.203  23.739  0.00  0.00    +0.000 C 
ATOM     27  C   UNL     1      -5.221  14.411  23.794  0.00  0.00    +0.000 C 
ATOM     28  O   UNL     1      -4.482  12.218  24.447  0.00  0.00    +0.000 OA
ENDBRANCH  25  26
ENDBRANCH   3  25
BRANCH   4  29
ATOM     29  O   UNL     1      -0.939  10.716  21.864  0.00  0.00    +0.000 OA
BRANCH  29  30
ATOM     30  C   UNL     1       0.002  10.050  22.584  0.00  0.00    +0.000 C 
ATOM     31  C   UNL     1       1.035   9.439  21.683  0.00  0.00    +0.000 C 
ATOM     32  O   UNL     1       0.024   9.979  23.803  0.00  0.00    +0.000 OA
ENDBRANCH  29  30
ENDBRANCH   4  29
BRANCH   5  33
ATOM     33  O   UNL     1      -1.020  14.426  22.240  0.00  0.00    +0.000 OA
BRANCH  33  34
ATOM     34  C   UNL     1      -0.242  15.047  23.164  0.00  0.00    +0.000 C 
ATOM     35  C   UNL     1      -1.039  15.360  24.398  0.00  0.00    +0.000 C 
ATOM     36  O   UNL     1       0.921  15.379  22.992  0.00  0.00    +0.000 OA
ENDBRANCH  33  34
ENDBRANCH   5  33
TORSDOF 12
ENDMDL
MODEL 8
REMARK VINA RESULT:      -5.5      2.159      6.071
REMARK  Name = 
REMARK  18 active torsions:
REMARK  status: ('A' for Active; 'I' for Inactive)
REMARK    1  A    between atoms: C_1  and  O_2
REMARK    2  A    between atoms: O_2  and  C_3
REMARK    3  A    between atoms: N_5  and  C_6
REMARK    4  A    between atoms: C_7  and  O_8
REMARK    5  A    between atoms: O_8  and  C_9
REMARK    6  A    between atoms: C_9  and  C_10
REMARK    7  A    between atoms: C_12  and  O_13
REMARK    8  A    between atoms: O_13  and  C_14
REMARK    9  A    between atoms: C_14  and  C_15
REMARK   10  A    between atoms: C_17  and  O_18
REMARK   11  A    between atoms: O_18  and  C_19
REMARK   12  A    between atoms: C_19  and  C_20
REMARK   13  A    between atoms: C_22  and  O_23
REMARK   14  A    between atoms: O_23  and  C_24
REMARK   15  A    between atoms: C_24  and  C_25
REMARK   16  A    between atoms: C_27  and  C_28
REMARK   17  A    between atoms: C_32  and  O_33
REMARK   18  A    between atoms: O_33  and  C_34
REMARK                            x       y       z     vdW  Elec       q    Type
REMARK                         _______ _______ _______ _____ _____    ______ ____
ROOT
ATOM      1  C   UNL     1      -3.676  12.303  19.246  0.00  0.00    +0.000 C 
ATOM      2  C   UNL     1      -2.662  11.798  18.176  0.00  0.00    +0.000 C 
ATOM      3  C   UNL     1      -1.180  11.707  18.627  0.00  0.00    +0.000 C 
ATOM      4  C   UNL     1      -0.759  12.886  19.516  0.00  0.00    +0.000 C 
ATOM      5  C   UNL     1      -1.666  12.968  20.766  0.00  0.00    +0.000 C 
ATOM      6  C   UNL     1      -3.120  13.282  20.326  0.00  0.00    +0.000 C 
ENDROOT
BRANCH   6   7
ATOM      7  C   UNL     1      -4.085  13.415  21.514  0.00  0.00    +0.000 A 
ATOM      8  C   UNL     1      -5.197  12.571  21.684  0.00  0.00    +0.000 A 
ATOM      9  C   UNL     1      -6.040  12.701  22.790  0.00  0.00    +0.000 A 
ATOM     10  C   UNL     1      -5.808  13.704  23.724  0.00  0.00    +0.000 A 
ATOM     11  C   UNL     1      -4.742  14.588  23.550  0.00  0.00    +0.000 A 
ATOM     12  C   UNL     1      -3.874  14.428  22.465  0.00  0.00    +0.000 A 
BRANCH  11  13
ATOM     13  O   UNL     1      -4.621  15.547  24.518  0.00  0.00    +0.000 OA
ATOM     14  C   UNL     1      -5.337  16.753  24.278  0.00  0.00    +0.000 C 
ENDBRANCH  11  13
ENDBRANCH   6   7
BRANCH   1  17
ATOM     15  C   UNL     1      -5.997  12.200  18.203  0.00  0.00    +0.000 C 
ATOM     16  O   UNL     1      -6.166  10.995  18.284  0.00  0.00    +0.000 OA
ATOM     17  N   UNL     1      -4.879  12.879  18.607  0.00  0.00    +0.000 N 
ATOM     18  H   UNL     1      -4.997  13.884  18.598  0.00  0.00    +0.000 HD
BRANCH  15  20
ATOM     19  C   UNL     1      -6.809  14.423  18.186  0.00  0.00    +0.000 C 
ATOM     20  O   UNL     1      -6.875  13.090  17.671  0.00  0.00    +0.000 OA
ENDBRANCH  15  20
ENDBRANCH   1  17
BRANCH   2  21
ATOM     21  O   UNL     1      -3.005  10.432  17.783  0.00  0.00    +0.000 OA
BRANCH  21  22
ATOM     22  C   UNL     1      -2.840   9.993  16.518  0.00  0.00    +0.000 C 
ATOM     23  C   UNL     1      -3.813  10.697  15.612  0.00  0.00    +0.000 C 
ATOM     24  O   UNL     1      -2.011   9.175  16.153  0.00  0.00    +0.000 OA
ENDBRANCH  21  22
ENDBRANCH   2  21
BRANCH   3  25
ATOM     25  O   UNL     1      -0.918  10.478  19.365  0.00  0.00    +0.000 OA
BRANCH  25  26
ATOM     26  C   UNL     1       0.242   9.817  19.099  0.00  0.00    +0.000 C 
ATOM     27  C   UNL     1       0.820   9.247  20.361  0.00  0.00    +0.000 C 
ATOM     28  O   UNL     1       0.736   9.655  17.993  0.00  0.00    +0.000 OA
ENDBRANCH  25  26
ENDBRANCH   3  25
BRANCH   4  29
ATOM     29  O   UNL     1      -0.873  14.146  18.808  0.00  0.00    +0.000 OA
BRANCH  29  30
ATOM     30  C   UNL     1       0.146  15.037  18.939  0.00  0.00    +0.000 C 
ATOM     31  C   UNL     1      -0.378  16.432  19.112  0.00  0.00    +0.000 C 
ATOM     32  O   UNL     1       1.331  14.741  18.944  0.00  0.00    +0.000 OA
ENDBRANCH  29  30
ENDBRANCH   4  29
BRANCH   5  33
ATOM     33  O   UNL     1      -1.671  11.763  21.564  0.00  0.00    +0.000 OA
BRANCH  33  34
ATOM     34  C   UNL     1      -0.942  11.770  22.710  0.00  0.00    +0.000 C 
ATOM     35  C   UNL     1      -0.831  10.380  23.270  0.00  0.00    +0.000 C 
ATOM     36  O   UNL     1      -0.503  12.770  23.257  0.00  0.00    +0.000 OA
ENDBRANCH  33  34
ENDBRANCH   5  33
TORSDOF 12
ENDMDL
MODEL 9
REMARK VINA RESULT:      -5.5      2.068      3.374
REMARK  Name = 
REMARK  18 active torsions:
REMARK  status: ('A' for Active; 'I' for Inactive)
REMARK    1  A    between atoms: C_1  and  O_2
REMARK    2  A    between atoms: O_2  and  C_3
REMARK    3  A    between atoms: N_5  and  C_6
REMARK    4  A    between atoms: C_7  and  O_8
REMARK    5  A    between atoms: O_8  and  C_9
REMARK    6  A    between atoms: C_9  and  C_10
REMARK    7  A    between atoms: C_12  and  O_13
REMARK    8  A    between atoms: O_13  and  C_14
REMARK    9  A    between atoms: C_14  and  C_15
REMARK   10  A    between atoms: C_17  and  O_18
REMARK   11  A    between atoms: O_18  and  C_19
REMARK   12  A    between atoms: C_19  and  C_20
REMARK   13  A    between atoms: C_22  and  O_23
REMARK   14  A    between atoms: O_23  and  C_24
REMARK   15  A    between atoms: C_24  and  C_25
REMARK   16  A    between atoms: C_27  and  C_28
REMARK   17  A    between atoms: C_32  and  O_33
REMARK   18  A    between atoms: O_33  and  C_34
REMARK                            x       y       z     vdW  Elec       q    Type
REMARK                         _______ _______ _______ _____ _____    ______ ____
ROOT
ATOM      1  C   UNL     1       0.242  11.893  18.633  0.00  0.00    +0.000 C 
ATOM      2  C   UNL     1      -1.152  11.204  18.732  0.00  0.00    +0.000 C 
ATOM      3  C   UNL     1      -2.094  11.722  19.852  0.00  0.00    +0.000 C 
ATOM      4  C   UNL     1      -1.347  12.025  21.159  0.00  0.00    +0.000 C 
ATOM      5  C   UNL     1      -0.229  13.066  20.913  0.00  0.00    +0.000 C 
ATOM      6  C   UNL     1       0.835  12.461  19.960  0.00  0.00    +0.000 C 
ENDROOT
BRANCH   6   7
ATOM      7  C   UNL     1       2.004  13.420  19.688  0.00  0.00    +0.000 A 
ATOM      8  C   UNL     1       2.979  13.718  20.655  0.00  0.00    +0.000 A 
ATOM      9  C   UNL     1       4.044  14.574  20.366  0.00  0.00    +0.000 A 
ATOM     10  C   UNL     1       4.130  15.177  19.117  0.00  0.00    +0.000 A 
ATOM     11  C   UNL     1       3.144  14.940  18.158  0.00  0.00    +0.000 A 
ATOM     12  C   UNL     1       2.103  14.049  18.435  0.00  0.00    +0.000 A 
BRANCH  11  13
ATOM     13  O   UNL     1       3.318  15.602  16.973  0.00  0.00    +0.000 OA
ATOM     14  C   UNL     1       2.933  16.972  16.976  0.00  0.00    +0.000 C 
ENDBRANCH  11  13
ENDBRANCH   6   7
BRANCH   1  17
ATOM     15  C   UNL     1       1.595   9.750  18.373  0.00  0.00    +0.000 C 
ATOM     16  O   UNL     1       1.183   9.168  19.362  0.00  0.00    +0.000 OA
ATOM     17  N   UNL     1       1.226  11.007  17.974  0.00  0.00    +0.000 N 
ATOM     18  H   UNL     1       1.561  11.246  17.049  0.00  0.00    +0.000 HD
BRANCH  15  20
ATOM     19  C   UNL     1       3.004   7.951  17.757  0.00  0.00    +0.000 C 
ATOM     20  O   UNL     1       2.517   9.272  17.498  0.00  0.00    +0.000 OA
ENDBRANCH  15  20
ENDBRANCH   1  17
BRANCH   2  21
ATOM     21  O   UNL     1      -1.899  11.432  17.497  0.00  0.00    +0.000 OA
BRANCH  21  22
ATOM     22  C   UNL     1      -2.658  10.469  16.935  0.00  0.00    +0.000 C 
ATOM     23  C   UNL     1      -2.806  10.742  15.463  0.00  0.00    +0.000 C 
ATOM     24  O   UNL     1      -3.129   9.506  17.518  0.00  0.00    +0.000 OA
ENDBRANCH  21  22
ENDBRANCH   2  21
BRANCH   3  25
ATOM     25  O   UNL     1      -2.790  12.936  19.447  0.00  0.00    +0.000 OA
BRANCH  25  26
ATOM     26  C   UNL     1      -4.040  13.143  19.946  0.00  0.00    +0.000 C 
ATOM     27  C   UNL     1      -5.038  12.276  19.235  0.00  0.00    +0.000 C 
ATOM     28  O   UNL     1      -4.327  13.887  20.872  0.00  0.00    +0.000 OA
ENDBRANCH  25  26
ENDBRANCH   3  25
BRANCH   4  29
ATOM     29  O   UNL     1      -0.723  10.831  21.697  0.00  0.00    +0.000 OA
BRANCH  29  30
ATOM     30  C   UNL     1      -0.831  10.614  23.035  0.00  0.00    +0.000 C 
ATOM     31  C   UNL     1      -2.039  11.303  23.598  0.00  0.00    +0.000 C 
ATOM     32  O   UNL     1      -0.063   9.926  23.691  0.00  0.00    +0.000 OA
ENDBRANCH  29  30
ENDBRANCH   4  29
BRANCH   5  33
ATOM     33  O   UNL     1      -0.704  14.309  20.351  0.00  0.00    +0.000 OA
BRANCH  33  34
ATOM     34  C   UNL     1      -0.830  15.368  21.192  0.00  0.00    +0.000 C 
ATOM     35  C   UNL     1       0.251  16.378  20.929  0.00  0.00    +0.000 C 
ATOM     36  O   UNL     1      -1.652  15.456  22.091  0.00  0.00    +0.000 OA
ENDBRANCH  33  34
ENDBRANCH   5  33
TORSDOF 12
ENDMDL
