MODEL 1
REMARK VINA RESULT:      -9.2      0.000      0.000
REMARK  Name = 
REMARK  3 active torsions:
REMARK  status: ('A' for Active; 'I' for Inactive)
REMARK    1  A    between atoms: C_1  and  C_2
REMARK    2  A    between atoms: C_5  and  C_6
REMARK    3  A    between atoms: C_8  and  C_9
REMARK                            x       y       z     vdW  Elec       q    Type
REMARK                         _______ _______ _______ _____ _____    ______ ____
ROOT
ATOM      1  C   UNL     1       4.426   5.098  17.347  0.00  0.00    +0.000 A 
ATOM      2  C   UNL     1       3.898   6.294  17.790  0.00  0.00    +0.000 A 
ATOM      3  C   UNL     1       2.866   6.275  18.749  0.00  0.00    +0.000 A 
ATOM      4  C   UNL     1       2.425   5.031  19.280  0.00  0.00    +0.000 A 
ATOM      5  C   UNL     1       1.382   4.825  20.231  0.00  0.00    +0.000 A 
ATOM      6  C   UNL     1       1.042   3.544  20.679  0.00  0.00    +0.000 A 
ATOM      7  C   UNL     1       1.699   2.431  20.177  0.00  0.00    +0.000 A 
ATOM      8  C   UNL     1       2.700   2.616  19.222  0.00  0.00    +0.000 A 
ATOM      9  C   UNL     1       3.070   3.872  18.773  0.00  0.00    +0.000 A 
ATOM     10  N   UNL     1       4.026   3.911  17.839  0.00  0.00    +0.000 NA
ENDROOT
BRANCH   3  11
ATOM     11  C   UNL     1       2.235   7.610  19.040  0.00  0.00    +0.000 C 
ATOM     12  O   UNL     1       2.154   7.960  20.222  0.00  0.00    +0.000 OA
ATOM     13  N   UNL     1       1.695   8.316  17.988  0.00  0.00    +0.000 N 
ATOM     14  C   UNL     1       0.938   9.483  18.194  0.00  0.00    +0.000 A 
ATOM     15  C   UNL     1       1.447  10.583  18.877  0.00  0.00    +0.000 A 
ATOM     16  C   UNL     1       0.634  11.705  19.047  0.00  0.00    +0.000 A 
ATOM     17  C   UNL     1      -0.670  11.676  18.564  0.00  0.00    +0.000 A 
ATOM     18  C   UNL     1      -1.077  10.545  17.877  0.00  0.00    +0.000 A 
ATOM     19  N   UNL     1      -0.289   9.472  17.637  0.00  0.00    +0.000 NA
ATOM     20  H   UNL     1       1.355   7.768  17.208  0.00  0.00    +0.000 HD
ENDBRANCH   3  11
BRANCH   1  25
ATOM     21  C   UNL     1       5.993   3.612  13.027  0.00  0.00    +0.000 C 
ATOM     22  C   UNL     1       6.151   4.303  14.323  0.00  0.00    +0.000 A 
ATOM     23  C   UNL     1       7.187   5.011  14.891  0.00  0.00    +0.000 A 
ATOM     24  C   UNL     1       6.715   5.463  16.144  0.00  0.00    +0.000 A 
ATOM     25  C   UNL     1       5.422   4.995  16.283  0.00  0.00    +0.000 A 
ATOM     26  O   UNL     1       5.078   4.281  15.163  0.00  0.00    +0.000 OA
ENDBRANCH   1  25
TORSDOF 2
ENDMDL
MODEL 2
REMARK VINA RESULT:      -8.8      1.262      1.472
REMARK  Name = 
REMARK  3 active torsions:
REMARK  status: ('A' for Active; 'I' for Inactive)
REMARK    1  A    between atoms: C_1  and  C_2
REMARK    2  A    between atoms: C_5  and  C_6
REMARK    3  A    between atoms: C_8  and  C_9
REMARK                            x       y       z     vdW  Elec       q    Type
REMARK                         _______ _______ _______ _____ _____    ______ ____
ROOT
ATOM      1  C   UNL     1       4.674   5.392  17.191  0.00  0.00    +0.000 A 
ATOM      2  C   UNL     1       4.017   6.596  17.348  0.00  0.00    +0.000 A 
ATOM      3  C   UNL     1       3.057   6.726  18.371  0.00  0.00    +0.000 A 
ATOM      4  C   UNL     1       2.821   5.635  19.254  0.00  0.00    +0.000 A 
ATOM      5  C   UNL     1       1.875   5.583  20.319  0.00  0.00    +0.000 A 
ATOM      6  C   UNL     1       1.737   4.446  21.122  0.00  0.00    +0.000 A 
ATOM      7  C   UNL     1       2.506   3.319  20.874  0.00  0.00    +0.000 A 
ATOM      8  C   UNL     1       3.414   3.345  19.814  0.00  0.00    +0.000 A 
ATOM      9  C   UNL     1       3.583   4.462  19.014  0.00  0.00    +0.000 A 
ATOM     10  N   UNL     1       4.468   4.349  18.018  0.00  0.00    +0.000 NA
ENDROOT
BRANCH   3  11
ATOM     11  C   UNL     1       2.271   8.009  18.355  0.00  0.00    +0.000 C 
ATOM     12  O   UNL     1       2.401   8.749  17.376  0.00  0.00    +0.000 OA
ATOM     13  N   UNL     1       1.534   8.331  19.473  0.00  0.00    +0.000 N 
ATOM     14  C   UNL     1       0.912   9.585  19.611  0.00  0.00    +0.000 A 
ATOM     15  C   UNL     1      -0.001  10.064  18.677  0.00  0.00    +0.000 A 
ATOM     16  C   UNL     1      -0.573  11.321  18.878  0.00  0.00    +0.000 A 
ATOM     17  C   UNL     1      -0.186  12.073  19.983  0.00  0.00    +0.000 A 
ATOM     18  C   UNL     1       0.711  11.501  20.868  0.00  0.00    +0.000 A 
ATOM     19  N   UNL     1       1.229  10.258  20.735  0.00  0.00    +0.000 NA
ATOM     20  H   UNL     1       1.876   7.971  20.355  0.00  0.00    +0.000 HD
ENDBRANCH   3  11
BRANCH   1  25
ATOM     21  C   UNL     1       5.869   3.553  12.888  0.00  0.00    +0.000 C 
ATOM     22  C   UNL     1       6.167   4.258  14.151  0.00  0.00    +0.000 A 
ATOM     23  C   UNL     1       7.311   4.830  14.662  0.00  0.00    +0.000 A 
ATOM     24  C   UNL     1       6.950   5.386  15.911  0.00  0.00    +0.000 A 
ATOM     25  C   UNL     1       5.608   5.112  16.104  0.00  0.00    +0.000 A 
ATOM     26  O   UNL     1       5.130   4.417  15.022  0.00  0.00    +0.000 OA
ENDBRANCH   1  25
TORSDOF 2
ENDMDL
MODEL 3
REMARK VINA RESULT:      -8.8      1.543      1.844
REMARK  Name = 
REMARK  3 active torsions:
REMARK  status: ('A' for Active; 'I' for Inactive)
REMARK    1  A    between atoms: C_1  and  C_2
REMARK    2  A    between atoms: C_5  and  C_6
REMARK    3  A    between atoms: C_8  and  C_9
REMARK                            x       y       z     vdW  Elec       q    Type
REMARK                         _______ _______ _______ _____ _____    ______ ____
ROOT
ATOM      1  C   UNL     1       4.580   4.736  16.728  0.00  0.00    +0.000 A 
ATOM      2  C   UNL     1       4.133   5.915  17.289  0.00  0.00    +0.000 A 
ATOM      3  C   UNL     1       3.092   5.872  18.237  0.00  0.00    +0.000 A 
ATOM      4  C   UNL     1       2.559   4.615  18.637  0.00  0.00    +0.000 A 
ATOM      5  C   UNL     1       1.494   4.389  19.558  0.00  0.00    +0.000 A 
ATOM      6  C   UNL     1       1.060   3.097  19.871  0.00  0.00    +0.000 A 
ATOM      7  C   UNL     1       1.641   1.996  19.261  0.00  0.00    +0.000 A 
ATOM      8  C   UNL     1       2.663   2.205  18.334  0.00  0.00    +0.000 A 
ATOM      9  C   UNL     1       3.126   3.471  18.017  0.00  0.00    +0.000 A 
ATOM     10  N   UNL     1       4.093   3.536  17.095  0.00  0.00    +0.000 NA
ENDROOT
BRANCH   3  11
ATOM     11  C   UNL     1       2.554   7.212  18.661  0.00  0.00    +0.000 C 
ATOM     12  O   UNL     1       3.001   8.214  18.096  0.00  0.00    +0.000 OA
ATOM     13  N   UNL     1       1.672   7.251  19.719  0.00  0.00    +0.000 N 
ATOM     14  C   UNL     1       1.257   8.468  20.288  0.00  0.00    +0.000 A 
ATOM     15  C   UNL     1       0.644   9.465  19.536  0.00  0.00    +0.000 A 
ATOM     16  C   UNL     1       0.264  10.649  20.171  0.00  0.00    +0.000 A 
ATOM     17  C   UNL     1       0.543  10.813  21.523  0.00  0.00    +0.000 A 
ATOM     18  C   UNL     1       1.134   9.755  22.191  0.00  0.00    +0.000 A 
ATOM     19  N   UNL     1       1.450   8.570  21.618  0.00  0.00    +0.000 NA
ATOM     20  H   UNL     1       1.764   6.515  20.407  0.00  0.00    +0.000 HD
ENDBRANCH   3  11
BRANCH   1  25
ATOM     21  C   UNL     1       6.152   3.409  12.358  0.00  0.00    +0.000 C 
ATOM     22  C   UNL     1       6.310   4.051  13.679  0.00  0.00    +0.000 A 
ATOM     23  C   UNL     1       7.346   4.735  14.275  0.00  0.00    +0.000 A 
ATOM     24  C   UNL     1       6.872   5.140  15.544  0.00  0.00    +0.000 A 
ATOM     25  C   UNL     1       5.578   4.670  15.662  0.00  0.00    +0.000 A 
ATOM     26  O   UNL     1       5.235   4.000  14.516  0.00  0.00    +0.000 OA
ENDBRANCH   1  25
TORSDOF 2
ENDMDL
MODEL 4
REMARK VINA RESULT:      -8.5      1.781      7.134
REMARK  Name = 
REMARK  3 active torsions:
REMARK  status: ('A' for Active; 'I' for Inactive)
REMARK    1  A    between atoms: C_1  and  C_2
REMARK    2  A    between atoms: C_5  and  C_6
REMARK    3  A    between atoms: C_8  and  C_9
REMARK                            x       y       z     vdW  Elec       q    Type
REMARK                         _______ _______ _______ _____ _____    ______ ____
ROOT
ATOM      1  C   UNL     1       2.475   7.108  18.856  0.00  0.00    +0.000 A 
ATOM      2  C   UNL     1       3.232   6.953  17.712  0.00  0.00    +0.000 A 
ATOM      3  C   UNL     1       3.917   5.740  17.502  0.00  0.00    +0.000 A 
ATOM      4  C   UNL     1       3.773   4.681  18.443  0.00  0.00    +0.000 A 
ATOM      5  C   UNL     1       4.408   3.405  18.401  0.00  0.00    +0.000 A 
ATOM      6  C   UNL     1       4.182   2.443  19.391  0.00  0.00    +0.000 A 
ATOM      7  C   UNL     1       3.351   2.725  20.464  0.00  0.00    +0.000 A 
ATOM      8  C   UNL     1       2.748   3.982  20.533  0.00  0.00    +0.000 A 
ATOM      9  C   UNL     1       2.939   4.948  19.560  0.00  0.00    +0.000 A 
ATOM     10  N   UNL     1       2.323   6.118  19.756  0.00  0.00    +0.000 NA
ENDROOT
BRANCH   3  11
ATOM     11  C   UNL     1       4.852   5.725  16.323  0.00  0.00    +0.000 C 
ATOM     12  O   UNL     1       5.225   6.813  15.875  0.00  0.00    +0.000 OA
ATOM     13  N   UNL     1       5.157   4.509  15.753  0.00  0.00    +0.000 N 
ATOM     14  C   UNL     1       5.880   4.419  14.550  0.00  0.00    +0.000 A 
ATOM     15  C   UNL     1       7.143   4.984  14.402  0.00  0.00    +0.000 A 
ATOM     16  C   UNL     1       7.797   4.858  13.176  0.00  0.00    +0.000 A 
ATOM     17  C   UNL     1       7.154   4.209  12.127  0.00  0.00    +0.000 A 
ATOM     18  C   UNL     1       5.908   3.661  12.378  0.00  0.00    +0.000 A 
ATOM     19  N   UNL     1       5.280   3.707  13.576  0.00  0.00    +0.000 NA
ATOM     20  H   UNL     1       4.453   3.786  15.835  0.00  0.00    +0.000 HD
ENDBRANCH   3  11
BRANCH   1  25
ATOM     21  C   UNL     1       0.274  10.068  21.974  0.00  0.00    +0.000 C 
ATOM     22  C   UNL     1       0.787   9.702  20.638  0.00  0.00    +0.000 A 
ATOM     23  C   UNL     1       0.809  10.358  19.427  0.00  0.00    +0.000 A 
ATOM     24  C   UNL     1       1.475   9.497  18.525  0.00  0.00    +0.000 A 
ATOM     25  C   UNL     1       1.811   8.355  19.228  0.00  0.00    +0.000 A 
ATOM     26  O   UNL     1       1.386   8.483  20.526  0.00  0.00    +0.000 OA
ENDBRANCH   1  25
TORSDOF 2
ENDMDL
MODEL 5
REMARK VINA RESULT:      -8.1      3.893      6.522
REMARK  Name = 
REMARK  3 active torsions:
REMARK  status: ('A' for Active; 'I' for Inactive)
REMARK    1  A    between atoms: C_1  and  C_2
REMARK    2  A    between atoms: C_5  and  C_6
REMARK    3  A    between atoms: C_8  and  C_9
REMARK                            x       y       z     vdW  Elec       q    Type
REMARK                         _______ _______ _______ _____ _____    ______ ____
ROOT
ATOM      1  C   UNL     1       7.172   7.136  17.440  0.00  0.00    +0.000 A 
ATOM      2  C   UNL     1       6.084   6.561  18.066  0.00  0.00    +0.000 A 
ATOM      3  C   UNL     1       5.370   5.544  17.404  0.00  0.00    +0.000 A 
ATOM      4  C   UNL     1       5.813   5.091  16.130  0.00  0.00    +0.000 A 
ATOM      5  C   UNL     1       5.200   4.096  15.313  0.00  0.00    +0.000 A 
ATOM      6  C   UNL     1       5.737   3.736  14.072  0.00  0.00    +0.000 A 
ATOM      7  C   UNL     1       6.872   4.370  13.591  0.00  0.00    +0.000 A 
ATOM      8  C   UNL     1       7.464   5.368  14.367  0.00  0.00    +0.000 A 
ATOM      9  C   UNL     1       6.965   5.733  15.606  0.00  0.00    +0.000 A 
ATOM     10  N   UNL     1       7.611   6.719  16.237  0.00  0.00    +0.000 NA
ENDROOT
BRANCH   3  11
ATOM     11  C   UNL     1       4.102   5.102  18.084  0.00  0.00    +0.000 C 
ATOM     12  O   UNL     1       3.161   5.900  18.116  0.00  0.00    +0.000 OA
ATOM     13  N   UNL     1       4.097   3.878  18.715  0.00  0.00    +0.000 N 
ATOM     14  C   UNL     1       3.018   3.465  19.516  0.00  0.00    +0.000 A 
ATOM     15  C   UNL     1       1.718   3.394  19.026  0.00  0.00    +0.000 A 
ATOM     16  C   UNL     1       0.697   2.981  19.884  0.00  0.00    +0.000 A 
ATOM     17  C   UNL     1       1.001   2.690  21.209  0.00  0.00    +0.000 A 
ATOM     18  C   UNL     1       2.327   2.768  21.597  0.00  0.00    +0.000 A 
ATOM     19  N   UNL     1       3.347   3.098  20.771  0.00  0.00    +0.000 NA
ATOM     20  H   UNL     1       4.987   3.553  19.070  0.00  0.00    +0.000 HD
ENDBRANCH   3  11
BRANCH   1  25
ATOM     21  C   UNL     1       8.438  11.793  17.624  0.00  0.00    +0.000 C 
ATOM     22  C   UNL     1       8.518  10.385  18.062  0.00  0.00    +0.000 A 
ATOM     23  C   UNL     1       9.250   9.743  19.037  0.00  0.00    +0.000 A 
ATOM     24  C   UNL     1       8.858   8.385  18.994  0.00  0.00    +0.000 A 
ATOM     25  C   UNL     1       7.920   8.266  17.986  0.00  0.00    +0.000 A 
ATOM     26  O   UNL     1       7.714   9.495  17.413  0.00  0.00    +0.000 OA
ENDBRANCH   1  25
TORSDOF 2
ENDMDL
MODEL 6
REMARK VINA RESULT:      -8.1      4.033      6.394
REMARK  Name = 
REMARK  3 active torsions:
REMARK  status: ('A' for Active; 'I' for Inactive)
REMARK    1  A    between atoms: C_1  and  C_2
REMARK    2  A    between atoms: C_5  and  C_6
REMARK    3  A    between atoms: C_8  and  C_9
REMARK                            x       y       z     vdW  Elec       q    Type
REMARK                         _______ _______ _______ _____ _____    ______ ____
ROOT
ATOM      1  C   UNL     1       7.404   7.088  17.655  0.00  0.00    +0.000 A 
ATOM      2  C   UNL     1       6.605   6.302  18.461  0.00  0.00    +0.000 A 
ATOM      3  C   UNL     1       5.957   5.183  17.903  0.00  0.00    +0.000 A 
ATOM      4  C   UNL     1       6.180   4.852  16.537  0.00  0.00    +0.000 A 
ATOM      5  C   UNL     1       5.591   3.778  15.808  0.00  0.00    +0.000 A 
ATOM      6  C   UNL     1       5.894   3.555  14.460  0.00  0.00    +0.000 A 
ATOM      7  C   UNL     1       6.760   4.405  13.789  0.00  0.00    +0.000 A 
ATOM      8  C   UNL     1       7.319   5.479  14.483  0.00  0.00    +0.000 A 
ATOM      9  C   UNL     1       7.051   5.714  15.821  0.00  0.00    +0.000 A 
ATOM     10  N   UNL     1       7.632   6.791  16.362  0.00  0.00    +0.000 NA
ENDROOT
BRANCH   3  11
ATOM     11  C   UNL     1       4.974   4.492  18.809  0.00  0.00    +0.000 C 
ATOM     12  O   UNL     1       5.403   3.600  19.547  0.00  0.00    +0.000 OA
ATOM     13  N   UNL     1       3.641   4.822  18.691  0.00  0.00    +0.000 N 
ATOM     14  C   UNL     1       2.641   4.106  19.372  0.00  0.00    +0.000 A 
ATOM     15  C   UNL     1       2.646   3.963  20.756  0.00  0.00    +0.000 A 
ATOM     16  C   UNL     1       1.622   3.233  21.361  0.00  0.00    +0.000 A 
ATOM     17  C   UNL     1       0.651   2.638  20.563  0.00  0.00    +0.000 A 
ATOM     18  C   UNL     1       0.718   2.857  19.198  0.00  0.00    +0.000 A 
ATOM     19  N   UNL     1       1.658   3.617  18.591  0.00  0.00    +0.000 NA
ATOM     20  H   UNL     1       3.337   5.138  17.780  0.00  0.00    +0.000 HD
ENDBRANCH   3  11
BRANCH   1  25
ATOM     21  C   UNL     1       8.158  11.855  17.486  0.00  0.00    +0.000 C 
ATOM     22  C   UNL     1       8.403  10.498  18.015  0.00  0.00    +0.000 A 
ATOM     23  C   UNL     1       9.223  10.008  19.006  0.00  0.00    +0.000 A 
ATOM     24  C   UNL     1       8.981   8.617  19.067  0.00  0.00    +0.000 A 
ATOM     25  C   UNL     1       8.038   8.327  18.099  0.00  0.00    +0.000 A 
ATOM     26  O   UNL     1       7.684   9.484  17.453  0.00  0.00    +0.000 OA
ENDBRANCH   1  25
TORSDOF 2
ENDMDL
MODEL 7
REMARK VINA RESULT:      -8.1      1.783      6.951
REMARK  Name = 
REMARK  3 active torsions:
REMARK  status: ('A' for Active; 'I' for Inactive)
REMARK    1  A    between atoms: C_1  and  C_2
REMARK    2  A    between atoms: C_5  and  C_6
REMARK    3  A    between atoms: C_8  and  C_9
REMARK                            x       y       z     vdW  Elec       q    Type
REMARK                         _______ _______ _______ _____ _____    ______ ____
ROOT
ATOM      1  C   UNL     1       2.395   6.973  19.225  0.00  0.00    +0.000 A 
ATOM      2  C   UNL     1       3.140   6.864  18.067  0.00  0.00    +0.000 A 
ATOM      3  C   UNL     1       3.802   5.653  17.789  0.00  0.00    +0.000 A 
ATOM      4  C   UNL     1       3.649   4.550  18.675  0.00  0.00    +0.000 A 
ATOM      5  C   UNL     1       4.263   3.268  18.563  0.00  0.00    +0.000 A 
ATOM      6  C   UNL     1       4.031   2.260  19.504  0.00  0.00    +0.000 A 
ATOM      7  C   UNL     1       3.214   2.500  20.598  0.00  0.00    +0.000 A 
ATOM      8  C   UNL     1       2.631   3.761  20.737  0.00  0.00    +0.000 A 
ATOM      9  C   UNL     1       2.830   4.772  19.812  0.00  0.00    +0.000 A 
ATOM     10  N   UNL     1       2.234   5.941  20.075  0.00  0.00    +0.000 NA
ENDROOT
BRANCH   3  11
ATOM     11  C   UNL     1       4.726   5.684  16.602  0.00  0.00    +0.000 C 
ATOM     12  O   UNL     1       5.044   6.788  16.151  0.00  0.00    +0.000 OA
ATOM     13  N   UNL     1       5.083   4.484  16.026  0.00  0.00    +0.000 N 
ATOM     14  C   UNL     1       5.798   4.430  14.817  0.00  0.00    +0.000 A 
ATOM     15  C   UNL     1       7.032   5.053  14.659  0.00  0.00    +0.000 A 
ATOM     16  C   UNL     1       7.681   4.960  13.426  0.00  0.00    +0.000 A 
ATOM     17  C   UNL     1       7.059   4.283  12.383  0.00  0.00    +0.000 A 
ATOM     18  C   UNL     1       5.842   3.677  12.644  0.00  0.00    +0.000 A 
ATOM     19  N   UNL     1       5.224   3.691  13.847  0.00  0.00    +0.000 NA
ATOM     20  H   UNL     1       4.415   3.729  16.113  0.00  0.00    +0.000 HD
ENDBRANCH   3  11
BRANCH   1  25
ATOM     21  C   UNL     1       0.922  11.531  18.611  0.00  0.00    +0.000 C 
ATOM     22  C   UNL     1       1.098  10.296  19.401  0.00  0.00    +0.000 A 
ATOM     23  C   UNL     1       0.744   9.941  20.684  0.00  0.00    +0.000 A 
ATOM     24  C   UNL     1       1.157   8.599  20.850  0.00  0.00    +0.000 A 
ATOM     25  C   UNL     1       1.755   8.210  19.666  0.00  0.00    +0.000 A 
ATOM     26  O   UNL     1       1.719   9.254  18.778  0.00  0.00    +0.000 OA
ENDBRANCH   1  25
TORSDOF 2
ENDMDL
MODEL 8
REMARK VINA RESULT:      -7.9      1.760      6.909
REMARK  Name = 
REMARK  3 active torsions:
REMARK  status: ('A' for Active; 'I' for Inactive)
REMARK    1  A    between atoms: C_1  and  C_2
REMARK    2  A    between atoms: C_5  and  C_6
REMARK    3  A    between atoms: C_8  and  C_9
REMARK                            x       y       z     vdW  Elec       q    Type
REMARK                         _______ _______ _______ _____ _____    ______ ____
ROOT
ATOM      1  C   UNL     1       2.329   6.880  18.869  0.00  0.00    +0.000 A 
ATOM      2  C   UNL     1       2.945   6.269  17.794  0.00  0.00    +0.000 A 
ATOM      3  C   UNL     1       3.386   4.937  17.923  0.00  0.00    +0.000 A 
ATOM      4  C   UNL     1       3.141   4.230  19.134  0.00  0.00    +0.000 A 
ATOM      5  C   UNL     1       3.537   2.896  19.443  0.00  0.00    +0.000 A 
ATOM      6  C   UNL     1       3.234   2.310  20.676  0.00  0.00    +0.000 A 
ATOM      7  C   UNL     1       2.561   3.035  21.648  0.00  0.00    +0.000 A 
ATOM      8  C   UNL     1       2.195   4.353  21.370  0.00  0.00    +0.000 A 
ATOM      9  C   UNL     1       2.467   4.953  20.152  0.00  0.00    +0.000 A 
ATOM     10  N   UNL     1       2.085   6.228  20.021  0.00  0.00    +0.000 NA
ENDROOT
BRANCH   3  11
ATOM     11  C   UNL     1       4.198   4.415  16.768  0.00  0.00    +0.000 C 
ATOM     12  O   UNL     1       4.471   3.211  16.758  0.00  0.00    +0.000 OA
ATOM     13  N   UNL     1       4.672   5.322  15.846  0.00  0.00    +0.000 N 
ATOM     14  C   UNL     1       5.578   4.944  14.839  0.00  0.00    +0.000 A 
ATOM     15  C   UNL     1       5.292   3.931  13.930  0.00  0.00    +0.000 A 
ATOM     16  C   UNL     1       6.243   3.608  12.960  0.00  0.00    +0.000 A 
ATOM     17  C   UNL     1       7.461   4.280  12.956  0.00  0.00    +0.000 A 
ATOM     18  C   UNL     1       7.643   5.289  13.886  0.00  0.00    +0.000 A 
ATOM     19  N   UNL     1       6.713   5.669  14.792  0.00  0.00    +0.000 NA
ATOM     20  H   UNL     1       4.843   6.259  16.187  0.00  0.00    +0.000 HD
ENDBRANCH   3  11
BRANCH   1  25
ATOM     21  C   UNL     1       0.392  10.796  20.926  0.00  0.00    +0.000 C 
ATOM     22  C   UNL     1       1.027  10.070  19.807  0.00  0.00    +0.000 A 
ATOM     23  C   UNL     1       1.416  10.447  18.541  0.00  0.00    +0.000 A 
ATOM     24  C   UNL     1       2.003   9.303  17.953  0.00  0.00    +0.000 A 
ATOM     25  C   UNL     1       1.928   8.284  18.884  0.00  0.00    +0.000 A 
ATOM     26  O   UNL     1       1.327   8.757  20.023  0.00  0.00    +0.000 OA
ENDBRANCH   1  25
TORSDOF 2
ENDMDL
MODEL 9
REMARK VINA RESULT:      -7.8      1.569      2.211
REMARK  Name = 
REMARK  3 active torsions:
REMARK  status: ('A' for Active; 'I' for Inactive)
REMARK    1  A    between atoms: C_1  and  C_2
REMARK    2  A    between atoms: C_5  and  C_6
REMARK    3  A    between atoms: C_8  and  C_9
REMARK                            x       y       z     vdW  Elec       q    Type
REMARK                         _______ _______ _______ _____ _____    ______ ____
ROOT
ATOM      1  C   UNL     1       5.158   4.647  15.771  0.00  0.00    +0.000 A 
ATOM      2  C   UNL     1       4.772   5.864  16.297  0.00  0.00    +0.000 A 
ATOM      3  C   UNL     1       3.923   5.888  17.421  0.00  0.00    +0.000 A 
ATOM      4  C   UNL     1       3.523   4.662  18.023  0.00  0.00    +0.000 A 
ATOM      5  C   UNL     1       2.653   4.500  19.141  0.00  0.00    +0.000 A 
ATOM      6  C   UNL     1       2.336   3.233  19.644  0.00  0.00    +0.000 A 
ATOM      7  C   UNL     1       2.841   2.094  19.037  0.00  0.00    +0.000 A 
ATOM      8  C   UNL     1       3.669   2.237  17.923  0.00  0.00    +0.000 A 
ATOM      9  C   UNL     1       4.014   3.478  17.414  0.00  0.00    +0.000 A 
ATOM     10  N   UNL     1       4.794   3.477  16.327  0.00  0.00    +0.000 NA
ENDROOT
BRANCH   3  11
ATOM     11  C   UNL     1       3.417   7.249  17.815  0.00  0.00    +0.000 C 
ATOM     12  O   UNL     1       4.175   8.210  17.659  0.00  0.00    +0.000 OA
ATOM     13  N   UNL     1       2.181   7.331  18.418  0.00  0.00    +0.000 N 
ATOM     14  C   UNL     1       1.709   8.534  18.972  0.00  0.00    +0.000 A 
ATOM     15  C   UNL     1       1.595   9.699  18.220  0.00  0.00    +0.000 A 
ATOM     16  C   UNL     1       1.123  10.857  18.841  0.00  0.00    +0.000 A 
ATOM     17  C   UNL     1       0.819  10.824  20.197  0.00  0.00    +0.000 A 
ATOM     18  C   UNL     1       0.943   9.611  20.854  0.00  0.00    +0.000 A 
ATOM     19  N   UNL     1       1.331   8.458  20.263  0.00  0.00    +0.000 NA
ATOM     20  H   UNL     1       1.886   6.521  18.948  0.00  0.00    +0.000 HD
ENDBRANCH   3  11
BRANCH   1  25
ATOM     21  C   UNL     1       8.715   5.901  12.754  0.00  0.00    +0.000 C 
ATOM     22  C   UNL     1       7.554   5.082  13.158  0.00  0.00    +0.000 A 
ATOM     23  C   UNL     1       6.905   4.016  12.575  0.00  0.00    +0.000 A 
ATOM     24  C   UNL     1       5.881   3.639  13.473  0.00  0.00    +0.000 A 
ATOM     25  C   UNL     1       5.947   4.504  14.550  0.00  0.00    +0.000 A 
ATOM     26  O   UNL     1       6.975   5.391  14.354  0.00  0.00    +0.000 OA
ENDBRANCH   1  25
TORSDOF 2
ENDMDL
