MODEL 1
REMARK VINA RESULT:      -6.0      0.000      0.000
REMARK  Name = 
REMARK  12 active torsions:
REMARK  status: ('A' for Active; 'I' for Inactive)
REMARK    1  A    between atoms: C_1  and  C_2
REMARK    2  A    between atoms: C_2  and  O_3
REMARK    3  A    between atoms: O_3  and  C_4
REMARK    4  A    between atoms: C_4  and  C_6
REMARK    5  A    between atoms: C_6  and  C_7
REMARK    6  A    between atoms: C_7  and  C_8
REMARK    7  A    between atoms: N_16  and  C_17
REMARK    8  A    between atoms: C_17  and  C_18
REMARK    9  A    between atoms: C_18  and  C_19
REMARK   10  A    between atoms: C_19  and  N_20
REMARK   11  A    between atoms: N_20  and  C_21
REMARK   12  A    between atoms: N_20  and  C_22
REMARK                            x       y       z     vdW  Elec       q    Type
REMARK                         _______ _______ _______ _____ _____    ______ ____
ROOT
ATOM      1  C   UNL     1       6.153   4.877  18.453  0.00  0.00    +0.000 C 
ATOM      2  C   UNL     1       6.589   4.773  16.975  0.00  0.00    +0.000 C 
ATOM      3  O   UNL     1       7.564   4.155  16.557  0.00  0.00    +0.000 OA
ATOM      4  N   UNL     1       5.671   5.491  16.209  0.00  0.00    +0.000 N 
ATOM      5  C   UNL     1       4.733   6.136  17.021  0.00  0.00    +0.000 A 
ATOM      6  C   UNL     1       3.696   6.975  16.650  0.00  0.00    +0.000 A 
ATOM      7  C   UNL     1       2.899   7.517  17.659  0.00  0.00    +0.000 A 
ATOM      8  C   UNL     1       3.143   7.216  19.009  0.00  0.00    +0.000 A 
ATOM      9  C   UNL     1       4.187   6.360  19.369  0.00  0.00    +0.000 A 
ATOM     10  C   UNL     1       4.971   5.820  18.359  0.00  0.00    +0.000 A 
ENDROOT
BRANCH   1  11
ATOM     11  C   UNL     1       7.293   5.483  19.258  0.00  0.00    +0.000 C 
ATOM     12  O   UNL     1       7.407   5.410  20.477  0.00  0.00    +0.000 OA
BRANCH  11  13
ATOM     13  O   UNL     1       8.132   6.208  18.464  0.00  0.00    +0.000 OA
BRANCH  13  15
ATOM     14  C   UNL     1       7.715   8.384  17.584  0.00  0.00    +0.000 C 
ATOM     15  C   UNL     1       8.235   7.603  18.776  0.00  0.00    +0.000 C 
ENDBRANCH  13  15
ENDBRANCH  11  13
ENDBRANCH   1  11
BRANCH   1  16
ATOM     16  C   UNL     1       5.760   3.478  18.982  0.00  0.00    +0.000 C 
BRANCH  16  17
ATOM     17  C   UNL     1       4.293   3.106  18.907  0.00  0.00    +0.000 A 
ATOM     18  C   UNL     1       3.711   2.756  17.679  0.00  0.00    +0.000 A 
ATOM     19  C   UNL     1       2.366   2.395  17.609  0.00  0.00    +0.000 A 
ATOM     20  C   UNL     1       1.590   2.374  18.764  0.00  0.00    +0.000 A 
ATOM     21  C   UNL     1       2.154   2.729  19.989  0.00  0.00    +0.000 A 
ATOM     22  C   UNL     1       3.497   3.098  20.060  0.00  0.00    +0.000 A 
ENDBRANCH  16  17
ENDBRANCH   1  16
BRANCH   4  23
ATOM     23  C   UNL     1       5.684   5.550  14.760  0.00  0.00    +0.000 C 
BRANCH  23  24
ATOM     24  C   UNL     1       5.255   4.234  14.117  0.00  0.00    +0.000 C 
BRANCH  24  25
ATOM     25  C   UNL     1       6.277   3.730  13.087  0.00  0.00    +0.000 C 
BRANCH  25  26
ATOM     26  N   UNL     1       5.769   2.677  12.188  0.00  0.00    +0.000 NA
ATOM     27  C   UNL     1       4.597   3.112  11.426  0.00  0.00    +0.000 C 
ATOM     28  C   UNL     1       6.822   2.252  11.260  0.00  0.00    +0.000 C 
ENDBRANCH  25  26
ENDBRANCH  24  25
ENDBRANCH  23  24
ENDBRANCH   4  23
TORSDOF 9
ENDMDL
MODEL 2
REMARK VINA RESULT:      -6.0      2.322      5.933
REMARK  Name = 
REMARK  12 active torsions:
REMARK  status: ('A' for Active; 'I' for Inactive)
REMARK    1  A    between atoms: C_1  and  C_2
REMARK    2  A    between atoms: C_2  and  O_3
REMARK    3  A    between atoms: O_3  and  C_4
REMARK    4  A    between atoms: C_4  and  C_6
REMARK    5  A    between atoms: C_6  and  C_7
REMARK    6  A    between atoms: C_7  and  C_8
REMARK    7  A    between atoms: N_16  and  C_17
REMARK    8  A    between atoms: C_17  and  C_18
REMARK    9  A    between atoms: C_18  and  C_19
REMARK   10  A    between atoms: C_19  and  N_20
REMARK   11  A    between atoms: N_20  and  C_21
REMARK   12  A    between atoms: N_20  and  C_22
REMARK                            x       y       z     vdW  Elec       q    Type
REMARK                         _______ _______ _______ _____ _____    ______ ____
ROOT
ATOM      1  C   UNL     1       5.190   4.618  17.560  0.00  0.00    +0.000 C 
ATOM      2  C   UNL     1       4.464   5.893  17.077  0.00  0.00    +0.000 C 
ATOM      3  O   UNL     1       4.862   6.657  16.202  0.00  0.00    +0.000 OA
ATOM      4  N   UNL     1       3.279   6.008  17.802  0.00  0.00    +0.000 N 
ATOM      5  C   UNL     1       3.183   5.007  18.774  0.00  0.00    +0.000 A 
ATOM      6  C   UNL     1       2.189   4.805  19.716  0.00  0.00    +0.000 A 
ATOM      7  C   UNL     1       2.332   3.735  20.600  0.00  0.00    +0.000 A 
ATOM      8  C   UNL     1       3.449   2.887  20.529  0.00  0.00    +0.000 A 
ATOM      9  C   UNL     1       4.440   3.096  19.567  0.00  0.00    +0.000 A 
ATOM     10  C   UNL     1       4.288   4.160  18.688  0.00  0.00    +0.000 A 
ENDROOT
BRANCH   1  11
ATOM     11  C   UNL     1       6.572   5.003  18.067  0.00  0.00    +0.000 C 
ATOM     12  O   UNL     1       7.506   4.224  18.219  0.00  0.00    +0.000 OA
BRANCH  11  13
ATOM     13  O   UNL     1       6.620   6.318  18.428  0.00  0.00    +0.000 OA
BRANCH  13  15
ATOM     14  C   UNL     1       7.817   8.183  17.549  0.00  0.00    +0.000 C 
ATOM     15  C   UNL     1       7.917   6.926  18.394  0.00  0.00    +0.000 C 
ENDBRANCH  13  15
ENDBRANCH  11  13
ENDBRANCH   1  11
BRANCH   1  16
ATOM     16  C   UNL     1       5.270   3.592  16.405  0.00  0.00    +0.000 C 
BRANCH  16  17
ATOM     17  C   UNL     1       5.961   4.046  15.135  0.00  0.00    +0.000 A 
ATOM     18  C   UNL     1       7.128   4.823  15.201  0.00  0.00    +0.000 A 
ATOM     19  C   UNL     1       7.777   5.227  14.035  0.00  0.00    +0.000 A 
ATOM     20  C   UNL     1       7.273   4.853  12.793  0.00  0.00    +0.000 A 
ATOM     21  C   UNL     1       6.109   4.090  12.714  0.00  0.00    +0.000 A 
ATOM     22  C   UNL     1       5.453   3.692  13.879  0.00  0.00    +0.000 A 
ENDBRANCH  16  17
ENDBRANCH   1  16
BRANCH   4  23
ATOM     23  C   UNL     1       2.273   7.026  17.568  0.00  0.00    +0.000 C 
BRANCH  23  24
ATOM     24  C   UNL     1       2.474   8.260  18.444  0.00  0.00    +0.000 C 
BRANCH  24  25
ATOM     25  C   UNL     1       1.648   9.460  17.956  0.00  0.00    +0.000 C 
BRANCH  25  26
ATOM     26  N   UNL     1       0.554   9.857  18.861  0.00  0.00    +0.000 NA
ATOM     27  C   UNL     1       0.797   9.440  20.244  0.00  0.00    +0.000 C 
ATOM     28  C   UNL     1       0.363  11.311  18.818  0.00  0.00    +0.000 C 
ENDBRANCH  25  26
ENDBRANCH  24  25
ENDBRANCH  23  24
ENDBRANCH   4  23
TORSDOF 9
ENDMDL
MODEL 3
REMARK VINA RESULT:      -5.9      7.704     11.067
REMARK  Name = 
REMARK  12 active torsions:
REMARK  status: ('A' for Active; 'I' for Inactive)
REMARK    1  A    between atoms: C_1  and  C_2
REMARK    2  A    between atoms: C_2  and  O_3
REMARK    3  A    between atoms: O_3  and  C_4
REMARK    4  A    between atoms: C_4  and  C_6
REMARK    5  A    between atoms: C_6  and  C_7
REMARK    6  A    between atoms: C_7  and  C_8
REMARK    7  A    between atoms: N_16  and  C_17
REMARK    8  A    between atoms: C_17  and  C_18
REMARK    9  A    between atoms: C_18  and  C_19
REMARK   10  A    between atoms: C_19  and  N_20
REMARK   11  A    between atoms: N_20  and  C_21
REMARK   12  A    between atoms: N_20  and  C_22
REMARK                            x       y       z     vdW  Elec       q    Type
REMARK                         _______ _______ _______ _____ _____    ______ ____
ROOT
ATOM      1  C   UNL     1      -0.058  10.577  18.842  0.00  0.00    +0.000 C 
ATOM      2  C   UNL     1      -0.657  12.000  18.884  0.00  0.00    +0.000 C 
ATOM      3  O   UNL     1      -0.758  12.764  17.928  0.00  0.00    +0.000 OA
ATOM      4  N   UNL     1      -1.073  12.248  20.192  0.00  0.00    +0.000 N 
ATOM      5  C   UNL     1      -0.731  11.190  21.038  0.00  0.00    +0.000 A 
ATOM      6  C   UNL     1      -0.928  11.073  22.404  0.00  0.00    +0.000 A 
ATOM      7  C   UNL     1      -0.476   9.913  23.034  0.00  0.00    +0.000 A 
ATOM      8  C   UNL     1       0.155   8.895  22.301  0.00  0.00    +0.000 A 
ATOM      9  C   UNL     1       0.338   9.020  20.922  0.00  0.00    +0.000 A 
ATOM     10  C   UNL     1      -0.120  10.175  20.302  0.00  0.00    +0.000 A 
ENDROOT
BRANCH   1  11
ATOM     11  C   UNL     1       1.376  10.664  18.342  0.00  0.00    +0.000 C 
ATOM     12  O   UNL     1       2.150  11.581  18.589  0.00  0.00    +0.000 OA
BRANCH  11  13
ATOM     13  O   UNL     1       1.671   9.635  17.496  0.00  0.00    +0.000 OA
BRANCH  13  15
ATOM     14  C   UNL     1       2.275   7.433  18.183  0.00  0.00    +0.000 C 
ATOM     15  C   UNL     1       2.793   8.824  17.867  0.00  0.00    +0.000 C 
ENDBRANCH  13  15
ENDBRANCH  11  13
ENDBRANCH   1  11
BRANCH   1  16
ATOM     16  C   UNL     1      -0.925   9.671  17.936  0.00  0.00    +0.000 C 
BRANCH  16  17
ATOM     17  C   UNL     1      -2.251  10.238  17.470  0.00  0.00    +0.000 A 
ATOM     18  C   UNL     1      -2.423  10.636  16.136  0.00  0.00    +0.000 A 
ATOM     19  C   UNL     1      -3.647  11.141  15.699  0.00  0.00    +0.000 A 
ATOM     20  C   UNL     1      -4.713  11.248  16.588  0.00  0.00    +0.000 A 
ATOM     21  C   UNL     1      -4.551  10.866  17.919  0.00  0.00    +0.000 A 
ATOM     22  C   UNL     1      -3.325  10.368  18.360  0.00  0.00    +0.000 A 
ENDBRANCH  16  17
ENDBRANCH   1  16
BRANCH   4  23
ATOM     23  C   UNL     1      -1.777  13.444  20.612  0.00  0.00    +0.000 C 
BRANCH  23  24
ATOM     24  C   UNL     1      -3.292  13.310  20.477  0.00  0.00    +0.000 C 
BRANCH  24  25
ATOM     25  C   UNL     1      -3.970  12.999  21.819  0.00  0.00    +0.000 C 
BRANCH  25  26
ATOM     26  N   UNL     1      -5.239  13.717  22.042  0.00  0.00    +0.000 NA
ATOM     27  C   UNL     1      -6.360  12.807  22.282  0.00  0.00    +0.000 C 
ATOM     28  C   UNL     1      -5.107  14.636  23.179  0.00  0.00    +0.000 C 
ENDBRANCH  25  26
ENDBRANCH  24  25
ENDBRANCH  23  24
ENDBRANCH   4  23
TORSDOF 9
ENDMDL
MODEL 4
REMARK VINA RESULT:      -5.8      2.421      5.839
REMARK  Name = 
REMARK  12 active torsions:
REMARK  status: ('A' for Active; 'I' for Inactive)
REMARK    1  A    between atoms: C_1  and  C_2
REMARK    2  A    between atoms: C_2  and  O_3
REMARK    3  A    between atoms: O_3  and  C_4
REMARK    4  A    between atoms: C_4  and  C_6
REMARK    5  A    between atoms: C_6  and  C_7
REMARK    6  A    between atoms: C_7  and  C_8
REMARK    7  A    between atoms: N_16  and  C_17
REMARK    8  A    between atoms: C_17  and  C_18
REMARK    9  A    between atoms: C_18  and  C_19
REMARK   10  A    between atoms: C_19  and  N_20
REMARK   11  A    between atoms: N_20  and  C_21
REMARK   12  A    between atoms: N_20  and  C_22
REMARK                            x       y       z     vdW  Elec       q    Type
REMARK                         _______ _______ _______ _____ _____    ______ ____
ROOT
ATOM      1  C   UNL     1       4.889   4.743  17.725  0.00  0.00    +0.000 C 
ATOM      2  C   UNL     1       4.233   6.043  17.208  0.00  0.00    +0.000 C 
ATOM      3  O   UNL     1       4.678   6.769  16.325  0.00  0.00    +0.000 OA
ATOM      4  N   UNL     1       3.045   6.228  17.914  0.00  0.00    +0.000 N 
ATOM      5  C   UNL     1       2.888   5.252  18.903  0.00  0.00    +0.000 A 
ATOM      6  C   UNL     1       1.873   5.117  19.835  0.00  0.00    +0.000 A 
ATOM      7  C   UNL     1       1.953   4.058  20.740  0.00  0.00    +0.000 A 
ATOM      8  C   UNL     1       3.028   3.156  20.701  0.00  0.00    +0.000 A 
ATOM      9  C   UNL     1       4.040   3.298  19.749  0.00  0.00    +0.000 A 
ATOM     10  C   UNL     1       3.952   4.351  18.848  0.00  0.00    +0.000 A 
ENDROOT
BRANCH   1  11
ATOM     11  C   UNL     1       6.282   5.071  18.243  0.00  0.00    +0.000 C 
ATOM     12  O   UNL     1       7.125   4.240  18.563  0.00  0.00    +0.000 OA
BRANCH  11  13
ATOM     13  O   UNL     1       6.448   6.415  18.405  0.00  0.00    +0.000 OA
BRANCH  13  15
ATOM     14  C   UNL     1       7.750   8.218  17.545  0.00  0.00    +0.000 C 
ATOM     15  C   UNL     1       7.794   6.895  18.287  0.00  0.00    +0.000 C 
ENDBRANCH  13  15
ENDBRANCH  11  13
ENDBRANCH   1  11
BRANCH   1  16
ATOM     16  C   UNL     1       4.934   3.693  16.590  0.00  0.00    +0.000 C 
BRANCH  16  17
ATOM     17  C   UNL     1       5.717   4.063  15.347  0.00  0.00    +0.000 A 
ATOM     18  C   UNL     1       5.162   3.863  14.074  0.00  0.00    +0.000 A 
ATOM     19  C   UNL     1       5.872   4.220  12.928  0.00  0.00    +0.000 A 
ATOM     20  C   UNL     1       7.139   4.785  13.041  0.00  0.00    +0.000 A 
ATOM     21  C   UNL     1       7.705   4.979  14.300  0.00  0.00    +0.000 A 
ATOM     22  C   UNL     1       7.000   4.616  15.447  0.00  0.00    +0.000 A 
ENDBRANCH  16  17
ENDBRANCH   1  16
BRANCH   4  23
ATOM     23  C   UNL     1       2.093   7.289  17.647  0.00  0.00    +0.000 C 
BRANCH  23  24
ATOM     24  C   UNL     1       2.180   8.424  18.664  0.00  0.00    +0.000 C 
BRANCH  24  25
ATOM     25  C   UNL     1       1.933   9.799  18.024  0.00  0.00    +0.000 C 
BRANCH  25  26
ATOM     26  N   UNL     1       0.805  10.549  18.606  0.00  0.00    +0.000 NA
ATOM     27  C   UNL     1      -0.492  10.065  18.129  0.00  0.00    +0.000 C 
ATOM     28  C   UNL     1       0.846  10.468  20.071  0.00  0.00    +0.000 C 
ENDBRANCH  25  26
ENDBRANCH  24  25
ENDBRANCH  23  24
ENDBRANCH   4  23
TORSDOF 9
ENDMDL
MODEL 5
REMARK VINA RESULT:      -5.8      8.107     11.113
REMARK  Name = 
REMARK  12 active torsions:
REMARK  status: ('A' for Active; 'I' for Inactive)
REMARK    1  A    between atoms: C_1  and  C_2
REMARK    2  A    between atoms: C_2  and  O_3
REMARK    3  A    between atoms: O_3  and  C_4
REMARK    4  A    between atoms: C_4  and  C_6
REMARK    5  A    between atoms: C_6  and  C_7
REMARK    6  A    between atoms: C_7  and  C_8
REMARK    7  A    between atoms: N_16  and  C_17
REMARK    8  A    between atoms: C_17  and  C_18
REMARK    9  A    between atoms: C_18  and  C_19
REMARK   10  A    between atoms: C_19  and  N_20
REMARK   11  A    between atoms: N_20  and  C_21
REMARK   12  A    between atoms: N_20  and  C_22
REMARK                            x       y       z     vdW  Elec       q    Type
REMARK                         _______ _______ _______ _____ _____    ______ ____
ROOT
ATOM      1  C   UNL     1       0.053  10.798  18.839  0.00  0.00    +0.000 C 
ATOM      2  C   UNL     1      -0.687  12.153  18.907  0.00  0.00    +0.000 C 
ATOM      3  O   UNL     1      -0.828  12.941  17.977  0.00  0.00    +0.000 OA
ATOM      4  N   UNL     1      -1.173  12.306  20.205  0.00  0.00    +0.000 N 
ATOM      5  C   UNL     1      -0.758  11.254  21.027  0.00  0.00    +0.000 A 
ATOM      6  C   UNL     1      -0.992  11.064  22.378  0.00  0.00    +0.000 A 
ATOM      7  C   UNL     1      -0.450   9.930  22.984  0.00  0.00    +0.000 A 
ATOM      8  C   UNL     1       0.306   9.009  22.241  0.00  0.00    +0.000 A 
ATOM      9  C   UNL     1       0.526   9.207  20.876  0.00  0.00    +0.000 A 
ATOM     10  C   UNL     1      -0.021  10.335  20.279  0.00  0.00    +0.000 A 
ENDROOT
BRANCH   1  11
ATOM     11  C   UNL     1       1.489  11.046  18.401  0.00  0.00    +0.000 C 
ATOM     12  O   UNL     1       2.132  10.315  17.657  0.00  0.00    +0.000 OA
BRANCH  11  13
ATOM     13  O   UNL     1       2.015  12.142  19.021  0.00  0.00    +0.000 OA
BRANCH  13  15
ATOM     14  C   UNL     1       2.302  14.453  18.510  0.00  0.00    +0.000 C 
ATOM     15  C   UNL     1       2.750  13.041  18.181  0.00  0.00    +0.000 C 
ENDBRANCH  13  15
ENDBRANCH  11  13
ENDBRANCH   1  11
BRANCH   1  16
ATOM     16  C   UNL     1      -0.685   9.848  17.866  0.00  0.00    +0.000 C 
BRANCH  16  17
ATOM     17  C   UNL     1      -2.062  10.278  17.404  0.00  0.00    +0.000 A 
ATOM     18  C   UNL     1      -3.150  10.248  18.291  0.00  0.00    +0.000 A 
ATOM     19  C   UNL     1      -4.415  10.660  17.874  0.00  0.00    +0.000 A 
ATOM     20  C   UNL     1      -4.606  11.112  16.571  0.00  0.00    +0.000 A 
ATOM     21  C   UNL     1      -3.536  11.136  15.678  0.00  0.00    +0.000 A 
ATOM     22  C   UNL     1      -2.271  10.716  16.090  0.00  0.00    +0.000 A 
ENDBRANCH  16  17
ENDBRANCH   1  16
BRANCH   4  23
ATOM     23  C   UNL     1      -2.008  13.409  20.640  0.00  0.00    +0.000 C 
BRANCH  23  24
ATOM     24  C   UNL     1      -3.498  13.109  20.492  0.00  0.00    +0.000 C 
BRANCH  24  25
ATOM     25  C   UNL     1      -4.164  12.794  21.840  0.00  0.00    +0.000 C 
BRANCH  25  26
ATOM     26  N   UNL     1      -5.602  13.115  21.900  0.00  0.00    +0.000 NA
ATOM     27  C   UNL     1      -5.874  14.519  21.587  0.00  0.00    +0.000 C 
ATOM     28  C   UNL     1      -6.350  12.257  20.974  0.00  0.00    +0.000 C 
ENDBRANCH  25  26
ENDBRANCH  24  25
ENDBRANCH  23  24
ENDBRANCH   4  23
TORSDOF 9
ENDMDL
MODEL 6
REMARK VINA RESULT:      -5.8      2.326      5.523
REMARK  Name = 
REMARK  12 active torsions:
REMARK  status: ('A' for Active; 'I' for Inactive)
REMARK    1  A    between atoms: C_1  and  C_2
REMARK    2  A    between atoms: C_2  and  O_3
REMARK    3  A    between atoms: O_3  and  C_4
REMARK    4  A    between atoms: C_4  and  C_6
REMARK    5  A    between atoms: C_6  and  C_7
REMARK    6  A    between atoms: C_7  and  C_8
REMARK    7  A    between atoms: N_16  and  C_17
REMARK    8  A    between atoms: C_17  and  C_18
REMARK    9  A    between atoms: C_18  and  C_19
REMARK   10  A    between atoms: C_19  and  N_20
REMARK   11  A    between atoms: N_20  and  C_21
REMARK   12  A    between atoms: N_20  and  C_22
REMARK                            x       y       z     vdW  Elec       q    Type
REMARK                         _______ _______ _______ _____ _____    ______ ____
ROOT
ATOM      1  C   UNL     1       4.593   4.685  17.777  0.00  0.00    +0.000 C 
ATOM      2  C   UNL     1       5.572   5.549  18.603  0.00  0.00    +0.000 C 
ATOM      3  O   UNL     1       5.398   5.922  19.759  0.00  0.00    +0.000 OA
ATOM      4  N   UNL     1       6.685   5.811  17.805  0.00  0.00    +0.000 N 
ATOM      5  C   UNL     1       6.512   5.299  16.516  0.00  0.00    +0.000 A 
ATOM      6  C   UNL     1       7.362   5.389  15.426  0.00  0.00    +0.000 A 
ATOM      7  C   UNL     1       6.952   4.806  14.227  0.00  0.00    +0.000 A 
ATOM      8  C   UNL     1       5.716   4.146  14.132  0.00  0.00    +0.000 A 
ATOM      9  C   UNL     1       4.873   4.054  15.242  0.00  0.00    +0.000 A 
ATOM     10  C   UNL     1       5.290   4.631  16.433  0.00  0.00    +0.000 A 
ENDROOT
BRANCH   1  11
ATOM     11  C   UNL     1       3.257   5.408  17.689  0.00  0.00    +0.000 C 
ATOM     12  O   UNL     1       2.182   4.870  17.447  0.00  0.00    +0.000 OA
BRANCH  11  13
ATOM     13  O   UNL     1       3.413   6.758  17.816  0.00  0.00    +0.000 OA
BRANCH  13  15
ATOM     14  C   UNL     1       2.223   7.176  19.839  0.00  0.00    +0.000 C 
ATOM     15  C   UNL     1       2.289   7.467  18.351  0.00  0.00    +0.000 C 
ENDBRANCH  13  15
ENDBRANCH  11  13
ENDBRANCH   1  11
BRANCH   1  16
ATOM     16  C   UNL     1       4.446   3.291  18.431  0.00  0.00    +0.000 C 
BRANCH  16  17
ATOM     17  C   UNL     1       3.279   3.099  19.377  0.00  0.00    +0.000 A 
ATOM     18  C   UNL     1       3.297   3.682  20.654  0.00  0.00    +0.000 A 
ATOM     19  C   UNL     1       2.217   3.523  21.521  0.00  0.00    +0.000 A 
ATOM     20  C   UNL     1       1.105   2.786  21.120  0.00  0.00    +0.000 A 
ATOM     21  C   UNL     1       1.080   2.194  19.858  0.00  0.00    +0.000 A 
ATOM     22  C   UNL     1       2.163   2.345  18.993  0.00  0.00    +0.000 A 
ENDBRANCH  16  17
ENDBRANCH   1  16
BRANCH   4  23
ATOM     23  C   UNL     1       7.870   6.512  18.260  0.00  0.00    +0.000 C 
BRANCH  23  24
ATOM     24  C   UNL     1       7.820   8.006  17.954  0.00  0.00    +0.000 C 
BRANCH  24  25
ATOM     25  C   UNL     1       8.948   8.781  18.654  0.00  0.00    +0.000 C 
BRANCH  25  26
ATOM     26  N   UNL     1       8.616  10.180  18.980  0.00  0.00    +0.000 NA
ATOM     27  C   UNL     1       9.315  10.655  20.175  0.00  0.00    +0.000 C 
ATOM     28  C   UNL     1       8.939  11.054  17.846  0.00  0.00    +0.000 C 
ENDBRANCH  25  26
ENDBRANCH  24  25
ENDBRANCH  23  24
ENDBRANCH   4  23
TORSDOF 9
ENDMDL
MODEL 7
REMARK VINA RESULT:      -5.8      8.565     11.722
REMARK  Name = 
REMARK  12 active torsions:
REMARK  status: ('A' for Active; 'I' for Inactive)
REMARK    1  A    between atoms: C_1  and  C_2
REMARK    2  A    between atoms: C_2  and  O_3
REMARK    3  A    between atoms: O_3  and  C_4
REMARK    4  A    between atoms: C_4  and  C_6
REMARK    5  A    between atoms: C_6  and  C_7
REMARK    6  A    between atoms: C_7  and  C_8
REMARK    7  A    between atoms: N_16  and  C_17
REMARK    8  A    between atoms: C_17  and  C_18
REMARK    9  A    between atoms: C_18  and  C_19
REMARK   10  A    between atoms: C_19  and  N_20
REMARK   11  A    between atoms: N_20  and  C_21
REMARK   12  A    between atoms: N_20  and  C_22
REMARK                            x       y       z     vdW  Elec       q    Type
REMARK                         _______ _______ _______ _____ _____    ______ ____
ROOT
ATOM      1  C   UNL     1       0.522  12.428  20.193  0.00  0.00    +0.000 C 
ATOM      2  C   UNL     1      -0.324  13.325  21.124  0.00  0.00    +0.000 C 
ATOM      3  O   UNL     1      -0.444  14.543  21.031  0.00  0.00    +0.000 OA
ATOM      4  N   UNL     1      -0.932  12.501  22.070  0.00  0.00    +0.000 N 
ATOM      5  C   UNL     1      -0.511  11.176  21.930  0.00  0.00    +0.000 A 
ATOM      6  C   UNL     1      -0.847  10.073  22.697  0.00  0.00    +0.000 A 
ATOM      7  C   UNL     1      -0.272   8.845  22.365  0.00  0.00    +0.000 A 
ATOM      8  C   UNL     1       0.615   8.735  21.283  0.00  0.00    +0.000 A 
ATOM      9  C   UNL     1       0.938   9.853  20.511  0.00  0.00    +0.000 A 
ATOM     10  C   UNL     1       0.358  11.070  20.844  0.00  0.00    +0.000 A 
ENDROOT
BRANCH   1  11
ATOM     11  C   UNL     1       1.967  12.903  20.237  0.00  0.00    +0.000 C 
ATOM     12  O   UNL     1       2.594  13.147  21.262  0.00  0.00    +0.000 OA
BRANCH  11  13
ATOM     13  O   UNL     1       2.457  13.121  18.983  0.00  0.00    +0.000 OA
BRANCH  13  15
ATOM     14  C   UNL     1       2.187  15.461  18.616  0.00  0.00    +0.000 C 
ATOM     15  C   UNL     1       3.191  14.339  18.804  0.00  0.00    +0.000 C 
ENDBRANCH  13  15
ENDBRANCH  11  13
ENDBRANCH   1  11
BRANCH   1  16
ATOM     16  C   UNL     1      -0.052  12.476  18.758  0.00  0.00    +0.000 C 
BRANCH  16  17
ATOM     17  C   UNL     1      -1.350  11.734  18.515  0.00  0.00    +0.000 A 
ATOM     18  C   UNL     1      -2.569  12.277  18.948  0.00  0.00    +0.000 A 
ATOM     19  C   UNL     1      -3.768  11.606  18.711  0.00  0.00    +0.000 A 
ATOM     20  C   UNL     1      -3.763  10.390  18.033  0.00  0.00    +0.000 A 
ATOM     21  C   UNL     1      -2.557   9.835  17.606  0.00  0.00    +0.000 A 
ATOM     22  C   UNL     1      -1.356  10.501  17.850  0.00  0.00    +0.000 A 
ENDBRANCH  16  17
ENDBRANCH   1  16
BRANCH   4  23
ATOM     23  C   UNL     1      -1.886  12.961  23.062  0.00  0.00    +0.000 C 
BRANCH  23  24
ATOM     24  C   UNL     1      -3.333  12.724  22.636  0.00  0.00    +0.000 C 
BRANCH  24  25
ATOM     25  C   UNL     1      -4.010  14.010  22.139  0.00  0.00    +0.000 C 
BRANCH  25  26
ATOM     26  N   UNL     1      -5.210  14.401  22.902  0.00  0.00    +0.000 NA
ATOM     27  C   UNL     1      -5.845  13.261  23.565  0.00  0.00    +0.000 C 
ATOM     28  C   UNL     1      -4.865  15.416  23.903  0.00  0.00    +0.000 C 
ENDBRANCH  25  26
ENDBRANCH  24  25
ENDBRANCH  23  24
ENDBRANCH   4  23
TORSDOF 9
ENDMDL
MODEL 8
REMARK VINA RESULT:      -5.7      7.677     10.994
REMARK  Name = 
REMARK  12 active torsions:
REMARK  status: ('A' for Active; 'I' for Inactive)
REMARK    1  A    between atoms: C_1  and  C_2
REMARK    2  A    between atoms: C_2  and  O_3
REMARK    3  A    between atoms: O_3  and  C_4
REMARK    4  A    between atoms: C_4  and  C_6
REMARK    5  A    between atoms: C_6  and  C_7
REMARK    6  A    between atoms: C_7  and  C_8
REMARK    7  A    between atoms: N_16  and  C_17
REMARK    8  A    between atoms: C_17  and  C_18
REMARK    9  A    between atoms: C_18  and  C_19
REMARK   10  A    between atoms: C_19  and  N_20
REMARK   11  A    between atoms: N_20  and  C_21
REMARK   12  A    between atoms: N_20  and  C_22
REMARK                            x       y       z     vdW  Elec       q    Type
REMARK                         _______ _______ _______ _____ _____    ______ ____
ROOT
ATOM      1  C   UNL     1      -0.131  10.615  18.897  0.00  0.00    +0.000 C 
ATOM      2  C   UNL     1      -0.759  12.027  18.893  0.00  0.00    +0.000 C 
ATOM      3  O   UNL     1      -0.864  12.763  17.917  0.00  0.00    +0.000 OA
ATOM      4  N   UNL     1      -1.195  12.301  20.189  0.00  0.00    +0.000 N 
ATOM      5  C   UNL     1      -0.842  11.272  21.068  0.00  0.00    +0.000 A 
ATOM      6  C   UNL     1      -1.051  11.188  22.434  0.00  0.00    +0.000 A 
ATOM      7  C   UNL     1      -0.583  10.055  23.100  0.00  0.00    +0.000 A 
ATOM      8  C   UNL     1       0.076   9.030  22.401  0.00  0.00    +0.000 A 
ATOM      9  C   UNL     1       0.272   9.123  21.021  0.00  0.00    +0.000 A 
ATOM     10  C   UNL     1      -0.201  10.251  20.365  0.00  0.00    +0.000 A 
ENDROOT
BRANCH   1  11
ATOM     11  C   UNL     1       1.307  10.718  18.410  0.00  0.00    +0.000 C 
ATOM     12  O   UNL     1       2.079  11.628  18.692  0.00  0.00    +0.000 OA
BRANCH  11  13
ATOM     13  O   UNL     1       1.608   9.717  17.534  0.00  0.00    +0.000 OA
BRANCH  13  15
ATOM     14  C   UNL     1       2.166   7.508  18.236  0.00  0.00    +0.000 C 
ATOM     15  C   UNL     1       2.714   8.882  17.898  0.00  0.00    +0.000 C 
ENDBRANCH  13  15
ENDBRANCH  11  13
ENDBRANCH   1  11
BRANCH   1  16
ATOM     16  C   UNL     1      -0.969   9.668  18.006  0.00  0.00    +0.000 C 
BRANCH  16  17
ATOM     17  C   UNL     1      -2.278  10.213  17.470  0.00  0.00    +0.000 A 
ATOM     18  C   UNL     1      -3.378  10.384  18.325  0.00  0.00    +0.000 A 
ATOM     19  C   UNL     1      -4.578  10.903  17.839  0.00  0.00    +0.000 A 
ATOM     20  C   UNL     1      -4.690  11.260  16.498  0.00  0.00    +0.000 A 
ATOM     21  C   UNL     1      -3.607  11.084  15.638  0.00  0.00    +0.000 A 
ATOM     22  C   UNL     1      -2.409  10.559  16.119  0.00  0.00    +0.000 A 
ENDBRANCH  16  17
ENDBRANCH   1  16
BRANCH   4  23
ATOM     23  C   UNL     1      -1.928  13.493  20.570  0.00  0.00    +0.000 C 
BRANCH  23  24
ATOM     24  C   UNL     1      -3.204  13.173  21.346  0.00  0.00    +0.000 C 
BRANCH  24  25
ATOM     25  C   UNL     1      -4.461  13.299  20.472  0.00  0.00    +0.000 C 
BRANCH  25  26
ATOM     26  N   UNL     1      -5.731  13.175  21.211  0.00  0.00    +0.000 NA
ATOM     27  C   UNL     1      -6.495  11.991  20.814  0.00  0.00    +0.000 C 
ATOM     28  C   UNL     1      -5.474  13.126  22.655  0.00  0.00    +0.000 C 
ENDBRANCH  25  26
ENDBRANCH  24  25
ENDBRANCH  23  24
ENDBRANCH   4  23
TORSDOF 9
ENDMDL
MODEL 9
REMARK VINA RESULT:      -5.6      7.003     10.282
REMARK  Name = 
REMARK  12 active torsions:
REMARK  status: ('A' for Active; 'I' for Inactive)
REMARK    1  A    between atoms: C_1  and  C_2
REMARK    2  A    between atoms: C_2  and  O_3
REMARK    3  A    between atoms: O_3  and  C_4
REMARK    4  A    between atoms: C_4  and  C_6
REMARK    5  A    between atoms: C_6  and  C_7
REMARK    6  A    between atoms: C_7  and  C_8
REMARK    7  A    between atoms: N_16  and  C_17
REMARK    8  A    between atoms: C_17  and  C_18
REMARK    9  A    between atoms: C_18  and  C_19
REMARK   10  A    between atoms: C_19  and  N_20
REMARK   11  A    between atoms: N_20  and  C_21
REMARK   12  A    between atoms: N_20  and  C_22
REMARK                            x       y       z     vdW  Elec       q    Type
REMARK                         _______ _______ _______ _____ _____    ______ ____
ROOT
ATOM      1  C   UNL     1      -0.036  10.619  18.753  0.00  0.00    +0.000 C 
ATOM      2  C   UNL     1      -0.560  12.072  18.714  0.00  0.00    +0.000 C 
ATOM      3  O   UNL     1      -0.601  12.792  17.721  0.00  0.00    +0.000 OA
ATOM      4  N   UNL     1      -0.986  12.405  19.999  0.00  0.00    +0.000 N 
ATOM      5  C   UNL     1      -0.717  11.373  20.903  0.00  0.00    +0.000 A 
ATOM      6  C   UNL     1      -0.945  11.334  22.268  0.00  0.00    +0.000 A 
ATOM      7  C   UNL     1      -0.567  10.184  22.962  0.00  0.00    +0.000 A 
ATOM      8  C   UNL     1       0.022   9.100  22.293  0.00  0.00    +0.000 A 
ATOM      9  C   UNL     1       0.237   9.148  20.913  0.00  0.00    +0.000 A 
ATOM     10  C   UNL     1      -0.146  10.293  20.229  0.00  0.00    +0.000 A 
ENDROOT
BRANCH   1  11
ATOM     11  C   UNL     1       1.410  10.606  18.281  0.00  0.00    +0.000 C 
ATOM     12  O   UNL     1       2.223  11.499  18.489  0.00  0.00    +0.000 OA
BRANCH  11  13
ATOM     13  O   UNL     1       1.670   9.515  17.504  0.00  0.00    +0.000 OA
BRANCH  13  15
ATOM     14  C   UNL     1       2.252   7.313  18.209  0.00  0.00    +0.000 C 
ATOM     15  C   UNL     1       2.778   8.706  17.918  0.00  0.00    +0.000 C 
ENDBRANCH  13  15
ENDBRANCH  11  13
ENDBRANCH   1  11
BRANCH   1  16
ATOM     16  C   UNL     1      -0.933   9.716  17.873  0.00  0.00    +0.000 C 
BRANCH  16  17
ATOM     17  C   UNL     1      -2.261  10.295  17.430  0.00  0.00    +0.000 A 
ATOM     18  C   UNL     1      -2.483  10.608  16.080  0.00  0.00    +0.000 A 
ATOM     19  C   UNL     1      -3.710  11.124  15.666  0.00  0.00    +0.000 A 
ATOM     20  C   UNL     1      -4.729  11.327  16.592  0.00  0.00    +0.000 A 
ATOM     21  C   UNL     1      -4.517  11.029  17.938  0.00  0.00    +0.000 A 
ATOM     22  C   UNL     1      -3.288  10.521  18.356  0.00  0.00    +0.000 A 
ENDBRANCH  16  17
ENDBRANCH   1  16
BRANCH   4  23
ATOM     23  C   UNL     1      -1.634  13.655  20.347  0.00  0.00    +0.000 C 
BRANCH  23  24
ATOM     24  C   UNL     1      -0.709  14.859  20.185  0.00  0.00    +0.000 C 
BRANCH  24  25
ATOM     25  C   UNL     1       0.592  14.705  20.987  0.00  0.00    +0.000 C 
BRANCH  25  26
ATOM     26  N   UNL     1       1.796  14.497  20.162  0.00  0.00    +0.000 NA
ATOM     27  C   UNL     1       2.229  15.722  19.489  0.00  0.00    +0.000 C 
ATOM     28  C   UNL     1       2.893  13.982  20.990  0.00  0.00    +0.000 C 
ENDBRANCH  25  26
ENDBRANCH  24  25
ENDBRANCH  23  24
ENDBRANCH   4  23
TORSDOF 9
ENDMDL
