MODEL 1
REMARK VINA RESULT:      -7.5      0.000      0.000
REMARK  Name = 
REMARK  11 active torsions:
REMARK  status: ('A' for Active; 'I' for Inactive)
REMARK    1  A    between atoms: CB_1  and  CA_2
REMARK    2  A    between atoms: CA_2  and  N_3
REMARK    3  A    between atoms: CA_2  and  C_23
REMARK    4  A    between atoms: C_4  and  C_6
REMARK    5  A    between atoms: C_6  and  N_7
REMARK    6  A    between atoms: C_6  and  C_8
REMARK    7  A    between atoms: C_8  and  C_9
REMARK    8  A    between atoms: C_12  and  O_13
REMARK    9  A    between atoms: O_13  and  C_14
REMARK   10  A    between atoms: C_14  and  C_15
REMARK   11  A    between atoms: C_23  and  OXT_25
REMARK                            x       y       z     vdW  Elec       q    Type
REMARK                         _______ _______ _______ _____ _____    ______ ____
ROOT
ATOM      1  C   UNK A   1       2.141   3.357  17.830  0.00  0.00    +0.000 C 
ENDROOT
BRANCH   1   2
ATOM      2  C   UNK A   1       2.005   4.642  18.616  0.00  0.00    +0.000 A 
ATOM      3  C   UNK A   1       1.773   4.610  19.996  0.00  0.00    +0.000 A 
ATOM      4  C   UNK A   1       1.652   5.785  20.732  0.00  0.00    +0.000 A 
ATOM      5  C   UNK A   1       1.831   7.019  20.112  0.00  0.00    +0.000 A 
ATOM      6  C   UNK A   1       2.047   7.072  18.736  0.00  0.00    +0.000 A 
ATOM      7  C   UNK A   1       2.132   5.890  17.990  0.00  0.00    +0.000 A 
BRANCH   5   8
ATOM      8  O   UNK A   1       1.822   8.220  20.769  0.00  0.00    +0.000 OA
BRANCH   8   9
ATOM      9  C   UNK A   1       1.105   9.261  20.097  0.00  0.00    +0.000 C 
BRANCH   9  10
ATOM     10  C   UNK A   1       0.200   9.962  21.073  0.00  0.00    +0.000 A 
ATOM     11  C   UNK A   1       0.101   9.523  22.399  0.00  0.00    +0.000 A 
ATOM     12  C   UNK A   1      -0.708  10.206  23.306  0.00  0.00    +0.000 A 
ATOM     13  C   UNK A   1      -1.417  11.335  22.898  0.00  0.00    +0.000 A 
ATOM     14  C   UNK A   1      -1.316  11.786  21.583  0.00  0.00    +0.000 A 
ATOM     15  C   UNK A   1      -0.508  11.106  20.675  0.00  0.00    +0.000 A 
ENDBRANCH   9  10
ENDBRANCH   8   9
ENDBRANCH   5   8
ENDBRANCH   1   2
BRANCH   1  16
ATOM     16  C   UNK A   1       3.511   2.653  17.901  0.00  0.00    +0.000 C 
BRANCH  16  18
ATOM     17  N   ALA A   2       4.981   4.539  17.227  0.00  0.00    +0.000 N 
ATOM     18  C   UNK A   1       4.683   3.615  18.199  0.00  0.00    +0.000 C 
ATOM     19  O   UNK A   1       5.376   3.543  19.217  0.00  0.00    +0.000 OA
ATOM     20  H   ALA A   2       4.548   4.453  16.314  0.00  0.00    +0.000 HD
BRANCH  17  22
ATOM     21  CB  ALA A   2       5.649   6.896  17.004  0.00  0.00    +0.000 C 
ATOM     22  CA  ALA A   2       6.096   5.484  17.376  0.00  0.00    +0.000 C 
BRANCH  22  23
ATOM     23  C   ALA A   2       7.331   5.072  16.546  0.00  0.00    +0.000 C 
ATOM     24  O   ALA A   2       7.668   5.609  15.499  0.00  0.00    +0.000 OA
BRANCH  23  25
ATOM     25  OXT ALA A   2       8.074   4.092  17.108  0.00  0.00    +0.000 OA
ATOM     26  HXT ALA A   2       7.616   3.643  17.863  0.00  0.00    +0.000 HD
ENDBRANCH  23  25
ENDBRANCH  22  23
ENDBRANCH  17  22
ENDBRANCH  16  18
BRANCH  16  27
ATOM     27  N   UNK A   1       3.519   1.546  18.880  0.00  0.00    +0.000 NA
ATOM     28  H   UNK A   1       2.564   1.432  19.234  0.00  0.00    +0.000 HD
ATOM     29  H   UNK A   1       4.049   1.845  19.702  0.00  0.00    +0.000 HD
ENDBRANCH  16  27
ENDBRANCH   1  16
TORSDOF 10
ENDMDL
MODEL 2
REMARK VINA RESULT:      -7.5      2.358      3.219
REMARK  Name = 
REMARK  11 active torsions:
REMARK  status: ('A' for Active; 'I' for Inactive)
REMARK    1  A    between atoms: CB_1  and  CA_2
REMARK    2  A    between atoms: CA_2  and  N_3
REMARK    3  A    between atoms: CA_2  and  C_23
REMARK    4  A    between atoms: C_4  and  C_6
REMARK    5  A    between atoms: C_6  and  N_7
REMARK    6  A    between atoms: C_6  and  C_8
REMARK    7  A    between atoms: C_8  and  C_9
REMARK    8  A    between atoms: C_12  and  O_13
REMARK    9  A    between atoms: O_13  and  C_14
REMARK   10  A    between atoms: C_14  and  C_15
REMARK   11  A    between atoms: C_23  and  OXT_25
REMARK                            x       y       z     vdW  Elec       q    Type
REMARK                         _______ _______ _______ _____ _____    ______ ____
ROOT
ATOM      1  C   UNK A   1       3.005   5.605  20.065  0.00  0.00    +0.000 C 
ENDROOT
BRANCH   1   2
ATOM      2  C   UNK A   1       2.370   6.901  19.615  0.00  0.00    +0.000 A 
ATOM      3  C   UNK A   1       1.665   7.700  20.523  0.00  0.00    +0.000 A 
ATOM      4  C   UNK A   1       1.081   8.899  20.124  0.00  0.00    +0.000 A 
ATOM      5  C   UNK A   1       1.251   9.358  18.820  0.00  0.00    +0.000 A 
ATOM      6  C   UNK A   1       1.936   8.569  17.898  0.00  0.00    +0.000 A 
ATOM      7  C   UNK A   1       2.492   7.345  18.291  0.00  0.00    +0.000 A 
BRANCH   5   8
ATOM      8  O   UNK A   1       0.794  10.564  18.362  0.00  0.00    +0.000 OA
BRANCH   8   9
ATOM      9  C   UNK A   1      -0.285  11.120  19.122  0.00  0.00    +0.000 C 
BRANCH   9  10
ATOM     10  C   UNK A   1      -1.578  10.934  18.375  0.00  0.00    +0.000 A 
ATOM     11  C   UNK A   1      -2.713  11.680  18.714  0.00  0.00    +0.000 A 
ATOM     12  C   UNK A   1      -3.894  11.531  17.988  0.00  0.00    +0.000 A 
ATOM     13  C   UNK A   1      -3.947  10.641  16.915  0.00  0.00    +0.000 A 
ATOM     14  C   UNK A   1      -2.818   9.903  16.564  0.00  0.00    +0.000 A 
ATOM     15  C   UNK A   1      -1.638  10.051  17.287  0.00  0.00    +0.000 A 
ENDBRANCH   9  10
ENDBRANCH   8   9
ENDBRANCH   5   8
ENDBRANCH   1   2
BRANCH   1  16
ATOM     16  C   UNK A   1       3.294   4.565  18.964  0.00  0.00    +0.000 C 
BRANCH  16  18
ATOM     17  N   ALA A   2       5.307   4.935  17.556  0.00  0.00    +0.000 N 
ATOM     18  C   UNK A   1       4.801   4.356  18.696  0.00  0.00    +0.000 C 
ATOM     19  O   UNK A   1       5.527   3.660  19.410  0.00  0.00    +0.000 OA
ATOM     20  H   ALA A   2       4.667   5.323  16.873  0.00  0.00    +0.000 HD
BRANCH  17  22
ATOM     21  CB  ALA A   2       7.553   5.919  17.745  0.00  0.00    +0.000 C 
ATOM     22  CA  ALA A   2       6.717   4.778  17.172  0.00  0.00    +0.000 C 
BRANCH  22  23
ATOM     23  C   ALA A   2       6.900   4.690  15.641  0.00  0.00    +0.000 C 
ATOM     24  O   ALA A   2       7.621   5.435  14.989  0.00  0.00    +0.000 OA
BRANCH  23  25
ATOM     25  OXT ALA A   2       6.246   3.658  15.063  0.00  0.00    +0.000 OA
ATOM     26  HXT ALA A   2       5.711   3.128  15.708  0.00  0.00    +0.000 HD
ENDBRANCH  23  25
ENDBRANCH  22  23
ENDBRANCH  17  22
ENDBRANCH  16  18
BRANCH  16  27
ATOM     27  N   UNK A   1       2.658   3.261  19.248  0.00  0.00    +0.000 NA
ATOM     28  H   UNK A   1       3.360   2.657  19.687  0.00  0.00    +0.000 HD
ATOM     29  H   UNK A   1       2.460   2.797  18.358  0.00  0.00    +0.000 HD
ENDBRANCH  16  27
ENDBRANCH   1  16
TORSDOF 10
ENDMDL
MODEL 3
REMARK VINA RESULT:      -7.5      0.849      1.356
REMARK  Name = 
REMARK  11 active torsions:
REMARK  status: ('A' for Active; 'I' for Inactive)
REMARK    1  A    between atoms: CB_1  and  CA_2
REMARK    2  A    between atoms: CA_2  and  N_3
REMARK    3  A    between atoms: CA_2  and  C_23
REMARK    4  A    between atoms: C_4  and  C_6
REMARK    5  A    between atoms: C_6  and  N_7
REMARK    6  A    between atoms: C_6  and  C_8
REMARK    7  A    between atoms: C_8  and  C_9
REMARK    8  A    between atoms: C_12  and  O_13
REMARK    9  A    between atoms: O_13  and  C_14
REMARK   10  A    between atoms: C_14  and  C_15
REMARK   11  A    between atoms: C_23  and  OXT_25
REMARK                            x       y       z     vdW  Elec       q    Type
REMARK                         _______ _______ _______ _____ _____    ______ ____
ROOT
ATOM      1  C   UNK A   1       2.363   3.360  17.847  0.00  0.00    +0.000 C 
ENDROOT
BRANCH   1   2
ATOM      2  C   UNK A   1       2.161   4.645  18.616  0.00  0.00    +0.000 A 
ATOM      3  C   UNK A   1       1.775   4.615  19.962  0.00  0.00    +0.000 A 
ATOM      4  C   UNK A   1       1.591   5.791  20.684  0.00  0.00    +0.000 A 
ATOM      5  C   UNK A   1       1.859   7.023  20.092  0.00  0.00    +0.000 A 
ATOM      6  C   UNK A   1       2.229   7.074  18.749  0.00  0.00    +0.000 A 
ATOM      7  C   UNK A   1       2.377   5.892  18.013  0.00  0.00    +0.000 A 
BRANCH   5   8
ATOM      8  O   UNK A   1       1.796   8.222  20.748  0.00  0.00    +0.000 OA
BRANCH   8   9
ATOM      9  C   UNK A   1       1.029   9.228  20.078  0.00  0.00    +0.000 C 
BRANCH   9  10
ATOM     10  C   UNK A   1       0.306  10.072  21.092  0.00  0.00    +0.000 A 
ATOM     11  C   UNK A   1       0.119  11.443  20.880  0.00  0.00    +0.000 A 
ATOM     12  C   UNK A   1      -0.589  12.208  21.805  0.00  0.00    +0.000 A 
ATOM     13  C   UNK A   1      -1.121  11.608  22.946  0.00  0.00    +0.000 A 
ATOM     14  C   UNK A   1      -0.950  10.241  23.161  0.00  0.00    +0.000 A 
ATOM     15  C   UNK A   1      -0.243   9.475  22.237  0.00  0.00    +0.000 A 
ENDBRANCH   9  10
ENDBRANCH   8   9
ENDBRANCH   5   8
ENDBRANCH   1   2
BRANCH   1  16
ATOM     16  C   UNK A   1       3.816   2.864  17.710  0.00  0.00    +0.000 C 
BRANCH  16  18
ATOM     17  N   ALA A   2       5.423   4.758  17.674  0.00  0.00    +0.000 N 
ATOM     18  C   UNK A   1       4.844   3.767  18.429  0.00  0.00    +0.000 C 
ATOM     19  O   UNK A   1       5.197   3.593  19.598  0.00  0.00    +0.000 OA
ATOM     20  H   ALA A   2       5.286   4.759  16.670  0.00  0.00    +0.000 HD
BRANCH  17  22
ATOM     21  CB  ALA A   2       6.656   6.856  17.311  0.00  0.00    +0.000 C 
ATOM     22  CA  ALA A   2       6.442   5.658  18.233  0.00  0.00    +0.000 C 
BRANCH  22  23
ATOM     23  C   ALA A   2       7.780   4.936  18.499  0.00  0.00    +0.000 C 
ATOM     24  O   ALA A   2       8.307   4.152  17.721  0.00  0.00    +0.000 OA
BRANCH  23  25
ATOM     25  OXT ALA A   2       8.382   5.293  19.656  0.00  0.00    +0.000 OA
ATOM     26  HXT ALA A   2       8.036   6.144  20.026  0.00  0.00    +0.000 HD
ENDBRANCH  23  25
ENDBRANCH  22  23
ENDBRANCH  17  22
ENDBRANCH  16  18
BRANCH  16  27
ATOM     27  N   UNK A   1       3.975   1.469  18.173  0.00  0.00    +0.000 NA
ATOM     28  H   UNK A   1       4.478   0.952  17.444  0.00  0.00    +0.000 HD
ATOM     29  H   UNK A   1       3.053   1.027  18.191  0.00  0.00    +0.000 HD
ENDBRANCH  16  27
ENDBRANCH   1  16
TORSDOF 10
ENDMDL
MODEL 4
REMARK VINA RESULT:      -7.4      0.684      1.255
REMARK  Name = 
REMARK  11 active torsions:
REMARK  status: ('A' for Active; 'I' for Inactive)
REMARK    1  A    between atoms: CB_1  and  CA_2
REMARK    2  A    between atoms: CA_2  and  N_3
REMARK    3  A    between atoms: CA_2  and  C_23
REMARK    4  A    between atoms: C_4  and  C_6
REMARK    5  A    between atoms: C_6  and  N_7
REMARK    6  A    between atoms: C_6  and  C_8
REMARK    7  A    between atoms: C_8  and  C_9
REMARK    8  A    between atoms: C_12  and  O_13
REMARK    9  A    between atoms: O_13  and  C_14
REMARK   10  A    between atoms: C_14  and  C_15
REMARK   11  A    between atoms: C_23  and  OXT_25
REMARK                            x       y       z     vdW  Elec       q    Type
REMARK                         _______ _______ _______ _____ _____    ______ ____
ROOT
ATOM      1  C   UNK A   1       2.171   3.289  18.066  0.00  0.00    +0.000 C 
ENDROOT
BRANCH   1   2
ATOM      2  C   UNK A   1       2.076   4.608  18.800  0.00  0.00    +0.000 A 
ATOM      3  C   UNK A   1       2.299   5.814  18.125  0.00  0.00    +0.000 A 
ATOM      4  C   UNK A   1       2.209   7.035  18.787  0.00  0.00    +0.000 A 
ATOM      5  C   UNK A   1       1.824   7.078  20.124  0.00  0.00    +0.000 A 
ATOM      6  C   UNK A   1       1.613   5.887  20.816  0.00  0.00    +0.000 A 
ATOM      7  C   UNK A   1       1.740   4.656  20.160  0.00  0.00    +0.000 A 
BRANCH   5   8
ATOM      8  O   UNK A   1       1.619   8.232  20.830  0.00  0.00    +0.000 OA
BRANCH   8   9
ATOM      9  C   UNK A   1       0.917   9.253  20.112  0.00  0.00    +0.000 C 
BRANCH   9  10
ATOM     10  C   UNK A   1       0.168  10.127  21.081  0.00  0.00    +0.000 A 
ATOM     11  C   UNK A   1      -0.337   9.602  22.277  0.00  0.00    +0.000 A 
ATOM     12  C   UNK A   1      -0.992  10.430  23.187  0.00  0.00    +0.000 A 
ATOM     13  C   UNK A   1      -1.142  11.789  22.913  0.00  0.00    +0.000 A 
ATOM     14  C   UNK A   1      -0.633  12.323  21.730  0.00  0.00    +0.000 A 
ATOM     15  C   UNK A   1       0.023  11.498  20.820  0.00  0.00    +0.000 A 
ENDBRANCH   9  10
ENDBRANCH   8   9
ENDBRANCH   5   8
ENDBRANCH   1   2
BRANCH   1  16
ATOM     16  C   UNK A   1       3.593   2.763  17.783  0.00  0.00    +0.000 C 
BRANCH  16  18
ATOM     17  N   ALA A   2       5.225   4.624  17.570  0.00  0.00    +0.000 N 
ATOM     18  C   UNK A   1       4.707   3.647  18.386  0.00  0.00    +0.000 C 
ATOM     19  O   UNK A   1       5.176   3.471  19.514  0.00  0.00    +0.000 OA
ATOM     20  H   ALA A   2       4.985   4.624  16.585  0.00  0.00    +0.000 HD
BRANCH  17  22
ATOM     21  CB  ALA A   2       6.378   6.754  17.140  0.00  0.00    +0.000 C 
ATOM     22  CA  ALA A   2       6.314   5.505  18.015  0.00  0.00    +0.000 C 
BRANCH  22  23
ATOM     23  C   ALA A   2       7.680   4.786  18.032  0.00  0.00    +0.000 C 
ATOM     24  O   ALA A   2       8.172   4.217  17.066  0.00  0.00    +0.000 OA
BRANCH  23  25
ATOM     25  OXT ALA A   2       8.348   4.892  19.203  0.00  0.00    +0.000 OA
ATOM     26  HXT ALA A   2       9.225   4.432  19.192  0.00  0.00    +0.000 HD
ENDBRANCH  23  25
ENDBRANCH  22  23
ENDBRANCH  17  22
ENDBRANCH  16  18
BRANCH  16  27
ATOM     27  N   UNK A   1       3.771   1.367  18.234  0.00  0.00    +0.000 NA
ATOM     28  H   UNK A   1       2.905   0.857  18.030  0.00  0.00    +0.000 HD
ATOM     29  H   UNK A   1       3.822   1.361  19.256  0.00  0.00    +0.000 HD
ENDBRANCH  16  27
ENDBRANCH   1  16
TORSDOF 10
ENDMDL
MODEL 5
REMARK VINA RESULT:      -7.4      2.745      3.667
REMARK  Name = 
REMARK  11 active torsions:
REMARK  status: ('A' for Active; 'I' for Inactive)
REMARK    1  A    between atoms: CB_1  and  CA_2
REMARK    2  A    between atoms: CA_2  and  N_3
REMARK    3  A    between atoms: CA_2  and  C_23
REMARK    4  A    between atoms: C_4  and  C_6
REMARK    5  A    between atoms: C_6  and  N_7
REMARK    6  A    between atoms: C_6  and  C_8
REMARK    7  A    between atoms: C_8  and  C_9
REMARK    8  A    between atoms: C_12  and  O_13
REMARK    9  A    between atoms: O_13  and  C_14
REMARK   10  A    between atoms: C_14  and  C_15
REMARK   11  A    between atoms: C_23  and  OXT_25
REMARK                            x       y       z     vdW  Elec       q    Type
REMARK                         _______ _______ _______ _____ _____    ______ ____
ROOT
ATOM      1  C   UNK A   1       3.030   6.079  19.575  0.00  0.00    +0.000 C 
ENDROOT
BRANCH   1   2
ATOM      2  C   UNK A   1       2.244   7.349  19.336  0.00  0.00    +0.000 A 
ATOM      3  C   UNK A   1       1.572   7.978  20.392  0.00  0.00    +0.000 A 
ATOM      4  C   UNK A   1       0.851   9.150  20.187  0.00  0.00    +0.000 A 
ATOM      5  C   UNK A   1       0.845   9.758  18.934  0.00  0.00    +0.000 A 
ATOM      6  C   UNK A   1       1.496   9.139  17.868  0.00  0.00    +0.000 A 
ATOM      7  C   UNK A   1       2.191   7.939  18.066  0.00  0.00    +0.000 A 
BRANCH   5   8
ATOM      8  O   UNK A   1       0.243  10.956  18.661  0.00  0.00    +0.000 OA
BRANCH   8   9
ATOM      9  C   UNK A   1      -1.067  11.105  19.219  0.00  0.00    +0.000 C 
BRANCH   9  10
ATOM     10  C   UNK A   1      -2.094  11.034  18.122  0.00  0.00    +0.000 A 
ATOM     11  C   UNK A   1      -1.821  10.354  16.929  0.00  0.00    +0.000 A 
ATOM     12  C   UNK A   1      -2.794  10.258  15.936  0.00  0.00    +0.000 A 
ATOM     13  C   UNK A   1      -4.050  10.834  16.129  0.00  0.00    +0.000 A 
ATOM     14  C   UNK A   1      -4.334  11.503  17.319  0.00  0.00    +0.000 A 
ATOM     15  C   UNK A   1      -3.363  11.600  18.312  0.00  0.00    +0.000 A 
ENDBRANCH   9  10
ENDBRANCH   8   9
ENDBRANCH   5   8
ENDBRANCH   1   2
BRANCH   1  16
ATOM     16  C   UNK A   1       3.098   5.085  18.399  0.00  0.00    +0.000 C 
BRANCH  16  18
ATOM     17  N   ALA A   2       5.528   5.603  18.408  0.00  0.00    +0.000 N 
ATOM     18  C   UNK A   1       4.541   4.766  17.946  0.00  0.00    +0.000 C 
ATOM     19  O   UNK A   1       4.819   3.856  17.160  0.00  0.00    +0.000 OA
ATOM     20  H   ALA A   2       5.267   6.464  18.876  0.00  0.00    +0.000 HD
BRANCH  17  22
ATOM     21  CB  ALA A   2       7.855   5.779  19.185  0.00  0.00    +0.000 C 
ATOM     22  CA  ALA A   2       6.934   5.427  18.019  0.00  0.00    +0.000 C 
BRANCH  22  23
ATOM     23  C   ALA A   2       7.305   6.252  16.769  0.00  0.00    +0.000 C 
ATOM     24  O   ALA A   2       7.480   5.775  15.655  0.00  0.00    +0.000 OA
BRANCH  23  25
ATOM     25  OXT ALA A   2       7.355   7.587  16.980  0.00  0.00    +0.000 OA
ATOM     26  HXT ALA A   2       8.010   7.844  17.678  0.00  0.00    +0.000 HD
ENDBRANCH  23  25
ENDBRANCH  22  23
ENDBRANCH  17  22
ENDBRANCH  16  18
BRANCH  16  27
ATOM     27  N   UNK A   1       2.382   3.825  18.691  0.00  0.00    +0.000 NA
ATOM     28  H   UNK A   1       2.075   3.423  17.800  0.00  0.00    +0.000 HD
ATOM     29  H   UNK A   1       1.507   4.054  19.170  0.00  0.00    +0.000 HD
ENDBRANCH  16  27
ENDBRANCH   1  16
TORSDOF 10
ENDMDL
MODEL 6
REMARK VINA RESULT:      -7.3      0.963      1.395
REMARK  Name = 
REMARK  11 active torsions:
REMARK  status: ('A' for Active; 'I' for Inactive)
REMARK    1  A    between atoms: CB_1  and  CA_2
REMARK    2  A    between atoms: CA_2  and  N_3
REMARK    3  A    between atoms: CA_2  and  C_23
REMARK    4  A    between atoms: C_4  and  C_6
REMARK    5  A    between atoms: C_6  and  N_7
REMARK    6  A    between atoms: C_6  and  C_8
REMARK    7  A    between atoms: C_8  and  C_9
REMARK    8  A    between atoms: C_12  and  O_13
REMARK    9  A    between atoms: O_13  and  C_14
REMARK   10  A    between atoms: C_14  and  C_15
REMARK   11  A    between atoms: C_23  and  OXT_25
REMARK                            x       y       z     vdW  Elec       q    Type
REMARK                         _______ _______ _______ _____ _____    ______ ____
ROOT
ATOM      1  C   UNK A   1       2.620   3.299  18.262  0.00  0.00    +0.000 C 
ENDROOT
BRANCH   1   2
ATOM      2  C   UNK A   1       2.330   4.653  18.868  0.00  0.00    +0.000 A 
ATOM      3  C   UNK A   1       1.876   4.759  20.188  0.00  0.00    +0.000 A 
ATOM      4  C   UNK A   1       1.611   6.000  20.760  0.00  0.00    +0.000 A 
ATOM      5  C   UNK A   1       1.862   7.167  20.044  0.00  0.00    +0.000 A 
ATOM      6  C   UNK A   1       2.299   7.082  18.723  0.00  0.00    +0.000 A 
ATOM      7  C   UNK A   1       2.530   5.832  18.136  0.00  0.00    +0.000 A 
BRANCH   5   8
ATOM      8  O   UNK A   1       1.720   8.429  20.553  0.00  0.00    +0.000 OA
BRANCH   8   9
ATOM      9  C   UNK A   1       0.804   8.530  21.649  0.00  0.00    +0.000 C 
BRANCH   9  10
ATOM     10  C   UNK A   1       0.011   9.803  21.530  0.00  0.00    +0.000 A 
ATOM     11  C   UNK A   1      -0.364  10.297  20.275  0.00  0.00    +0.000 A 
ATOM     12  C   UNK A   1      -1.134  11.455  20.177  0.00  0.00    +0.000 A 
ATOM     13  C   UNK A   1      -1.542  12.122  21.332  0.00  0.00    +0.000 A 
ATOM     14  C   UNK A   1      -1.183  11.631  22.586  0.00  0.00    +0.000 A 
ATOM     15  C   UNK A   1      -0.413  10.475  22.686  0.00  0.00    +0.000 A 
ENDBRANCH   9  10
ENDBRANCH   8   9
ENDBRANCH   5   8
ENDBRANCH   1   2
BRANCH   1  16
ATOM     16  C   UNK A   1       4.030   2.725  18.510  0.00  0.00    +0.000 C 
BRANCH  16  18
ATOM     17  N   ALA A   2       5.394   4.046  16.908  0.00  0.00    +0.000 N 
ATOM     18  C   UNK A   1       5.164   3.736  18.227  0.00  0.00    +0.000 C 
ATOM     19  O   UNK A   1       5.886   4.209  19.108  0.00  0.00    +0.000 OA
ATOM     20  H   ALA A   2       4.942   3.498  16.185  0.00  0.00    +0.000 HD
BRANCH  17  22
ATOM     21  CB  ALA A   2       6.011   6.415  16.662  0.00  0.00    +0.000 C 
ATOM     22  CA  ALA A   2       6.468   4.966  16.507  0.00  0.00    +0.000 C 
BRANCH  22  23
ATOM     23  C   ALA A   2       6.957   4.704  15.066  0.00  0.00    +0.000 C 
ATOM     24  O   ALA A   2       7.773   5.401  14.478  0.00  0.00    +0.000 OA
BRANCH  23  25
ATOM     25  OXT ALA A   2       6.459   3.578  14.508  0.00  0.00    +0.000 OA
ATOM     26  HXT ALA A   2       5.641   3.741  13.972  0.00  0.00    +0.000 HD
ENDBRANCH  23  25
ENDBRANCH  22  23
ENDBRANCH  17  22
ENDBRANCH  16  18
BRANCH  16  27
ATOM     27  N   UNK A   1       4.180   2.185  19.878  0.00  0.00    +0.000 NA
ATOM     28  H   UNK A   1       3.312   1.697  20.120  0.00  0.00    +0.000 HD
ATOM     29  H   UNK A   1       4.208   2.970  20.534  0.00  0.00    +0.000 HD
ENDBRANCH  16  27
ENDBRANCH   1  16
TORSDOF 10
ENDMDL
MODEL 7
REMARK VINA RESULT:      -7.3      2.392      3.285
REMARK  Name = 
REMARK  11 active torsions:
REMARK  status: ('A' for Active; 'I' for Inactive)
REMARK    1  A    between atoms: CB_1  and  CA_2
REMARK    2  A    between atoms: CA_2  and  N_3
REMARK    3  A    between atoms: CA_2  and  C_23
REMARK    4  A    between atoms: C_4  and  C_6
REMARK    5  A    between atoms: C_6  and  N_7
REMARK    6  A    between atoms: C_6  and  C_8
REMARK    7  A    between atoms: C_8  and  C_9
REMARK    8  A    between atoms: C_12  and  O_13
REMARK    9  A    between atoms: O_13  and  C_14
REMARK   10  A    between atoms: C_14  and  C_15
REMARK   11  A    between atoms: C_23  and  OXT_25
REMARK                            x       y       z     vdW  Elec       q    Type
REMARK                         _______ _______ _______ _____ _____    ______ ____
ROOT
ATOM      1  C   UNK A   1       2.880   5.873  19.629  0.00  0.00    +0.000 C 
ENDROOT
BRANCH   1   2
ATOM      2  C   UNK A   1       2.151   7.196  19.692  0.00  0.00    +0.000 A 
ATOM      3  C   UNK A   1       1.492   7.590  20.863  0.00  0.00    +0.000 A 
ATOM      4  C   UNK A   1       0.822   8.807  20.936  0.00  0.00    +0.000 A 
ATOM      5  C   UNK A   1       0.858   9.690  19.860  0.00  0.00    +0.000 A 
ATOM      6  C   UNK A   1       1.496   9.309  18.680  0.00  0.00    +0.000 A 
ATOM      7  C   UNK A   1       2.138   8.068  18.594  0.00  0.00    +0.000 A 
BRANCH   5   8
ATOM      8  O   UNK A   1       0.309  10.944  19.873  0.00  0.00    +0.000 OA
BRANCH   8   9
ATOM      9  C   UNK A   1      -0.068  11.442  18.585  0.00  0.00    +0.000 C 
BRANCH   9  10
ATOM     10  C   UNK A   1      -1.523  11.148  18.336  0.00  0.00    +0.000 A 
ATOM     11  C   UNK A   1      -2.521  11.964  18.882  0.00  0.00    +0.000 A 
ATOM     12  C   UNK A   1      -3.864  11.708  18.610  0.00  0.00    +0.000 A 
ATOM     13  C   UNK A   1      -4.220  10.640  17.786  0.00  0.00    +0.000 A 
ATOM     14  C   UNK A   1      -3.231   9.830  17.229  0.00  0.00    +0.000 A 
ATOM     15  C   UNK A   1      -1.889  10.084  17.499  0.00  0.00    +0.000 A 
ENDBRANCH   9  10
ENDBRANCH   8   9
ENDBRANCH   5   8
ENDBRANCH   1   2
BRANCH   1  16
ATOM     16  C   UNK A   1       3.003   5.224  18.236  0.00  0.00    +0.000 C 
BRANCH  16  18
ATOM     17  N   ALA A   2       5.448   5.660  18.319  0.00  0.00    +0.000 N 
ATOM     18  C   UNK A   1       4.451   4.829  17.867  0.00  0.00    +0.000 C 
ATOM     19  O   UNK A   1       4.728   3.863  17.152  0.00  0.00    +0.000 OA
ATOM     20  H   ALA A   2       5.199   6.557  18.722  0.00  0.00    +0.000 HD
BRANCH  17  22
ATOM     21  CB  ALA A   2       7.742   5.770  19.199  0.00  0.00    +0.000 C 
ATOM     22  CA  ALA A   2       6.861   5.412  18.005  0.00  0.00    +0.000 C 
BRANCH  22  23
ATOM     23  C   ALA A   2       7.324   6.175  16.744  0.00  0.00    +0.000 C 
ATOM     24  O   ALA A   2       7.403   5.679  15.628  0.00  0.00    +0.000 OA
BRANCH  23  25
ATOM     25  OXT ALA A   2       7.576   7.487  16.953  0.00  0.00    +0.000 OA
ATOM     26  HXT ALA A   2       6.894   8.082  16.549  0.00  0.00    +0.000 HD
ENDBRANCH  23  25
ENDBRANCH  22  23
ENDBRANCH  17  22
ENDBRANCH  16  18
BRANCH  16  27
ATOM     27  N   UNK A   1       2.118   4.050  18.088  0.00  0.00    +0.000 NA
ATOM     28  H   UNK A   1       1.358   4.307  17.450  0.00  0.00    +0.000 HD
ATOM     29  H   UNK A   1       1.643   3.889  18.979  0.00  0.00    +0.000 HD
ENDBRANCH  16  27
ENDBRANCH   1  16
TORSDOF 10
ENDMDL
MODEL 8
REMARK VINA RESULT:      -7.3      1.626      2.093
REMARK  Name = 
REMARK  11 active torsions:
REMARK  status: ('A' for Active; 'I' for Inactive)
REMARK    1  A    between atoms: CB_1  and  CA_2
REMARK    2  A    between atoms: CA_2  and  N_3
REMARK    3  A    between atoms: CA_2  and  C_23
REMARK    4  A    between atoms: C_4  and  C_6
REMARK    5  A    between atoms: C_6  and  N_7
REMARK    6  A    between atoms: C_6  and  C_8
REMARK    7  A    between atoms: C_8  and  C_9
REMARK    8  A    between atoms: C_12  and  O_13
REMARK    9  A    between atoms: O_13  and  C_14
REMARK   10  A    between atoms: C_14  and  C_15
REMARK   11  A    between atoms: C_23  and  OXT_25
REMARK                            x       y       z     vdW  Elec       q    Type
REMARK                         _______ _______ _______ _____ _____    ______ ____
ROOT
ATOM      1  C   UNK A   1       2.684   3.227  18.612  0.00  0.00    +0.000 C 
ENDROOT
BRANCH   1   2
ATOM      2  C   UNK A   1       2.384   4.674  18.935  0.00  0.00    +0.000 A 
ATOM      3  C   UNK A   1       2.087   5.061  20.247  0.00  0.00    +0.000 A 
ATOM      4  C   UNK A   1       1.815   6.390  20.560  0.00  0.00    +0.000 A 
ATOM      5  C   UNK A   1       1.904   7.372  19.576  0.00  0.00    +0.000 A 
ATOM      6  C   UNK A   1       2.183   7.002  18.261  0.00  0.00    +0.000 A 
ATOM      7  C   UNK A   1       2.421   5.660  17.940  0.00  0.00    +0.000 A 
BRANCH   5   8
ATOM      8  O   UNK A   1       1.745   8.711  19.807  0.00  0.00    +0.000 OA
BRANCH   8   9
ATOM      9  C   UNK A   1       1.575   9.503  18.627  0.00  0.00    +0.000 C 
BRANCH   9  10
ATOM     10  C   UNK A   1       0.226  10.168  18.654  0.00  0.00    +0.000 A 
ATOM     11  C   UNK A   1      -0.754   9.836  17.710  0.00  0.00    +0.000 A 
ATOM     12  C   UNK A   1      -2.015  10.426  17.770  0.00  0.00    +0.000 A 
ATOM     13  C   UNK A   1      -2.310  11.346  18.777  0.00  0.00    +0.000 A 
ATOM     14  C   UNK A   1      -1.344  11.673  19.727  0.00  0.00    +0.000 A 
ATOM     15  C   UNK A   1      -0.084  11.085  19.669  0.00  0.00    +0.000 A 
ENDBRANCH   9  10
ENDBRANCH   8   9
ENDBRANCH   5   8
ENDBRANCH   1   2
BRANCH   1  16
ATOM     16  C   UNK A   1       4.126   2.751  18.878  0.00  0.00    +0.000 C 
BRANCH  16  18
ATOM     17  N   ALA A   2       5.395   4.016  17.157  0.00  0.00    +0.000 N 
ATOM     18  C   UNK A   1       5.200   3.796  18.500  0.00  0.00    +0.000 C 
ATOM     19  O   UNK A   1       5.907   4.372  19.330  0.00  0.00    +0.000 OA
ATOM     20  H   ALA A   2       4.963   3.391  16.486  0.00  0.00    +0.000 HD
BRANCH  17  22
ATOM     21  CB  ALA A   2       5.889   6.390  16.747  0.00  0.00    +0.000 C 
ATOM     22  CA  ALA A   2       6.412   4.958  16.670  0.00  0.00    +0.000 C 
BRANCH  22  23
ATOM     23  C   ALA A   2       6.876   4.629  15.234  0.00  0.00    +0.000 C 
ATOM     24  O   ALA A   2       7.689   5.292  14.604  0.00  0.00    +0.000 OA
BRANCH  23  25
ATOM     25  OXT ALA A   2       6.359   3.484  14.734  0.00  0.00    +0.000 OA
ATOM     26  HXT ALA A   2       6.342   2.745  15.394  0.00  0.00    +0.000 HD
ENDBRANCH  23  25
ENDBRANCH  22  23
ENDBRANCH  17  22
ENDBRANCH  16  18
BRANCH  16  27
ATOM     27  N   UNK A   1       4.323   2.326  20.281  0.00  0.00    +0.000 NA
ATOM     28  H   UNK A   1       3.749   2.931  20.876  0.00  0.00    +0.000 HD
ATOM     29  H   UNK A   1       5.282   2.553  20.556  0.00  0.00    +0.000 HD
ENDBRANCH  16  27
ENDBRANCH   1  16
TORSDOF 10
ENDMDL
MODEL 9
REMARK VINA RESULT:      -7.3      3.969      7.227
REMARK  Name = 
REMARK  11 active torsions:
REMARK  status: ('A' for Active; 'I' for Inactive)
REMARK    1  A    between atoms: CB_1  and  CA_2
REMARK    2  A    between atoms: CA_2  and  N_3
REMARK    3  A    between atoms: CA_2  and  C_23
REMARK    4  A    between atoms: C_4  and  C_6
REMARK    5  A    between atoms: C_6  and  N_7
REMARK    6  A    between atoms: C_6  and  C_8
REMARK    7  A    between atoms: C_8  and  C_9
REMARK    8  A    between atoms: C_12  and  O_13
REMARK    9  A    between atoms: O_13  and  C_14
REMARK   10  A    between atoms: C_14  and  C_15
REMARK   11  A    between atoms: C_23  and  OXT_25
REMARK                            x       y       z     vdW  Elec       q    Type
REMARK                         _______ _______ _______ _____ _____    ______ ____
ROOT
ATOM      1  C   UNK A   1       5.439   4.103  17.019  0.00  0.00    +0.000 C 
ENDROOT
BRANCH   1   2
ATOM      2  C   UNK A   1       6.333   5.247  17.441  0.00  0.00    +0.000 A 
ATOM      3  C   UNK A   1       6.289   6.471  16.762  0.00  0.00    +0.000 A 
ATOM      4  C   UNK A   1       7.102   7.534  17.143  0.00  0.00    +0.000 A 
ATOM      5  C   UNK A   1       7.927   7.418  18.259  0.00  0.00    +0.000 A 
ATOM      6  C   UNK A   1       7.995   6.202  18.938  0.00  0.00    +0.000 A 
ATOM      7  C   UNK A   1       7.204   5.121  18.531  0.00  0.00    +0.000 A 
BRANCH   5   8
ATOM      8  O   UNK A   1       8.690   8.436  18.763  0.00  0.00    +0.000 OA
BRANCH   8   9
ATOM      9  C   UNK A   1       8.603   9.663  18.031  0.00  0.00    +0.000 C 
BRANCH   9  10
ATOM     10  C   UNK A   1       9.372  10.737  18.752  0.00  0.00    +0.000 A 
ATOM     11  C   UNK A   1       9.961  11.792  18.046  0.00  0.00    +0.000 A 
ATOM     12  C   UNK A   1      10.635  12.804  18.727  0.00  0.00    +0.000 A 
ATOM     13  C   UNK A   1      10.720  12.774  20.119  0.00  0.00    +0.000 A 
ATOM     14  C   UNK A   1      10.126  11.733  20.831  0.00  0.00    +0.000 A 
ATOM     15  C   UNK A   1       9.452  10.721  20.153  0.00  0.00    +0.000 A 
ENDBRANCH   9  10
ENDBRANCH   8   9
ENDBRANCH   5   8
ENDBRANCH   1   2
BRANCH   1  16
ATOM     16  C   UNK A   1       4.406   3.621  18.058  0.00  0.00    +0.000 C 
BRANCH  16  18
ATOM     17  N   ALA A   2       3.425   5.872  18.437  0.00  0.00    +0.000 N 
ATOM     18  C   UNK A   1       3.174   4.546  18.175  0.00  0.00    +0.000 C 
ATOM     19  O   UNK A   1       2.012   4.139  18.108  0.00  0.00    +0.000 OA
ATOM     20  H   ALA A   2       4.363   6.155  18.698  0.00  0.00    +0.000 HD
BRANCH  17  22
ATOM     21  CB  ALA A   2       2.688   8.160  17.918  0.00  0.00    +0.000 C 
ATOM     22  CA  ALA A   2       2.337   6.844  18.607  0.00  0.00    +0.000 C 
BRANCH  22  23
ATOM     23  C   ALA A   2       1.994   7.087  20.093  0.00  0.00    +0.000 C 
ATOM     24  O   ALA A   2       1.674   8.173  20.558  0.00  0.00    +0.000 OA
BRANCH  23  25
ATOM     25  OXT ALA A   2       2.004   5.969  20.853  0.00  0.00    +0.000 OA
ATOM     26  HXT ALA A   2       2.919   5.660  21.076  0.00  0.00    +0.000 HD
ENDBRANCH  23  25
ENDBRANCH  22  23
ENDBRANCH  17  22
ENDBRANCH  16  18
BRANCH  16  27
ATOM     27  N   UNK A   1       3.961   2.235  17.800  0.00  0.00    +0.000 NA
ATOM     28  H   UNK A   1       4.668   1.782  17.213  0.00  0.00    +0.000 HD
ATOM     29  H   UNK A   1       3.132   2.268  17.201  0.00  0.00    +0.000 HD
ENDBRANCH  16  27
ENDBRANCH   1  16
TORSDOF 10
ENDMDL
