MODEL 1
REMARK VINA RESULT:      -6.4      0.000      0.000
REMARK  Name = 
REMARK  5 active torsions:
REMARK  status: ('A' for Active; 'I' for Inactive)
REMARK    1  A    between atoms: C_1  and  C_2
REMARK    2  A    between atoms: C_3  and  O_4
REMARK    3  A    between atoms: N_9  and  C_10
REMARK    4  A    between atoms: C_13  and  C_14
REMARK    5  A    between atoms: C_14  and  O_15
REMARK                            x       y       z     vdW  Elec       q    Type
REMARK                         _______ _______ _______ _____ _____    ______ ____
ROOT
ATOM      1  C   UNL     1       5.128   4.298  15.234  0.00  0.00    +0.000 C 
ATOM      2  C   UNL     1       5.488   4.502  16.692  0.00  0.00    +0.000 A 
ATOM      3  C   UNL     1       6.779   4.666  17.081  0.00  0.00    +0.000 A 
ATOM      4  C   UNL     1       7.058   4.997  18.522  0.00  0.00    +0.000 A 
ATOM      5  O   UNL     1       8.195   5.020  18.990  0.00  0.00    +0.000 OA
ATOM      6  C   UNL     1       5.907   5.317  19.379  0.00  0.00    +0.000 A 
ATOM      7  C   UNL     1       4.690   5.096  18.885  0.00  0.00    +0.000 A 
ATOM      8  N   UNL     1       4.413   4.591  17.618  0.00  0.00    +0.000 N 
ENDROOT
BRANCH   8   9
ATOM      9  C   UNL     1       3.101   3.919  17.369  0.00  0.00    +0.000 C 
ATOM     10  C   UNL     1       3.189   2.419  17.703  0.00  0.00    +0.000 C 
ATOM     11  S   UNL     1       2.196   2.143  19.167  0.00  0.00    +0.000 S 
ATOM     12  C   UNL     1       1.347   3.717  18.981  0.00  0.00    +0.000 C 
ATOM     13  O   UNL     1       2.026   4.571  18.060  0.00  0.00    +0.000 OA
BRANCH  12  14
ATOM     14  C   UNL     1       1.174   4.411  20.349  0.00  0.00    +0.000 C 
BRANCH  14  15
ATOM     15  O   UNL     1       2.253   4.168  21.256  0.00  0.00    +0.000 OA
ATOM     16  H   UNL     1       3.066   4.121  20.718  0.00  0.00    +0.000 HD
ENDBRANCH  14  15
ENDBRANCH  12  14
ENDBRANCH   8   9
BRANCH   3  17
ATOM     17  O   UNL     1       7.883   4.548  16.256  0.00  0.00    +0.000 OA
ATOM     18  H   UNL     1       7.699   4.953  15.398  0.00  0.00    +0.000 HD
ENDBRANCH   3  17
TORSDOF 4
ENDMDL
MODEL 2
REMARK VINA RESULT:      -6.3      2.267      5.120
REMARK  Name = 
REMARK  5 active torsions:
REMARK  status: ('A' for Active; 'I' for Inactive)
REMARK    1  A    between atoms: C_1  and  C_2
REMARK    2  A    between atoms: C_3  and  O_4
REMARK    3  A    between atoms: N_9  and  C_10
REMARK    4  A    between atoms: C_13  and  C_14
REMARK    5  A    between atoms: C_14  and  O_15
REMARK                            x       y       z     vdW  Elec       q    Type
REMARK                         _______ _______ _______ _____ _____    ______ ____
ROOT
ATOM      1  C   UNL     1       1.092   4.125  17.653  0.00  0.00    +0.000 C 
ATOM      2  C   UNL     1       2.175   3.747  18.643  0.00  0.00    +0.000 A 
ATOM      3  C   UNL     1       1.865   3.261  19.873  0.00  0.00    +0.000 A 
ATOM      4  C   UNL     1       2.983   2.779  20.757  0.00  0.00    +0.000 A 
ATOM      5  O   UNL     1       2.810   2.461  21.932  0.00  0.00    +0.000 OA
ATOM      6  C   UNL     1       4.324   2.680  20.161  0.00  0.00    +0.000 A 
ATOM      7  C   UNL     1       4.503   3.211  18.953  0.00  0.00    +0.000 A 
ATOM      8  N   UNL     1       3.522   3.849  18.200  0.00  0.00    +0.000 N 
ENDROOT
BRANCH   8   9
ATOM      9  C   UNL     1       3.931   4.825  17.142  0.00  0.00    +0.000 C 
ATOM     10  C   UNL     1       4.208   6.207  17.758  0.00  0.00    +0.000 C 
ATOM     11  S   UNL     1       5.971   6.496  17.644  0.00  0.00    +0.000 S 
ATOM     12  C   UNL     1       6.183   5.190  16.425  0.00  0.00    +0.000 C 
ATOM     13  O   UNL     1       5.037   4.340  16.367  0.00  0.00    +0.000 OA
BRANCH  12  14
ATOM     14  C   UNL     1       7.460   4.373  16.715  0.00  0.00    +0.000 C 
BRANCH  14  15
ATOM     15  O   UNL     1       7.774   4.274  18.107  0.00  0.00    +0.000 OA
ATOM     16  H   UNL     1       8.265   5.085  18.341  0.00  0.00    +0.000 HD
ENDBRANCH  14  15
ENDBRANCH  12  14
ENDBRANCH   8   9
BRANCH   3  17
ATOM     17  O   UNL     1       0.589   3.172  20.399  0.00  0.00    +0.000 OA
ATOM     18  H   UNL     1       0.537   3.672  21.224  0.00  0.00    +0.000 HD
ENDBRANCH   3  17
TORSDOF 4
ENDMDL
MODEL 3
REMARK VINA RESULT:      -6.2      1.923      3.106
REMARK  Name = 
REMARK  5 active torsions:
REMARK  status: ('A' for Active; 'I' for Inactive)
REMARK    1  A    between atoms: C_1  and  C_2
REMARK    2  A    between atoms: C_3  and  O_4
REMARK    3  A    between atoms: N_9  and  C_10
REMARK    4  A    between atoms: C_13  and  C_14
REMARK    5  A    between atoms: C_14  and  O_15
REMARK                            x       y       z     vdW  Elec       q    Type
REMARK                         _______ _______ _______ _____ _____    ______ ____
ROOT
ATOM      1  C   UNL     1       7.319   5.754  19.200  0.00  0.00    +0.000 C 
ATOM      2  C   UNL     1       6.486   5.377  17.991  0.00  0.00    +0.000 A 
ATOM      3  C   UNL     1       6.817   5.810  16.747  0.00  0.00    +0.000 A 
ATOM      4  C   UNL     1       6.029   5.292  15.574  0.00  0.00    +0.000 A 
ATOM      5  O   UNL     1       6.163   5.737  14.436  0.00  0.00    +0.000 OA
ATOM      6  C   UNL     1       5.079   4.199  15.826  0.00  0.00    +0.000 A 
ATOM      7  C   UNL     1       4.827   3.879  17.094  0.00  0.00    +0.000 A 
ATOM      8  N   UNL     1       5.396   4.491  18.207  0.00  0.00    +0.000 N 
ENDROOT
BRANCH   8   9
ATOM      9  C   UNL     1       4.687   4.420  19.523  0.00  0.00    +0.000 C 
ATOM     10  C   UNL     1       3.621   5.525  19.624  0.00  0.00    +0.000 C 
ATOM     11  S   UNL     1       2.021   4.726  19.573  0.00  0.00    +0.000 S 
ATOM     12  C   UNL     1       2.729   3.114  19.944  0.00  0.00    +0.000 C 
ATOM     13  O   UNL     1       4.146   3.114  19.768  0.00  0.00    +0.000 OA
BRANCH  12  14
ATOM     14  C   UNL     1       2.067   2.015  19.087  0.00  0.00    +0.000 C 
BRANCH  14  15
ATOM     15  O   UNL     1       3.003   1.205  18.369  0.00  0.00    +0.000 OA
ATOM     16  H   UNL     1       3.564   1.817  17.855  0.00  0.00    +0.000 HD
ENDBRANCH  14  15
ENDBRANCH  12  14
ENDBRANCH   8   9
BRANCH   3  17
ATOM     17  O   UNL     1       7.829   6.706  16.456  0.00  0.00    +0.000 OA
ATOM     18  H   UNL     1       7.459   7.501  16.048  0.00  0.00    +0.000 HD
ENDBRANCH   3  17
TORSDOF 4
ENDMDL
MODEL 4
REMARK VINA RESULT:      -6.2      2.195      5.140
REMARK  Name = 
REMARK  5 active torsions:
REMARK  status: ('A' for Active; 'I' for Inactive)
REMARK    1  A    between atoms: C_1  and  C_2
REMARK    2  A    between atoms: C_3  and  O_4
REMARK    3  A    between atoms: N_9  and  C_10
REMARK    4  A    between atoms: C_13  and  C_14
REMARK    5  A    between atoms: C_14  and  O_15
REMARK                            x       y       z     vdW  Elec       q    Type
REMARK                         _______ _______ _______ _____ _____    ______ ____
ROOT
ATOM      1  C   UNL     1       3.772   1.647  18.079  0.00  0.00    +0.000 C 
ATOM      2  C   UNL     1       3.321   2.950  18.709  0.00  0.00    +0.000 A 
ATOM      3  C   UNL     1       2.108   3.057  19.311  0.00  0.00    +0.000 A 
ATOM      4  C   UNL     1       1.776   4.335  20.033  0.00  0.00    +0.000 A 
ATOM      5  O   UNL     1       0.656   4.574  20.479  0.00  0.00    +0.000 OA
ATOM      6  C   UNL     1       2.859   5.314  20.211  0.00  0.00    +0.000 A 
ATOM      7  C   UNL     1       3.997   5.102  19.551  0.00  0.00    +0.000 A 
ATOM      8  N   UNL     1       4.252   4.025  18.709  0.00  0.00    +0.000 N 
ENDROOT
BRANCH   8   9
ATOM      9  C   UNL     1       5.310   4.150  17.660  0.00  0.00    +0.000 C 
ATOM     10  C   UNL     1       4.983   5.306  16.697  0.00  0.00    +0.000 C 
ATOM     11  S   UNL     1       6.184   6.600  16.993  0.00  0.00    +0.000 S 
ATOM     12  C   UNL     1       7.286   5.481  17.872  0.00  0.00    +0.000 C 
ATOM     13  O   UNL     1       6.620   4.270  18.233  0.00  0.00    +0.000 OA
BRANCH  12  14
ATOM     14  C   UNL     1       7.887   6.170  19.115  0.00  0.00    +0.000 C 
BRANCH  14  15
ATOM     15  O   UNL     1       7.803   5.382  20.306  0.00  0.00    +0.000 OA
ATOM     16  H   UNL     1       6.945   4.918  20.273  0.00  0.00    +0.000 HD
ENDBRANCH  14  15
ENDBRANCH  12  14
ENDBRANCH   8   9
BRANCH   3  17
ATOM     17  O   UNL     1       1.130   2.081  19.316  0.00  0.00    +0.000 OA
ATOM     18  H   UNL     1       1.065   1.682  20.194  0.00  0.00    +0.000 HD
ENDBRANCH   3  17
TORSDOF 4
ENDMDL
MODEL 5
REMARK VINA RESULT:      -6.2      2.208      5.659
REMARK  Name = 
REMARK  5 active torsions:
REMARK  status: ('A' for Active; 'I' for Inactive)
REMARK    1  A    between atoms: C_1  and  C_2
REMARK    2  A    between atoms: C_3  and  O_4
REMARK    3  A    between atoms: N_9  and  C_10
REMARK    4  A    between atoms: C_13  and  C_14
REMARK    5  A    between atoms: C_14  and  O_15
REMARK                            x       y       z     vdW  Elec       q    Type
REMARK                         _______ _______ _______ _____ _____    ______ ____
ROOT
ATOM      1  C   UNL     1       2.209   6.462  19.993  0.00  0.00    +0.000 C 
ATOM      2  C   UNL     1       2.352   5.160  19.228  0.00  0.00    +0.000 A 
ATOM      3  C   UNL     1       1.518   4.114  19.460  0.00  0.00    +0.000 A 
ATOM      4  C   UNL     1       1.627   2.900  18.577  0.00  0.00    +0.000 A 
ATOM      5  O   UNL     1       1.017   1.858  18.803  0.00  0.00    +0.000 OA
ATOM      6  C   UNL     1       2.494   3.000  17.393  0.00  0.00    +0.000 A 
ATOM      7  C   UNL     1       3.278   4.071  17.291  0.00  0.00    +0.000 A 
ATOM      8  N   UNL     1       3.343   5.114  18.210  0.00  0.00    +0.000 N 
ENDROOT
BRANCH   8   9
ATOM      9  C   UNL     1       4.572   5.963  18.267  0.00  0.00    +0.000 C 
ATOM     10  C   UNL     1       5.695   5.241  19.033  0.00  0.00    +0.000 C 
ATOM     11  S   UNL     1       6.960   4.813  17.841  0.00  0.00    +0.000 S 
ATOM     12  C   UNL     1       6.306   5.960  16.620  0.00  0.00    +0.000 C 
ATOM     13  O   UNL     1       4.988   6.391  16.962  0.00  0.00    +0.000 OA
BRANCH  12  14
ATOM     14  C   UNL     1       6.333   5.334  15.211  0.00  0.00    +0.000 C 
BRANCH  14  15
ATOM     15  O   UNL     1       7.644   5.247  14.645  0.00  0.00    +0.000 OA
ATOM     16  H   UNL     1       7.616   4.531  13.983  0.00  0.00    +0.000 HD
ENDBRANCH  14  15
ENDBRANCH  12  14
ENDBRANCH   8   9
BRANCH   3  17
ATOM     17  O   UNL     1       0.563   4.059  20.459  0.00  0.00    +0.000 OA
ATOM     18  H   UNL     1      -0.285   4.377  20.122  0.00  0.00    +0.000 HD
ENDBRANCH   3  17
TORSDOF 4
ENDMDL
MODEL 6
REMARK VINA RESULT:      -6.0      2.378      5.378
REMARK  Name = 
REMARK  5 active torsions:
REMARK  status: ('A' for Active; 'I' for Inactive)
REMARK    1  A    between atoms: C_1  and  C_2
REMARK    2  A    between atoms: C_3  and  O_4
REMARK    3  A    between atoms: N_9  and  C_10
REMARK    4  A    between atoms: C_13  and  C_14
REMARK    5  A    between atoms: C_14  and  O_15
REMARK                            x       y       z     vdW  Elec       q    Type
REMARK                         _______ _______ _______ _____ _____    ______ ____
ROOT
ATOM      1  C   UNL     1       1.735   5.041  17.919  0.00  0.00    +0.000 C 
ATOM      2  C   UNL     1       2.487   4.256  18.976  0.00  0.00    +0.000 A 
ATOM      3  C   UNL     1       1.827   3.601  19.966  0.00  0.00    +0.000 A 
ATOM      4  C   UNL     1       2.620   2.732  20.904  0.00  0.00    +0.000 A 
ATOM      5  O   UNL     1       2.131   2.222  21.910  0.00  0.00    +0.000 OA
ATOM      6  C   UNL     1       4.032   2.488  20.571  0.00  0.00    +0.000 A 
ATOM      7  C   UNL     1       4.567   3.208  19.586  0.00  0.00    +0.000 A 
ATOM      8  N   UNL     1       3.899   4.172  18.838  0.00  0.00    +0.000 N 
ENDROOT
BRANCH   8   9
ATOM      9  C   UNL     1       4.688   5.240  18.150  0.00  0.00    +0.000 C 
ATOM     10  C   UNL     1       6.085   5.374  18.782  0.00  0.00    +0.000 C 
ATOM     11  S   UNL     1       7.271   4.776  17.582  0.00  0.00    +0.000 S 
ATOM     12  C   UNL     1       6.080   4.884  16.238  0.00  0.00    +0.000 C 
ATOM     13  O   UNL     1       4.748   5.030  16.731  0.00  0.00    +0.000 OA
BRANCH  12  14
ATOM     14  C   UNL     1       6.193   3.658  15.308  0.00  0.00    +0.000 C 
BRANCH  14  15
ATOM     15  O   UNL     1       6.449   3.995  13.942  0.00  0.00    +0.000 OA
ATOM     16  H   UNL     1       7.178   4.644  13.946  0.00  0.00    +0.000 HD
ENDBRANCH  14  15
ENDBRANCH  12  14
ENDBRANCH   8   9
BRANCH   3  17
ATOM     17  O   UNL     1       0.465   3.668  20.199  0.00  0.00    +0.000 OA
ATOM     18  H   UNL     1       0.294   3.691  21.150  0.00  0.00    +0.000 HD
ENDBRANCH   3  17
TORSDOF 4
ENDMDL
MODEL 7
REMARK VINA RESULT:      -6.0      1.729      2.086
REMARK  Name = 
REMARK  5 active torsions:
REMARK  status: ('A' for Active; 'I' for Inactive)
REMARK    1  A    between atoms: C_1  and  C_2
REMARK    2  A    between atoms: C_3  and  O_4
REMARK    3  A    between atoms: N_9  and  C_10
REMARK    4  A    between atoms: C_13  and  C_14
REMARK    5  A    between atoms: C_14  and  O_15
REMARK                            x       y       z     vdW  Elec       q    Type
REMARK                         _______ _______ _______ _____ _____    ______ ____
ROOT
ATOM      1  C   UNL     1       3.443   7.589  17.541  0.00  0.00    +0.000 C 
ATOM      2  C   UNL     1       4.291   6.361  17.804  0.00  0.00    +0.000 A 
ATOM      3  C   UNL     1       5.570   6.281  17.353  0.00  0.00    +0.000 A 
ATOM      4  C   UNL     1       6.401   5.094  17.760  0.00  0.00    +0.000 A 
ATOM      5  O   UNL     1       7.512   4.867  17.286  0.00  0.00    +0.000 OA
ATOM      6  C   UNL     1       5.843   4.194  18.781  0.00  0.00    +0.000 A 
ATOM      7  C   UNL     1       4.568   4.367  19.125  0.00  0.00    +0.000 A 
ATOM      8  N   UNL     1       3.717   5.337  18.604  0.00  0.00    +0.000 N 
ENDROOT
BRANCH   8   9
ATOM      9  C   UNL     1       2.238   5.121  18.666  0.00  0.00    +0.000 C 
ATOM     10  C   UNL     1       1.826   3.936  17.775  0.00  0.00    +0.000 C 
ATOM     11  S   UNL     1       1.304   2.612  18.862  0.00  0.00    +0.000 S 
ATOM     12  C   UNL     1       1.131   3.726  20.263  0.00  0.00    +0.000 C 
ATOM     13  O   UNL     1       1.775   4.978  20.017  0.00  0.00    +0.000 OA
BRANCH  12  14
ATOM     14  C   UNL     1       1.673   3.073  21.552  0.00  0.00    +0.000 C 
BRANCH  14  15
ATOM     15  O   UNL     1       2.978   2.505  21.403  0.00  0.00    +0.000 OA
ATOM     16  H   UNL     1       3.515   2.842  22.145  0.00  0.00    +0.000 HD
ENDBRANCH  14  15
ENDBRANCH  12  14
ENDBRANCH   8   9
BRANCH   3  17
ATOM     17  O   UNL     1       6.188   7.206  16.533  0.00  0.00    +0.000 OA
ATOM     18  H   UNL     1       6.828   7.723  17.041  0.00  0.00    +0.000 HD
ENDBRANCH   3  17
TORSDOF 4
ENDMDL
MODEL 8
REMARK VINA RESULT:      -6.0      1.279      1.389
REMARK  Name = 
REMARK  5 active torsions:
REMARK  status: ('A' for Active; 'I' for Inactive)
REMARK    1  A    between atoms: C_1  and  C_2
REMARK    2  A    between atoms: C_3  and  O_4
REMARK    3  A    between atoms: N_9  and  C_10
REMARK    4  A    between atoms: C_13  and  C_14
REMARK    5  A    between atoms: C_14  and  O_15
REMARK                            x       y       z     vdW  Elec       q    Type
REMARK                         _______ _______ _______ _____ _____    ______ ____
ROOT
ATOM      1  C   UNL     1       4.897   6.577  15.592  0.00  0.00    +0.000 C 
ATOM      2  C   UNL     1       5.533   5.784  16.717  0.00  0.00    +0.000 A 
ATOM      3  C   UNL     1       6.819   5.354  16.633  0.00  0.00    +0.000 A 
ATOM      4  C   UNL     1       7.433   4.690  17.836  0.00  0.00    +0.000 A 
ATOM      5  O   UNL     1       8.534   4.144  17.803  0.00  0.00    +0.000 OA
ATOM      6  C   UNL     1       6.669   4.723  19.092  0.00  0.00    +0.000 A 
ATOM      7  C   UNL     1       5.409   5.152  19.037  0.00  0.00    +0.000 A 
ATOM      8  N   UNL     1       4.752   5.580  17.887  0.00  0.00    +0.000 N 
ENDROOT
BRANCH   8   9
ATOM      9  C   UNL     1       3.258   5.542  17.840  0.00  0.00    +0.000 C 
ATOM     10  C   UNL     1       2.767   4.180  17.318  0.00  0.00    +0.000 C 
ATOM     11  S   UNL     1       1.994   3.332  18.692  0.00  0.00    +0.000 S 
ATOM     12  C   UNL     1       1.858   4.848  19.650  0.00  0.00    +0.000 C 
ATOM     13  O   UNL     1       2.675   5.885  19.106  0.00  0.00    +0.000 OA
BRANCH  12  14
ATOM     14  C   UNL     1       2.206   4.592  21.131  0.00  0.00    +0.000 C 
BRANCH  14  15
ATOM     15  O   UNL     1       1.802   3.303  21.602  0.00  0.00    +0.000 OA
ATOM     16  H   UNL     1       1.279   2.895  20.886  0.00  0.00    +0.000 HD
ENDBRANCH  14  15
ENDBRANCH  12  14
ENDBRANCH   8   9
BRANCH   3  17
ATOM     17  O   UNL     1       7.629   5.470  15.519  0.00  0.00    +0.000 OA
ATOM     18  H   UNL     1       7.443   4.751  14.900  0.00  0.00    +0.000 HD
ENDBRANCH   3  17
TORSDOF 4
ENDMDL
MODEL 9
REMARK VINA RESULT:      -5.9      2.260      5.379
REMARK  Name = 
REMARK  5 active torsions:
REMARK  status: ('A' for Active; 'I' for Inactive)
REMARK    1  A    between atoms: C_1  and  C_2
REMARK    2  A    between atoms: C_3  and  O_4
REMARK    3  A    between atoms: N_9  and  C_10
REMARK    4  A    between atoms: C_13  and  C_14
REMARK    5  A    between atoms: C_14  and  O_15
REMARK                            x       y       z     vdW  Elec       q    Type
REMARK                         _______ _______ _______ _____ _____    ______ ____
ROOT
ATOM      1  C   UNL     1       2.537   6.826  19.062  0.00  0.00    +0.000 C 
ATOM      2  C   UNL     1       2.845   5.342  19.086  0.00  0.00    +0.000 A 
ATOM      3  C   UNL     1       2.046   4.470  19.755  0.00  0.00    +0.000 A 
ATOM      4  C   UNL     1       2.330   2.997  19.630  0.00  0.00    +0.000 A 
ATOM      5  O   UNL     1       1.753   2.151  20.310  0.00  0.00    +0.000 OA
ATOM      6  C   UNL     1       3.330   2.582  18.635  0.00  0.00    +0.000 A 
ATOM      7  C   UNL     1       4.061   3.535  18.060  0.00  0.00    +0.000 A 
ATOM      8  N   UNL     1       3.955   4.898  18.317  0.00  0.00    +0.000 N 
ENDROOT
BRANCH   8   9
ATOM      9  C   UNL     1       5.119   5.790  18.028  0.00  0.00    +0.000 C 
ATOM     10  C   UNL     1       6.355   5.346  18.830  0.00  0.00    +0.000 C 
ATOM     11  S   UNL     1       7.537   4.682  17.661  0.00  0.00    +0.000 S 
ATOM     12  C   UNL     1       6.696   5.441  16.264  0.00  0.00    +0.000 C 
ATOM     13  O   UNL     1       5.386   5.883  16.621  0.00  0.00    +0.000 OA
BRANCH  12  14
ATOM     14  C   UNL     1       6.643   4.471  15.065  0.00  0.00    +0.000 C 
BRANCH  14  15
ATOM     15  O   UNL     1       6.203   3.154  15.411  0.00  0.00    +0.000 OA
ATOM     16  H   UNL     1       5.396   2.983  14.890  0.00  0.00    +0.000 HD
ENDBRANCH  14  15
ENDBRANCH  12  14
ENDBRANCH   8   9
BRANCH   3  17
ATOM     17  O   UNL     1       0.979   4.821  20.561  0.00  0.00    +0.000 OA
ATOM     18  H   UNL     1       1.276   4.922  21.476  0.00  0.00    +0.000 HD
ENDBRANCH   3  17
TORSDOF 4
ENDMDL
