MODEL 1
REMARK VINA RESULT:      -7.1      0.000      0.000
REMARK  Name = 
REMARK  4 active torsions:
REMARK  status: ('A' for Active; 'I' for Inactive)
REMARK    1  A    between atoms: C_1  and  C_2
REMARK    2  A    between atoms: C_2  and  C_3
REMARK    3  A    between atoms: C_2  and  N_4
REMARK    4  A    between atoms: N_10  and  C_11
REMARK                            x       y       z     vdW  Elec       q    Type
REMARK                         _______ _______ _______ _____ _____    ______ ____
ROOT
ATOM      1  N   UNL     1       0.924   9.207  19.709  0.00  0.00    +0.000 N 
ATOM      2  C   UNL     1       0.563   8.870  21.035  0.00  0.00    +0.000 A 
ATOM      3  O   UNL     1      -0.185   9.455  21.798  0.00  0.00    +0.000 OA
ATOM      4  N   UNL     1       1.262   7.660  21.323  0.00  0.00    +0.000 N 
ATOM      5  C   UNL     1       2.010   7.344  20.242  0.00  0.00    +0.000 A 
ATOM      6  C   UNL     1       2.814   6.382  19.786  0.00  0.00    +0.000 A 
ATOM      7  N   UNL     1       3.216   6.740  18.487  0.00  0.00    +0.000 N 
ATOM      8  C   UNL     1       2.562   8.002  18.147  0.00  0.00    +0.000 A 
ATOM      9  O   UNL     1       2.569   8.631  17.102  0.00  0.00    +0.000 OA
ATOM     10  N   UNL     1       1.870   8.309  19.315  0.00  0.00    +0.000 N 
ATOM     11  H   UNL     1       1.170   7.157  22.190  0.00  0.00    +0.000 HD
ENDROOT
BRANCH   7  12
ATOM     12  C   UNL     1       3.985   6.009  17.547  0.00  0.00    +0.000 A 
ATOM     13  C   UNL     1       4.854   6.675  16.668  0.00  0.00    +0.000 A 
ATOM     14  C   UNL     1       5.526   5.993  15.654  0.00  0.00    +0.000 A 
ATOM     15  C   UNL     1       5.347   4.625  15.513  0.00  0.00    +0.000 A 
ATOM     16 CL   UNL     1       6.120   3.792  14.226  0.00  0.00    +0.000 Cl
ATOM     17  C   UNL     1       4.531   3.933  16.406  0.00  0.00    +0.000 A 
ATOM     18  C   UNL     1       3.864   4.619  17.433  0.00  0.00    +0.000 A 
ENDBRANCH   7  12
BRANCH   1  20
ATOM     19  C   UNL     1      -0.882  10.389  18.531  0.00  0.00    +0.000 C 
ATOM     20  C   UNL     1       0.603  10.357  18.883  0.00  0.00    +0.000 C 
ATOM     21  C   UNL     1       1.063  11.656  19.535  0.00  0.00    +0.000 C 
ENDBRANCH   1  20
TORSDOF 2
ENDMDL
MODEL 2
REMARK VINA RESULT:      -7.1      0.828      1.379
REMARK  Name = 
REMARK  4 active torsions:
REMARK  status: ('A' for Active; 'I' for Inactive)
REMARK    1  A    between atoms: C_1  and  C_2
REMARK    2  A    between atoms: C_2  and  C_3
REMARK    3  A    between atoms: C_2  and  N_4
REMARK    4  A    between atoms: N_10  and  C_11
REMARK                            x       y       z     vdW  Elec       q    Type
REMARK                         _______ _______ _______ _____ _____    ______ ____
ROOT
ATOM      1  N   UNL     1       0.472   9.906  19.776  0.00  0.00    +0.000 N 
ATOM      2  C   UNL     1       0.104   9.696  21.127  0.00  0.00    +0.000 A 
ATOM      3  O   UNL     1      -0.622  10.370  21.836  0.00  0.00    +0.000 OA
ATOM      4  N   UNL     1       0.761   8.492  21.518  0.00  0.00    +0.000 N 
ATOM      5  C   UNL     1       1.494   8.058  20.468  0.00  0.00    +0.000 A 
ATOM      6  C   UNL     1       2.263   7.033  20.097  0.00  0.00    +0.000 A 
ATOM      7  N   UNL     1       2.674   7.264  18.771  0.00  0.00    +0.000 N 
ATOM      8  C   UNL     1       2.063   8.515  18.324  0.00  0.00    +0.000 A 
ATOM      9  O   UNL     1       2.089   9.051  17.229  0.00  0.00    +0.000 OA
ATOM     10  N   UNL     1       1.386   8.944  19.461  0.00  0.00    +0.000 N 
ATOM     11  H   UNL     1       0.653   8.069  22.424  0.00  0.00    +0.000 HD
ENDROOT
BRANCH   7  12
ATOM     12  C   UNL     1       3.414   6.428  17.899  0.00  0.00    +0.000 A 
ATOM     13  C   UNL     1       3.105   5.063  17.789  0.00  0.00    +0.000 A 
ATOM     14  C   UNL     1       3.894   4.197  17.034  0.00  0.00    +0.000 A 
ATOM     15  C   UNL     1       5.005   4.689  16.363  0.00  0.00    +0.000 A 
ATOM     16 CL   UNL     1       6.018   3.615  15.487  0.00  0.00    +0.000 Cl
ATOM     17  C   UNL     1       5.302   6.050  16.415  0.00  0.00    +0.000 A 
ATOM     18  C   UNL     1       4.500   6.922  17.165  0.00  0.00    +0.000 A 
ENDBRANCH   7  12
BRANCH   1  20
ATOM     19  C   UNL     1      -1.301  11.068  18.530  0.00  0.00    +0.000 C 
ATOM     20  C   UNL     1       0.189  10.991  18.855  0.00  0.00    +0.000 C 
ATOM     21  C   UNL     1       0.728  12.318  19.376  0.00  0.00    +0.000 C 
ENDBRANCH   1  20
TORSDOF 2
ENDMDL
MODEL 3
REMARK VINA RESULT:      -6.9      3.768      7.129
REMARK  Name = 
REMARK  4 active torsions:
REMARK  status: ('A' for Active; 'I' for Inactive)
REMARK    1  A    between atoms: C_1  and  C_2
REMARK    2  A    between atoms: C_2  and  C_3
REMARK    3  A    between atoms: C_2  and  N_4
REMARK    4  A    between atoms: N_10  and  C_11
REMARK                            x       y       z     vdW  Elec       q    Type
REMARK                         _______ _______ _______ _____ _____    ______ ____
ROOT
ATOM      1  N   UNL     1       3.289   4.317  18.490  0.00  0.00    +0.000 N 
ATOM      2  C   UNL     1       4.080   4.489  17.329  0.00  0.00    +0.000 A 
ATOM      3  O   UNL     1       4.643   3.645  16.654  0.00  0.00    +0.000 OA
ATOM      4  N   UNL     1       4.090   5.893  17.079  0.00  0.00    +0.000 N 
ATOM      5  C   UNL     1       3.380   6.496  18.060  0.00  0.00    +0.000 A 
ATOM      6  C   UNL     1       2.931   7.699  18.422  0.00  0.00    +0.000 A 
ATOM      7  N   UNL     1       2.187   7.539  19.605  0.00  0.00    +0.000 N 
ATOM      8  C   UNL     1       2.175   6.116  19.939  0.00  0.00    +0.000 A 
ATOM      9  O   UNL     1       1.592   5.526  20.834  0.00  0.00    +0.000 OA
ATOM     10  N   UNL     1       2.974   5.564  18.942  0.00  0.00    +0.000 N 
ATOM     11  H   UNL     1       4.546   6.314  16.288  0.00  0.00    +0.000 HD
ENDROOT
BRANCH   7  12
ATOM     12  C   UNL     1       1.427   8.492  20.328  0.00  0.00    +0.000 A 
ATOM     13  C   UNL     1       1.426   8.484  21.732  0.00  0.00    +0.000 A 
ATOM     14  C   UNL     1       0.593   9.328  22.464  0.00  0.00    +0.000 A 
ATOM     15  C   UNL     1      -0.248  10.209  21.797  0.00  0.00    +0.000 A 
ATOM     16 CL   UNL     1      -1.324  11.204  22.692  0.00  0.00    +0.000 Cl
ATOM     17  C   UNL     1      -0.227  10.272  20.405  0.00  0.00    +0.000 A 
ATOM     18  C   UNL     1       0.621   9.429  19.670  0.00  0.00    +0.000 A 
ENDBRANCH   7  12
BRANCH   1  20
ATOM     19  C   UNL     1       2.152   2.137  18.465  0.00  0.00    +0.000 C 
ATOM     20  C   UNL     1       2.969   3.140  19.276  0.00  0.00    +0.000 C 
ATOM     21  C   UNL     1       4.225   2.508  19.866  0.00  0.00    +0.000 C 
ENDBRANCH   1  20
TORSDOF 2
ENDMDL
MODEL 4
REMARK VINA RESULT:      -6.9      3.743      7.074
REMARK  Name = 
REMARK  4 active torsions:
REMARK  status: ('A' for Active; 'I' for Inactive)
REMARK    1  A    between atoms: C_1  and  C_2
REMARK    2  A    between atoms: C_2  and  C_3
REMARK    3  A    between atoms: C_2  and  N_4
REMARK    4  A    between atoms: N_10  and  C_11
REMARK                            x       y       z     vdW  Elec       q    Type
REMARK                         _______ _______ _______ _____ _____    ______ ____
ROOT
ATOM      1  N   UNL     1       3.382   4.314  18.481  0.00  0.00    +0.000 N 
ATOM      2  C   UNL     1       4.188   4.495  17.332  0.00  0.00    +0.000 A 
ATOM      3  O   UNL     1       4.782   3.660  16.674  0.00  0.00    +0.000 OA
ATOM      4  N   UNL     1       4.166   5.897  17.069  0.00  0.00    +0.000 N 
ATOM      5  C   UNL     1       3.425   6.490  18.033  0.00  0.00    +0.000 A 
ATOM      6  C   UNL     1       2.940   7.685  18.377  0.00  0.00    +0.000 A 
ATOM      7  N   UNL     1       2.181   7.517  19.549  0.00  0.00    +0.000 N 
ATOM      8  C   UNL     1       2.200   6.097  19.896  0.00  0.00    +0.000 A 
ATOM      9  O   UNL     1       1.617   5.501  20.787  0.00  0.00    +0.000 OA
ATOM     10  N   UNL     1       3.029   5.557  18.917  0.00  0.00    +0.000 N 
ATOM     11  H   UNL     1       4.624   6.323  16.281  0.00  0.00    +0.000 HD
ENDROOT
BRANCH   7  12
ATOM     12  C   UNL     1       1.386   8.457  20.250  0.00  0.00    +0.000 A 
ATOM     13  C   UNL     1       0.699   9.466  19.556  0.00  0.00    +0.000 A 
ATOM     14  C   UNL     1       0.013  10.475  20.229  0.00  0.00    +0.000 A 
ATOM     15  C   UNL     1      -0.007  10.482  21.617  0.00  0.00    +0.000 A 
ATOM     16 CL   UNL     1      -0.794  11.760  22.452  0.00  0.00    +0.000 Cl
ATOM     17  C   UNL     1       0.624   9.463  22.328  0.00  0.00    +0.000 A 
ATOM     18  C   UNL     1       1.304   8.442  21.648  0.00  0.00    +0.000 A 
ENDBRANCH   7  12
BRANCH   1  20
ATOM     19  C   UNL     1       2.235   2.139  18.484  0.00  0.00    +0.000 C 
ATOM     20  C   UNL     1       3.080   3.136  19.274  0.00  0.00    +0.000 C 
ATOM     21  C   UNL     1       4.349   2.498  19.827  0.00  0.00    +0.000 C 
ENDBRANCH   1  20
TORSDOF 2
ENDMDL
MODEL 5
REMARK VINA RESULT:      -6.7      4.065      6.609
REMARK  Name = 
REMARK  4 active torsions:
REMARK  status: ('A' for Active; 'I' for Inactive)
REMARK    1  A    between atoms: C_1  and  C_2
REMARK    2  A    between atoms: C_2  and  C_3
REMARK    3  A    between atoms: C_2  and  N_4
REMARK    4  A    between atoms: N_10  and  C_11
REMARK                            x       y       z     vdW  Elec       q    Type
REMARK                         _______ _______ _______ _____ _____    ______ ____
ROOT
ATOM      1  N   UNL     1       3.159   2.823  19.916  0.00  0.00    +0.000 N 
ATOM      2  C   UNL     1       4.504   2.441  19.698  0.00  0.00    +0.000 A 
ATOM      3  O   UNL     1       5.004   1.332  19.760  0.00  0.00    +0.000 OA
ATOM      4  N   UNL     1       5.193   3.646  19.369  0.00  0.00    +0.000 N 
ATOM      5  C   UNL     1       4.306   4.664  19.434  0.00  0.00    +0.000 A 
ATOM      6  C   UNL     1       4.218   5.976  19.203  0.00  0.00    +0.000 A 
ATOM      7  N   UNL     1       2.894   6.369  19.469  0.00  0.00    +0.000 N 
ATOM      8  C   UNL     1       2.141   5.176  19.855  0.00  0.00    +0.000 A 
ATOM      9  O   UNL     1       0.952   5.045  20.098  0.00  0.00    +0.000 OA
ATOM     10  N   UNL     1       3.116   4.184  19.839  0.00  0.00    +0.000 N 
ATOM     11  H   UNL     1       6.168   3.679  19.123  0.00  0.00    +0.000 HD
ENDROOT
BRANCH   7  12
ATOM     12  C   UNL     1       2.273   7.629  19.282  0.00  0.00    +0.000 A 
ATOM     13  C   UNL     1       1.608   8.259  20.347  0.00  0.00    +0.000 A 
ATOM     14  C   UNL     1       0.886   9.436  20.159  0.00  0.00    +0.000 A 
ATOM     15  C   UNL     1       0.826  10.010  18.897  0.00  0.00    +0.000 A 
ATOM     16 CL   UNL     1      -0.118  11.422  18.646  0.00  0.00    +0.000 Cl
ATOM     17  C   UNL     1       1.520   9.431  17.835  0.00  0.00    +0.000 A 
ATOM     18  C   UNL     1       2.257   8.253  18.029  0.00  0.00    +0.000 A 
ENDBRANCH   7  12
BRANCH   1  20
ATOM     19  C   UNL     1       1.511   2.538  21.719  0.00  0.00    +0.000 C 
ATOM     20  C   UNL     1       1.997   2.068  20.350  0.00  0.00    +0.000 C 
ATOM     21  C   UNL     1       0.887   2.107  19.306  0.00  0.00    +0.000 C 
ENDBRANCH   1  20
TORSDOF 2
ENDMDL
MODEL 6
REMARK VINA RESULT:      -6.6      1.399      1.773
REMARK  Name = 
REMARK  4 active torsions:
REMARK  status: ('A' for Active; 'I' for Inactive)
REMARK    1  A    between atoms: C_1  and  C_2
REMARK    2  A    between atoms: C_2  and  C_3
REMARK    3  A    between atoms: C_2  and  N_4
REMARK    4  A    between atoms: N_10  and  C_11
REMARK                            x       y       z     vdW  Elec       q    Type
REMARK                         _______ _______ _______ _____ _____    ______ ____
ROOT
ATOM      1  N   UNL     1       0.071  10.692  19.680  0.00  0.00    +0.000 N 
ATOM      2  C   UNL     1      -0.407  10.687  21.012  0.00  0.00    +0.000 A 
ATOM      3  O   UNL     1      -1.139  11.487  21.566  0.00  0.00    +0.000 OA
ATOM      4  N   UNL     1       0.144   9.514  21.609  0.00  0.00    +0.000 N 
ATOM      5  C   UNL     1       0.923   8.904  20.688  0.00  0.00    +0.000 A 
ATOM      6  C   UNL     1       1.652   7.800  20.517  0.00  0.00    +0.000 A 
ATOM      7  N   UNL     1       2.172   7.827  19.211  0.00  0.00    +0.000 N 
ATOM      8  C   UNL     1       1.674   9.036  18.556  0.00  0.00    +0.000 A 
ATOM      9  O   UNL     1       1.813   9.417  17.405  0.00  0.00    +0.000 OA
ATOM     10  N   UNL     1       0.944   9.650  19.569  0.00  0.00    +0.000 N 
ATOM     11  H   UNL     1      -0.055   9.224  22.552  0.00  0.00    +0.000 HD
ENDROOT
BRANCH   7  12
ATOM     12  C   UNL     1       2.920   6.844  18.517  0.00  0.00    +0.000 A 
ATOM     13  C   UNL     1       4.084   7.200  17.816  0.00  0.00    +0.000 A 
ATOM     14  C   UNL     1       4.767   6.277  17.025  0.00  0.00    +0.000 A 
ATOM     15  C   UNL     1       4.301   4.973  16.935  0.00  0.00    +0.000 A 
ATOM     16 CL   UNL     1       5.100   3.851  15.910  0.00  0.00    +0.000 Cl
ATOM     17  C   UNL     1       3.178   4.583  17.663  0.00  0.00    +0.000 A 
ATOM     18  C   UNL     1       2.499   5.510  18.467  0.00  0.00    +0.000 A 
ENDBRANCH   7  12
BRANCH   1  20
ATOM     19  C   UNL     1      -1.531  11.766  18.155  0.00  0.00    +0.000 C 
ATOM     20  C   UNL     1      -0.076  11.655  18.604  0.00  0.00    +0.000 C 
ATOM     21  C   UNL     1       0.508  13.010  18.988  0.00  0.00    +0.000 C 
ENDBRANCH   1  20
TORSDOF 2
ENDMDL
MODEL 7
REMARK VINA RESULT:      -6.6      4.050      6.555
REMARK  Name = 
REMARK  4 active torsions:
REMARK  status: ('A' for Active; 'I' for Inactive)
REMARK    1  A    between atoms: C_1  and  C_2
REMARK    2  A    between atoms: C_2  and  C_3
REMARK    3  A    between atoms: C_2  and  N_4
REMARK    4  A    between atoms: N_10  and  C_11
REMARK                            x       y       z     vdW  Elec       q    Type
REMARK                         _______ _______ _______ _____ _____    ______ ____
ROOT
ATOM      1  N   UNL     1       3.158   2.858  19.920  0.00  0.00    +0.000 N 
ATOM      2  C   UNL     1       4.508   2.494  19.701  0.00  0.00    +0.000 A 
ATOM      3  O   UNL     1       5.024   1.392  19.766  0.00  0.00    +0.000 OA
ATOM      4  N   UNL     1       5.180   3.706  19.366  0.00  0.00    +0.000 N 
ATOM      5  C   UNL     1       4.279   4.713  19.428  0.00  0.00    +0.000 A 
ATOM      6  C   UNL     1       4.172   6.022  19.192  0.00  0.00    +0.000 A 
ATOM      7  N   UNL     1       2.843   6.397  19.459  0.00  0.00    +0.000 N 
ATOM      8  C   UNL     1       2.108   5.196  19.851  0.00  0.00    +0.000 A 
ATOM      9  O   UNL     1       0.922   5.050  20.097  0.00  0.00    +0.000 OA
ATOM     10  N   UNL     1       3.097   4.217  19.837  0.00  0.00    +0.000 N 
ATOM     11  H   UNL     1       6.154   3.752  19.118  0.00  0.00    +0.000 HD
ENDROOT
BRANCH   7  12
ATOM     12  C   UNL     1       2.204   7.648  19.268  0.00  0.00    +0.000 A 
ATOM     13  C   UNL     1       2.288   8.307  18.030  0.00  0.00    +0.000 A 
ATOM     14  C   UNL     1       1.775   9.591  17.855  0.00  0.00    +0.000 A 
ATOM     15  C   UNL     1       1.156  10.234  18.917  0.00  0.00    +0.000 A 
ATOM     16 CL   UNL     1       0.583  11.841  18.725  0.00  0.00    +0.000 Cl
ATOM     17  C   UNL     1       1.015   9.580  20.141  0.00  0.00    +0.000 A 
ATOM     18  C   UNL     1       1.522   8.283  20.312  0.00  0.00    +0.000 A 
ENDBRANCH   7  12
BRANCH   1  20
ATOM     19  C   UNL     1       1.518   2.558  21.727  0.00  0.00    +0.000 C 
ATOM     20  C   UNL     1       2.008   2.089  20.359  0.00  0.00    +0.000 C 
ATOM     21  C   UNL     1       0.896   2.108  19.317  0.00  0.00    +0.000 C 
ENDBRANCH   1  20
TORSDOF 2
ENDMDL
MODEL 8
REMARK VINA RESULT:      -6.6      3.593      6.955
REMARK  Name = 
REMARK  4 active torsions:
REMARK  status: ('A' for Active; 'I' for Inactive)
REMARK    1  A    between atoms: C_1  and  C_2
REMARK    2  A    between atoms: C_2  and  C_3
REMARK    3  A    between atoms: C_2  and  N_4
REMARK    4  A    between atoms: N_10  and  C_11
REMARK                            x       y       z     vdW  Elec       q    Type
REMARK                         _______ _______ _______ _____ _____    ______ ____
ROOT
ATOM      1  N   UNL     1       3.870   4.186  17.917  0.00  0.00    +0.000 N 
ATOM      2  C   UNL     1       4.872   4.259  16.920  0.00  0.00    +0.000 A 
ATOM      3  O   UNL     1       5.531   3.360  16.430  0.00  0.00    +0.000 OA
ATOM      4  N   UNL     1       4.963   5.640  16.574  0.00  0.00    +0.000 N 
ATOM      5  C   UNL     1       4.095   6.324  17.353  0.00  0.00    +0.000 A 
ATOM      6  C   UNL     1       3.615   7.556  17.533  0.00  0.00    +0.000 A 
ATOM      7  N   UNL     1       2.657   7.496  18.560  0.00  0.00    +0.000 N 
ATOM      8  C   UNL     1       2.547   6.103  18.990  0.00  0.00    +0.000 A 
ATOM      9  O   UNL     1       1.789   5.590  19.798  0.00  0.00    +0.000 OA
ATOM     10  N   UNL     1       3.506   5.468  18.208  0.00  0.00    +0.000 N 
ATOM     11  H   UNL     1       5.572   5.994  15.855  0.00  0.00    +0.000 HD
ENDROOT
BRANCH   7  12
ATOM     12  C   UNL     1       1.797   8.510  19.052  0.00  0.00    +0.000 A 
ATOM     13  C   UNL     1       1.464   8.560  20.415  0.00  0.00    +0.000 A 
ATOM     14  C   UNL     1       0.526   9.469  20.901  0.00  0.00    +0.000 A 
ATOM     15  C   UNL     1      -0.088  10.355  20.027  0.00  0.00    +0.000 A 
ATOM     16 CL   UNL     1      -1.293  11.432  20.609  0.00  0.00    +0.000 Cl
ATOM     17  C   UNL     1       0.265  10.360  18.678  0.00  0.00    +0.000 A 
ATOM     18  C   UNL     1       1.218   9.452  18.193  0.00  0.00    +0.000 A 
ENDBRANCH   7  12
BRANCH   1  20
ATOM     19  C   UNL     1       2.798   1.975  17.830  0.00  0.00    +0.000 C 
ATOM     20  C   UNL     1       3.378   3.077  18.714  0.00  0.00    +0.000 C 
ATOM     21  C   UNL     1       4.455   2.546  19.653  0.00  0.00    +0.000 C 
ENDBRANCH   1  20
TORSDOF 2
ENDMDL
MODEL 9
REMARK VINA RESULT:      -6.5      3.564      6.660
REMARK  Name = 
REMARK  4 active torsions:
REMARK  status: ('A' for Active; 'I' for Inactive)
REMARK    1  A    between atoms: C_1  and  C_2
REMARK    2  A    between atoms: C_2  and  C_3
REMARK    3  A    between atoms: C_2  and  N_4
REMARK    4  A    between atoms: N_10  and  C_11
REMARK                            x       y       z     vdW  Elec       q    Type
REMARK                         _______ _______ _______ _____ _____    ______ ____
ROOT
ATOM      1  N   UNL     1       4.521   4.625  18.682  0.00  0.00    +0.000 N 
ATOM      2  C   UNL     1       4.304   3.499  19.512  0.00  0.00    +0.000 A 
ATOM      3  O   UNL     1       4.896   2.435  19.530  0.00  0.00    +0.000 OA
ATOM      4  N   UNL     1       3.222   3.861  20.368  0.00  0.00    +0.000 N 
ATOM      5  C   UNL     1       2.816   5.104  20.024  0.00  0.00    +0.000 A 
ATOM      6  C   UNL     1       1.960   6.055  20.403  0.00  0.00    +0.000 A 
ATOM      7  N   UNL     1       2.138   7.157  19.546  0.00  0.00    +0.000 N 
ATOM      8  C   UNL     1       3.213   6.829  18.611  0.00  0.00    +0.000 A 
ATOM      9  O   UNL     1       3.740   7.517  17.753  0.00  0.00    +0.000 OA
ATOM     10  N   UNL     1       3.536   5.523  18.968  0.00  0.00    +0.000 N 
ATOM     11  H   UNL     1       2.868   3.267  21.099  0.00  0.00    +0.000 HD
ENDROOT
BRANCH   7  12
ATOM     12  C   UNL     1       1.542   8.442  19.595  0.00  0.00    +0.000 A 
ATOM     13  C   UNL     1       1.064   8.958  20.811  0.00  0.00    +0.000 A 
ATOM     14  C   UNL     1       0.364  10.163  20.864  0.00  0.00    +0.000 A 
ATOM     15  C   UNL     1       0.143  10.879  19.697  0.00  0.00    +0.000 A 
ATOM     16 CL   UNL     1      -0.775  12.329  19.747  0.00  0.00    +0.000 Cl
ATOM     17  C   UNL     1       0.653  10.414  18.486  0.00  0.00    +0.000 A 
ATOM     18  C   UNL     1       1.366   9.207  18.436  0.00  0.00    +0.000 A 
ENDBRANCH   7  12
BRANCH   1  20
ATOM     19  C   UNL     1       6.883   4.721  18.005  0.00  0.00    +0.000 C 
ATOM     20  C   UNL     1       5.425   4.844  17.568  0.00  0.00    +0.000 C 
ATOM     21  C   UNL     1       5.100   3.921  16.399  0.00  0.00    +0.000 C 
ENDBRANCH   1  20
TORSDOF 2
ENDMDL
