MODEL 1
REMARK VINA RESULT:      -8.8      0.000      0.000
REMARK  Name = 
REMARK  5 active torsions:
REMARK  status: ('A' for Active; 'I' for Inactive)
REMARK    1  A    between atoms: N_4  and  N_5
REMARK    2  A    between atoms: C_6  and  C_7
REMARK    3  A    between atoms: C_6  and  C_21
REMARK    4  A    between atoms: C_8  and  C_9
REMARK    5  A    between atoms: C_12  and  C_13
REMARK                            x       y       z     vdW  Elec       q    Type
REMARK                         _______ _______ _______ _____ _____    ______ ____
ROOT
ATOM      1  N   UNL     1       4.768   6.360  17.029  0.00  0.00    +0.000 NA
ATOM      2  C   UNL     1       3.870   5.816  17.806  0.00  0.00    +0.000 C 
ENDROOT
BRANCH   1   6
ATOM      3  N   UNL     1       7.598   4.848  15.415  0.00  0.00    +0.000 NA
ATOM      4  C   UNL     1       6.906   5.684  16.108  0.00  0.00    +0.000 C 
ATOM      5  N   UNL     1       7.456   6.730  16.760  0.00  0.00    +0.000 N 
ATOM      6  N   UNL     1       5.558   5.562  16.262  0.00  0.00    +0.000 N 
ATOM      7  H   UNL     1       8.582   5.113  15.490  0.00  0.00    +0.000 HD
ATOM      8  H   UNL     1       8.267   7.141  16.330  0.00  0.00    +0.000 HD
ATOM      9  H   UNL     1       6.732   7.409  16.988  0.00  0.00    +0.000 HD
ATOM     10  H   UNL     1       5.162   4.764  15.767  0.00  0.00    +0.000 HD
ENDBRANCH   1   6
BRANCH   2  11
ATOM     11  C   UNL     1       3.665   4.353  18.097  0.00  0.00    +0.000 A 
ATOM     12  C   UNL     1       4.373   3.710  19.122  0.00  0.00    +0.000 A 
ATOM     13  C   UNL     1       4.186   2.350  19.373  0.00  0.00    +0.000 A 
ATOM     14  C   UNL     1       3.246   1.627  18.641  0.00  0.00    +0.000 A 
ATOM     15  C   UNL     1       2.504   2.261  17.648  0.00  0.00    +0.000 A 
ATOM     16  C   UNL     1       2.723   3.612  17.364  0.00  0.00    +0.000 A 
ENDBRANCH   2  11
BRANCH   2  17
ATOM     17  C   UNL     1       2.977   6.721  18.595  0.00  0.00    +0.000 C 
ATOM     18  C   UNL     1       2.418   7.802  18.029  0.00  0.00    +0.000 C 
BRANCH  18  19
ATOM     19  C   UNL     1       1.573   8.757  18.758  0.00  0.00    +0.000 A 
ATOM     20  C   UNL     1       1.424   8.600  20.138  0.00  0.00    +0.000 A 
ATOM     21  C   UNL     1       0.592   9.456  20.868  0.00  0.00    +0.000 A 
ATOM     22  C   UNL     1      -0.104  10.512  20.257  0.00  0.00    +0.000 A 
ATOM     23  C   UNL     1       0.090  10.688  18.876  0.00  0.00    +0.000 A 
ATOM     24  C   UNL     1       0.914   9.826  18.139  0.00  0.00    +0.000 A 
BRANCH  22  25
ATOM     25  C   UNL     1      -1.015  11.386  21.037  0.00  0.00    +0.000 A 
ATOM     26  C   UNL     1      -1.067  11.315  22.441  0.00  0.00    +0.000 A 
ATOM     27  C   UNL     1      -1.972  12.086  23.184  0.00  0.00    +0.000 A 
ATOM     28  C   UNL     1      -2.832  12.961  22.533  0.00  0.00    +0.000 A 
ATOM     29  C   UNL     1      -2.783  13.074  21.147  0.00  0.00    +0.000 A 
ATOM     30  C   UNL     1      -1.889  12.290  20.410  0.00  0.00    +0.000 A 
ENDBRANCH  22  25
ENDBRANCH  18  19
ENDBRANCH   2  17
TORSDOF 5
ENDMDL
MODEL 2
REMARK VINA RESULT:      -8.7      6.146      8.179
REMARK  Name = 
REMARK  5 active torsions:
REMARK  status: ('A' for Active; 'I' for Inactive)
REMARK    1  A    between atoms: N_4  and  N_5
REMARK    2  A    between atoms: C_6  and  C_7
REMARK    3  A    between atoms: C_6  and  C_21
REMARK    4  A    between atoms: C_8  and  C_9
REMARK    5  A    between atoms: C_12  and  C_13
REMARK                            x       y       z     vdW  Elec       q    Type
REMARK                         _______ _______ _______ _____ _____    ______ ____
ROOT
ATOM      1  N   UNL     1       7.791   5.487  16.869  0.00  0.00    +0.000 NA
ATOM      2  C   UNL     1       7.082   6.263  17.644  0.00  0.00    +0.000 C 
ENDROOT
BRANCH   1   6
ATOM      3  N   UNL     1       6.356   3.330  14.381  0.00  0.00    +0.000 NA
ATOM      4  C   UNL     1       6.865   4.383  14.920  0.00  0.00    +0.000 C 
ATOM      5  N   UNL     1       7.143   5.504  14.221  0.00  0.00    +0.000 N 
ATOM      6  N   UNL     1       7.191   4.441  16.241  0.00  0.00    +0.000 N 
ATOM      7  H   UNL     1       6.249   3.506  13.381  0.00  0.00    +0.000 HD
ATOM      8  H   UNL     1       6.532   5.705  13.447  0.00  0.00    +0.000 HD
ATOM      9  H   UNL     1       7.254   6.287  14.862  0.00  0.00    +0.000 HD
ATOM     10  H   UNL     1       6.978   3.585  16.751  0.00  0.00    +0.000 HD
ENDBRANCH   1   6
BRANCH   2  11
ATOM     11  C   UNL     1       5.652   6.075  18.077  0.00  0.00    +0.000 A 
ATOM     12  C   UNL     1       5.328   5.286  19.190  0.00  0.00    +0.000 A 
ATOM     13  C   UNL     1       3.998   5.107  19.574  0.00  0.00    +0.000 A 
ATOM     14  C   UNL     1       2.979   5.762  18.887  0.00  0.00    +0.000 A 
ATOM     15  C   UNL     1       3.287   6.584  17.807  0.00  0.00    +0.000 A 
ATOM     16  C   UNL     1       4.614   6.727  17.391  0.00  0.00    +0.000 A 
ENDBRANCH   2  11
BRANCH   2  17
ATOM     17  C   UNL     1       7.756   7.440  18.274  0.00  0.00    +0.000 C 
ATOM     18  C   UNL     1       7.806   8.624  17.645  0.00  0.00    +0.000 C 
BRANCH  18  19
ATOM     19  C   UNL     1       8.494   9.805  18.184  0.00  0.00    +0.000 A 
ATOM     20  C   UNL     1       8.288  11.040  17.564  0.00  0.00    +0.000 A 
ATOM     21  C   UNL     1       8.959  12.183  18.011  0.00  0.00    +0.000 A 
ATOM     22  C   UNL     1       9.839  12.146  19.106  0.00  0.00    +0.000 A 
ATOM     23  C   UNL     1      10.002  10.907  19.750  0.00  0.00    +0.000 A 
ATOM     24  C   UNL     1       9.341   9.756  19.297  0.00  0.00    +0.000 A 
BRANCH  22  25
ATOM     25  C   UNL     1      10.574  13.359  19.543  0.00  0.00    +0.000 A 
ATOM     26  C   UNL     1      10.245  14.017  20.742  0.00  0.00    +0.000 A 
ATOM     27  C   UNL     1      10.887  15.201  21.130  0.00  0.00    +0.000 A 
ATOM     28  C   UNL     1      11.887  15.740  20.332  0.00  0.00    +0.000 A 
ATOM     29  C   UNL     1      12.255  15.094  19.156  0.00  0.00    +0.000 A 
ATOM     30  C   UNL     1      11.600  13.922  18.765  0.00  0.00    +0.000 A 
ENDBRANCH  22  25
ENDBRANCH  18  19
ENDBRANCH   2  17
TORSDOF 5
ENDMDL
MODEL 3
REMARK VINA RESULT:      -8.6      0.713      1.533
REMARK  Name = 
REMARK  5 active torsions:
REMARK  status: ('A' for Active; 'I' for Inactive)
REMARK    1  A    between atoms: N_4  and  N_5
REMARK    2  A    between atoms: C_6  and  C_7
REMARK    3  A    between atoms: C_6  and  C_21
REMARK    4  A    between atoms: C_8  and  C_9
REMARK    5  A    between atoms: C_12  and  C_13
REMARK                            x       y       z     vdW  Elec       q    Type
REMARK                         _______ _______ _______ _____ _____    ______ ____
ROOT
ATOM      1  N   UNL     1       4.799   6.408  17.127  0.00  0.00    +0.000 NA
ATOM      2  C   UNL     1       3.722   6.066  17.782  0.00  0.00    +0.000 C 
ENDROOT
BRANCH   1   6
ATOM      3  N   UNL     1       7.692   4.579  16.041  0.00  0.00    +0.000 NA
ATOM      4  C   UNL     1       6.964   5.563  16.438  0.00  0.00    +0.000 C 
ATOM      5  N   UNL     1       7.466   6.786  16.709  0.00  0.00    +0.000 N 
ATOM      6  N   UNL     1       5.623   5.440  16.645  0.00  0.00    +0.000 N 
ATOM      7  H   UNL     1       8.663   4.896  16.010  0.00  0.00    +0.000 HD
ATOM      8  H   UNL     1       8.257   7.071  16.156  0.00  0.00    +0.000 HD
ATOM      9  H   UNL     1       6.712   7.470  16.718  0.00  0.00    +0.000 HD
ATOM     10  H   UNL     1       5.263   4.509  16.441  0.00  0.00    +0.000 HD
ENDBRANCH   1   6
BRANCH   2  11
ATOM     11  C   UNL     1       3.311   4.688  18.227  0.00  0.00    +0.000 A 
ATOM     12  C   UNL     1       4.044   3.987  19.196  0.00  0.00    +0.000 A 
ATOM     13  C   UNL     1       3.662   2.704  19.589  0.00  0.00    +0.000 A 
ATOM     14  C   UNL     1       2.510   2.126  19.062  0.00  0.00    +0.000 A 
ATOM     15  C   UNL     1       1.747   2.824  18.131  0.00  0.00    +0.000 A 
ATOM     16  C   UNL     1       2.153   4.091  17.701  0.00  0.00    +0.000 A 
ENDBRANCH   2  11
BRANCH   2  17
ATOM     17  C   UNL     1       2.804   7.151  18.250  0.00  0.00    +0.000 C 
ATOM     18  C   UNL     1       2.463   7.254  19.545  0.00  0.00    +0.000 C 
BRANCH  18  19
ATOM     19  C   UNL     1       1.529   8.263  20.062  0.00  0.00    +0.000 A 
ATOM     20  C   UNL     1       1.156   9.320  19.227  0.00  0.00    +0.000 A 
ATOM     21  C   UNL     1       0.307  10.330  19.691  0.00  0.00    +0.000 A 
ATOM     22  C   UNL     1      -0.220  10.315  20.994  0.00  0.00    +0.000 A 
ATOM     23  C   UNL     1       0.126   9.223  21.808  0.00  0.00    +0.000 A 
ATOM     24  C   UNL     1       0.985   8.214  21.351  0.00  0.00    +0.000 A 
BRANCH  22  25
ATOM     25  C   UNL     1      -1.086  11.416  21.485  0.00  0.00    +0.000 A 
ATOM     26  C   UNL     1      -1.514  12.445  20.626  0.00  0.00    +0.000 A 
ATOM     27  C   UNL     1      -2.274  13.525  21.094  0.00  0.00    +0.000 A 
ATOM     28  C   UNL     1      -2.640  13.585  22.432  0.00  0.00    +0.000 A 
ATOM     29  C   UNL     1      -2.258  12.566  23.299  0.00  0.00    +0.000 A 
ATOM     30  C   UNL     1      -1.484  11.499  22.830  0.00  0.00    +0.000 A 
ENDBRANCH  22  25
ENDBRANCH  18  19
ENDBRANCH   2  17
TORSDOF 5
ENDMDL
MODEL 4
REMARK VINA RESULT:      -8.6      0.746      1.240
REMARK  Name = 
REMARK  5 active torsions:
REMARK  status: ('A' for Active; 'I' for Inactive)
REMARK    1  A    between atoms: N_4  and  N_5
REMARK    2  A    between atoms: C_6  and  C_7
REMARK    3  A    between atoms: C_6  and  C_21
REMARK    4  A    between atoms: C_8  and  C_9
REMARK    5  A    between atoms: C_12  and  C_13
REMARK                            x       y       z     vdW  Elec       q    Type
REMARK                         _______ _______ _______ _____ _____    ______ ____
ROOT
ATOM      1  N   UNL     1       4.798   6.505  17.020  0.00  0.00    +0.000 NA
ATOM      2  C   UNL     1       3.736   6.237  17.732  0.00  0.00    +0.000 C 
ENDROOT
BRANCH   1   6
ATOM      3  N   UNL     1       7.568   4.476  15.969  0.00  0.00    +0.000 NA
ATOM      4  C   UNL     1       6.907   5.507  16.364  0.00  0.00    +0.000 C 
ATOM      5  N   UNL     1       7.494   6.686  16.659  0.00  0.00    +0.000 N 
ATOM      6  N   UNL     1       5.557   5.483  16.543  0.00  0.00    +0.000 N 
ATOM      7  H   UNL     1       8.561   4.719  15.960  0.00  0.00    +0.000 HD
ATOM      8  H   UNL     1       8.315   6.917  16.125  0.00  0.00    +0.000 HD
ATOM      9  H   UNL     1       6.794   7.425  16.661  0.00  0.00    +0.000 HD
ATOM     10  H   UNL     1       5.133   4.584  16.320  0.00  0.00    +0.000 HD
ENDBRANCH   1   6
BRANCH   2  11
ATOM     11  C   UNL     1       3.284   4.896  18.246  0.00  0.00    +0.000 A 
ATOM     12  C   UNL     1       2.145   4.264  17.726  0.00  0.00    +0.000 A 
ATOM     13  C   UNL     1       1.727   3.029  18.221  0.00  0.00    +0.000 A 
ATOM     14  C   UNL     1       2.474   2.380  19.202  0.00  0.00    +0.000 A 
ATOM     15  C   UNL     1       3.631   2.973  19.698  0.00  0.00    +0.000 A 
ATOM     16  C   UNL     1       4.026   4.232  19.237  0.00  0.00    +0.000 A 
ENDBRANCH   2  11
BRANCH   2  17
ATOM     17  C   UNL     1       2.888   7.379  18.194  0.00  0.00    +0.000 C 
ATOM     18  C   UNL     1       2.374   7.398  19.434  0.00  0.00    +0.000 C 
BRANCH  18  19
ATOM     19  C   UNL     1       1.494   8.463  19.935  0.00  0.00    +0.000 A 
ATOM     20  C   UNL     1       1.142   8.458  21.288  0.00  0.00    +0.000 A 
ATOM     21  C   UNL     1       0.269   9.423  21.800  0.00  0.00    +0.000 A 
ATOM     22  C   UNL     1      -0.268  10.441  20.994  0.00  0.00    +0.000 A 
ATOM     23  C   UNL     1       0.130  10.461  19.646  0.00  0.00    +0.000 A 
ATOM     24  C   UNL     1       0.996   9.490  19.125  0.00  0.00    +0.000 A 
BRANCH  22  25
ATOM     25  C   UNL     1      -1.226  11.432  21.544  0.00  0.00    +0.000 A 
ATOM     26  C   UNL     1      -1.601  11.408  22.900  0.00  0.00    +0.000 A 
ATOM     27  C   UNL     1      -2.556  12.296  23.414  0.00  0.00    +0.000 A 
ATOM     28  C   UNL     1      -3.140  13.241  22.582  0.00  0.00    +0.000 A 
ATOM     29  C   UNL     1      -2.766  13.309  21.243  0.00  0.00    +0.000 A 
ATOM     30  C   UNL     1      -1.825  12.410  20.731  0.00  0.00    +0.000 A 
ENDBRANCH  22  25
ENDBRANCH  18  19
ENDBRANCH   2  17
TORSDOF 5
ENDMDL
MODEL 5
REMARK VINA RESULT:      -8.6      0.191      1.340
REMARK  Name = 
REMARK  5 active torsions:
REMARK  status: ('A' for Active; 'I' for Inactive)
REMARK    1  A    between atoms: N_4  and  N_5
REMARK    2  A    between atoms: C_6  and  C_7
REMARK    3  A    between atoms: C_6  and  C_21
REMARK    4  A    between atoms: C_8  and  C_9
REMARK    5  A    between atoms: C_12  and  C_13
REMARK                            x       y       z     vdW  Elec       q    Type
REMARK                         _______ _______ _______ _____ _____    ______ ____
ROOT
ATOM      1  N   UNL     1       4.838   6.359  17.155  0.00  0.00    +0.000 NA
ATOM      2  C   UNL     1       3.899   5.855  17.909  0.00  0.00    +0.000 C 
ENDROOT
BRANCH   1   6
ATOM      3  N   UNL     1       7.607   4.791  15.491  0.00  0.00    +0.000 NA
ATOM      4  C   UNL     1       6.938   5.655  16.171  0.00  0.00    +0.000 C 
ATOM      5  N   UNL     1       7.506   6.737  16.743  0.00  0.00    +0.000 N 
ATOM      6  N   UNL     1       5.600   5.530  16.394  0.00  0.00    +0.000 N 
ATOM      7  H   UNL     1       8.590   5.067  15.506  0.00  0.00    +0.000 HD
ATOM      8  H   UNL     1       8.292   7.133  16.255  0.00  0.00    +0.000 HD
ATOM      9  H   UNL     1       6.786   7.421  16.970  0.00  0.00    +0.000 HD
ATOM     10  H   UNL     1       5.191   4.705  15.959  0.00  0.00    +0.000 HD
ENDBRANCH   1   6
BRANCH   2  11
ATOM     11  C   UNL     1       3.613   4.402  18.180  0.00  0.00    +0.000 A 
ATOM     12  C   UNL     1       2.646   3.701  17.444  0.00  0.00    +0.000 A 
ATOM     13  C   UNL     1       2.379   2.358  17.714  0.00  0.00    +0.000 A 
ATOM     14  C   UNL     1       3.116   1.681  18.683  0.00  0.00    +0.000 A 
ATOM     15  C   UNL     1       4.108   2.349  19.393  0.00  0.00    +0.000 A 
ATOM     16  C   UNL     1       4.346   3.707  19.157  0.00  0.00    +0.000 A 
ENDBRANCH   2  11
BRANCH   2  17
ATOM     17  C   UNL     1       3.038   6.796  18.692  0.00  0.00    +0.000 C 
ATOM     18  C   UNL     1       2.353   7.774  18.080  0.00  0.00    +0.000 C 
BRANCH  18  19
ATOM     19  C   UNL     1       1.531   8.762  18.792  0.00  0.00    +0.000 A 
ATOM     20  C   UNL     1       1.315   8.588  20.162  0.00  0.00    +0.000 A 
ATOM     21  C   UNL     1       0.500   9.475  20.873  0.00  0.00    +0.000 A 
ATOM     22  C   UNL     1      -0.111  10.579  20.255  0.00  0.00    +0.000 A 
ATOM     23  C   UNL     1       0.152  10.769  18.887  0.00  0.00    +0.000 A 
ATOM     24  C   UNL     1       0.959   9.876  18.168  0.00  0.00    +0.000 A 
BRANCH  22  25
ATOM     25  C   UNL     1      -1.005  11.488  21.014  0.00  0.00    +0.000 A 
ATOM     26  C   UNL     1      -2.012  12.228  20.366  0.00  0.00    +0.000 A 
ATOM     27  C   UNL     1      -2.817  13.139  21.063  0.00  0.00    +0.000 A 
ATOM     28  C   UNL     1      -2.643  13.313  22.429  0.00  0.00    +0.000 A 
ATOM     29  C   UNL     1      -1.677  12.572  23.102  0.00  0.00    +0.000 A 
ATOM     30  C   UNL     1      -0.864  11.676  22.399  0.00  0.00    +0.000 A 
ENDBRANCH  22  25
ENDBRANCH  18  19
ENDBRANCH   2  17
TORSDOF 5
ENDMDL
MODEL 6
REMARK VINA RESULT:      -8.5      6.008      8.065
REMARK  Name = 
REMARK  5 active torsions:
REMARK  status: ('A' for Active; 'I' for Inactive)
REMARK    1  A    between atoms: N_4  and  N_5
REMARK    2  A    between atoms: C_6  and  C_7
REMARK    3  A    between atoms: C_6  and  C_21
REMARK    4  A    between atoms: C_8  and  C_9
REMARK    5  A    between atoms: C_12  and  C_13
REMARK                            x       y       z     vdW  Elec       q    Type
REMARK                         _______ _______ _______ _____ _____    ______ ____
ROOT
ATOM      1  N   UNL     1       7.492   5.646  16.317  0.00  0.00    +0.000 NA
ATOM      2  C   UNL     1       6.860   6.241  17.293  0.00  0.00    +0.000 C 
ENDROOT
BRANCH   1   6
ATOM      3  N   UNL     1       6.327   3.440  13.734  0.00  0.00    +0.000 NA
ATOM      4  C   UNL     1       6.872   4.463  14.295  0.00  0.00    +0.000 C 
ATOM      5  N   UNL     1       7.501   5.433  13.600  0.00  0.00    +0.000 N 
ATOM      6  N   UNL     1       6.881   4.633  15.647  0.00  0.00    +0.000 N 
ATOM      7  H   UNL     1       6.492   3.505  12.728  0.00  0.00    +0.000 HD
ATOM      8  H   UNL     1       7.136   5.627  12.682  0.00  0.00    +0.000 HD
ATOM      9  H   UNL     1       7.594   6.264  14.181  0.00  0.00    +0.000 HD
ATOM     10  H   UNL     1       6.406   3.889  16.154  0.00  0.00    +0.000 HD
ENDBRANCH   1   6
BRANCH   2  11
ATOM     11  C   UNL     1       5.541   5.857  17.909  0.00  0.00    +0.000 A 
ATOM     12  C   UNL     1       5.443   4.786  18.810  0.00  0.00    +0.000 A 
ATOM     13  C   UNL     1       4.213   4.429  19.362  0.00  0.00    +0.000 A 
ATOM     14  C   UNL     1       3.072   5.173  19.068  0.00  0.00    +0.000 A 
ATOM     15  C   UNL     1       3.159   6.265  18.209  0.00  0.00    +0.000 A 
ATOM     16  C   UNL     1       4.382   6.596  17.618  0.00  0.00    +0.000 A 
ENDBRANCH   2  11
BRANCH   2  17
ATOM     17  C   UNL     1       7.533   7.391  17.975  0.00  0.00    +0.000 C 
ATOM     18  C   UNL     1       7.610   8.593  17.384  0.00  0.00    +0.000 C 
BRANCH  18  19
ATOM     19  C   UNL     1       8.299   9.748  17.974  0.00  0.00    +0.000 A 
ATOM     20  C   UNL     1       8.104  11.008  17.400  0.00  0.00    +0.000 A 
ATOM     21  C   UNL     1       8.776  12.129  17.898  0.00  0.00    +0.000 A 
ATOM     22  C   UNL     1       9.647  12.045  18.998  0.00  0.00    +0.000 A 
ATOM     23  C   UNL     1       9.797  10.782  19.594  0.00  0.00    +0.000 A 
ATOM     24  C   UNL     1       9.135   9.653  19.093  0.00  0.00    +0.000 A 
BRANCH  22  25
ATOM     25  C   UNL     1      10.384  13.236  19.487  0.00  0.00    +0.000 A 
ATOM     26  C   UNL     1      11.569  13.667  18.864  0.00  0.00    +0.000 A 
ATOM     27  C   UNL     1      12.309  14.749  19.359  0.00  0.00    +0.000 A 
ATOM     28  C   UNL     1      11.865  15.435  20.481  0.00  0.00    +0.000 A 
ATOM     29  C   UNL     1      10.680  15.052  21.101  0.00  0.00    +0.000 A 
ATOM     30  C   UNL     1       9.954  13.960  20.612  0.00  0.00    +0.000 A 
ENDBRANCH  22  25
ENDBRANCH  18  19
ENDBRANCH   2  17
TORSDOF 5
ENDMDL
MODEL 7
REMARK VINA RESULT:      -8.5      0.944      1.391
REMARK  Name = 
REMARK  5 active torsions:
REMARK  status: ('A' for Active; 'I' for Inactive)
REMARK    1  A    between atoms: N_4  and  N_5
REMARK    2  A    between atoms: C_6  and  C_7
REMARK    3  A    between atoms: C_6  and  C_21
REMARK    4  A    between atoms: C_8  and  C_9
REMARK    5  A    between atoms: C_12  and  C_13
REMARK                            x       y       z     vdW  Elec       q    Type
REMARK                         _______ _______ _______ _____ _____    ______ ____
ROOT
ATOM      1  N   UNL     1       4.878   6.257  17.697  0.00  0.00    +0.000 NA
ATOM      2  C   UNL     1       3.694   6.027  18.199  0.00  0.00    +0.000 C 
ENDROOT
BRANCH   1   6
ATOM      3  N   UNL     1       7.622   4.250  16.540  0.00  0.00    +0.000 NA
ATOM      4  C   UNL     1       6.925   5.294  16.829  0.00  0.00    +0.000 C 
ATOM      5  N   UNL     1       7.402   6.551  16.710  0.00  0.00    +0.000 N 
ATOM      6  N   UNL     1       5.652   5.210  17.307  0.00  0.00    +0.000 N 
ATOM      7  H   UNL     1       8.553   4.560  16.255  0.00  0.00    +0.000 HD
ATOM      8  H   UNL     1       8.064   6.704  15.968  0.00  0.00    +0.000 HD
ATOM      9  H   UNL     1       6.626   7.211  16.702  0.00  0.00    +0.000 HD
ATOM     10  H   UNL     1       5.312   4.254  17.394  0.00  0.00    +0.000 HD
ENDBRANCH   1   6
BRANCH   2  11
ATOM     11  C   UNL     1       3.086   4.697  18.558  0.00  0.00    +0.000 A 
ATOM     12  C   UNL     1       3.572   3.943  19.636  0.00  0.00    +0.000 A 
ATOM     13  C   UNL     1       3.010   2.704  19.949  0.00  0.00    +0.000 A 
ATOM     14  C   UNL     1       1.919   2.229  19.226  0.00  0.00    +0.000 A 
ATOM     15  C   UNL     1       1.398   2.984  18.180  0.00  0.00    +0.000 A 
ATOM     16  C   UNL     1       1.988   4.204  17.834  0.00  0.00    +0.000 A 
ENDBRANCH   2  11
BRANCH   2  17
ATOM     17  C   UNL     1       2.841   7.200  18.566  0.00  0.00    +0.000 C 
ATOM     18  C   UNL     1       2.338   7.326  19.804  0.00  0.00    +0.000 C 
BRANCH  18  19
ATOM     19  C   UNL     1       1.454   8.424  20.216  0.00  0.00    +0.000 A 
ATOM     20  C   UNL     1       1.077   8.511  21.559  0.00  0.00    +0.000 A 
ATOM     21  C   UNL     1       0.199   9.511  21.990  0.00  0.00    +0.000 A 
ATOM     22  C   UNL     1      -0.318  10.475  21.108  0.00  0.00    +0.000 A 
ATOM     23  C   UNL     1       0.105  10.404  19.769  0.00  0.00    +0.000 A 
ATOM     24  C   UNL     1       0.976   9.397  19.331  0.00  0.00    +0.000 A 
BRANCH  22  25
ATOM     25  C   UNL     1      -1.281  11.504  21.572  0.00  0.00    +0.000 A 
ATOM     26  C   UNL     1      -1.782  12.483  20.693  0.00  0.00    +0.000 A 
ATOM     27  C   UNL     1      -2.638  13.500  21.136  0.00  0.00    +0.000 A 
ATOM     28  C   UNL     1      -3.026  13.546  22.468  0.00  0.00    +0.000 A 
ATOM     29  C   UNL     1      -2.572  12.574  23.354  0.00  0.00    +0.000 A 
ATOM     30  C   UNL     1      -1.704  11.570  22.910  0.00  0.00    +0.000 A 
ENDBRANCH  22  25
ENDBRANCH  18  19
ENDBRANCH   2  17
TORSDOF 5
ENDMDL
MODEL 8
REMARK VINA RESULT:      -8.5      2.074      3.457
REMARK  Name = 
REMARK  5 active torsions:
REMARK  status: ('A' for Active; 'I' for Inactive)
REMARK    1  A    between atoms: N_4  and  N_5
REMARK    2  A    between atoms: C_6  and  C_7
REMARK    3  A    between atoms: C_6  and  C_21
REMARK    4  A    between atoms: C_8  and  C_9
REMARK    5  A    between atoms: C_12  and  C_13
REMARK                            x       y       z     vdW  Elec       q    Type
REMARK                         _______ _______ _______ _____ _____    ______ ____
ROOT
ATOM      1  N   UNL     1       2.706   4.349  17.889  0.00  0.00    +0.000 NA
ATOM      2  C   UNL     1       3.343   5.449  18.190  0.00  0.00    +0.000 C 
ENDROOT
BRANCH   1   6
ATOM      3  N   UNL     1       3.965   0.989  18.024  0.00  0.00    +0.000 NA
ATOM      4  C   UNL     1       3.309   2.048  18.349  0.00  0.00    +0.000 C 
ATOM      5  N   UNL     1       2.445   2.086  19.386  0.00  0.00    +0.000 N 
ATOM      6  N   UNL     1       3.413   3.213  17.651  0.00  0.00    +0.000 N 
ATOM      7  H   UNL     1       3.684   0.236  18.655  0.00  0.00    +0.000 HD
ATOM      8  H   UNL     1       2.670   1.497  20.170  0.00  0.00    +0.000 HD
ATOM      9  H   UNL     1       2.267   3.054  19.646  0.00  0.00    +0.000 HD
ATOM     10  H   UNL     1       4.065   3.162  16.871  0.00  0.00    +0.000 HD
ENDBRANCH   1   6
BRANCH   2  11
ATOM     11  C   UNL     1       4.829   5.689  18.175  0.00  0.00    +0.000 A 
ATOM     12  C   UNL     1       5.446   6.365  17.113  0.00  0.00    +0.000 A 
ATOM     13  C   UNL     1       6.826   6.568  17.103  0.00  0.00    +0.000 A 
ATOM     14  C   UNL     1       7.602   6.150  18.181  0.00  0.00    +0.000 A 
ATOM     15  C   UNL     1       7.000   5.515  19.264  0.00  0.00    +0.000 A 
ATOM     16  C   UNL     1       5.623   5.269  19.255  0.00  0.00    +0.000 A 
ENDBRANCH   2  11
BRANCH   2  17
ATOM     17  C   UNL     1       2.536   6.670  18.504  0.00  0.00    +0.000 C 
ATOM     18  C   UNL     1       2.355   7.070  19.772  0.00  0.00    +0.000 C 
BRANCH  18  19
ATOM     19  C   UNL     1       1.535   8.228  20.152  0.00  0.00    +0.000 A 
ATOM     20  C   UNL     1       1.112   8.341  21.479  0.00  0.00    +0.000 A 
ATOM     21  C   UNL     1       0.290   9.400  21.877  0.00  0.00    +0.000 A 
ATOM     22  C   UNL     1      -0.122  10.398  20.978  0.00  0.00    +0.000 A 
ATOM     23  C   UNL     1       0.349  10.298  19.658  0.00  0.00    +0.000 A 
ATOM     24  C   UNL     1       1.163   9.232  19.251  0.00  0.00    +0.000 A 
BRANCH  22  25
ATOM     25  C   UNL     1      -1.027  11.493  21.407  0.00  0.00    +0.000 A 
ATOM     26  C   UNL     1      -1.662  12.324  20.465  0.00  0.00    +0.000 A 
ATOM     27  C   UNL     1      -2.465  13.403  20.860  0.00  0.00    +0.000 A 
ATOM     28  C   UNL     1      -2.664  13.659  22.210  0.00  0.00    +0.000 A 
ATOM     29  C   UNL     1      -2.074  12.836  23.164  0.00  0.00    +0.000 A 
ATOM     30  C   UNL     1      -1.260  11.771  22.764  0.00  0.00    +0.000 A 
ENDBRANCH  22  25
ENDBRANCH  18  19
ENDBRANCH   2  17
TORSDOF 5
ENDMDL
MODEL 9
REMARK VINA RESULT:      -8.4      0.822      1.558
REMARK  Name = 
REMARK  5 active torsions:
REMARK  status: ('A' for Active; 'I' for Inactive)
REMARK    1  A    between atoms: N_4  and  N_5
REMARK    2  A    between atoms: C_6  and  C_7
REMARK    3  A    between atoms: C_6  and  C_21
REMARK    4  A    between atoms: C_8  and  C_9
REMARK    5  A    between atoms: C_12  and  C_13
REMARK                            x       y       z     vdW  Elec       q    Type
REMARK                         _______ _______ _______ _____ _____    ______ ____
ROOT
ATOM      1  N   UNL     1       5.118   6.279  17.773  0.00  0.00    +0.000 NA
ATOM      2  C   UNL     1       4.069   5.699  18.291  0.00  0.00    +0.000 C 
ENDROOT
BRANCH   1   6
ATOM      3  N   UNL     1       7.956   4.241  16.941  0.00  0.00    +0.000 NA
ATOM      4  C   UNL     1       7.171   4.999  17.625  0.00  0.00    +0.000 C 
ATOM      5  N   UNL     1       7.393   5.309  18.919  0.00  0.00    +0.000 N 
ATOM      6  N   UNL     1       6.031   5.528  17.100  0.00  0.00    +0.000 N 
ATOM      7  H   UNL     1       8.708   3.926  17.557  0.00  0.00    +0.000 HD
ATOM      8  H   UNL     1       8.358   5.376  19.198  0.00  0.00    +0.000 HD
ATOM      9  H   UNL     1       6.842   6.126  19.174  0.00  0.00    +0.000 HD
ATOM     10  H   UNL     1       5.877   5.279  16.125  0.00  0.00    +0.000 HD
ENDBRANCH   1   6
BRANCH   2  11
ATOM     11  C   UNL     1       3.777   4.224  18.378  0.00  0.00    +0.000 A 
ATOM     12  C   UNL     1       4.317   3.435  19.405  0.00  0.00    +0.000 A 
ATOM     13  C   UNL     1       4.052   2.067  19.466  0.00  0.00    +0.000 A 
ATOM     14  C   UNL     1       3.198   1.478  18.536  0.00  0.00    +0.000 A 
ATOM     15  C   UNL     1       2.620   2.254  17.536  0.00  0.00    +0.000 A 
ATOM     16  C   UNL     1       2.921   3.617  17.445  0.00  0.00    +0.000 A 
ENDBRANCH   2  11
BRANCH   2  17
ATOM     17  C   UNL     1       3.052   6.557  18.976  0.00  0.00    +0.000 C 
ATOM     18  C   UNL     1       2.615   7.692  18.409  0.00  0.00    +0.000 C 
BRANCH  18  19
ATOM     19  C   UNL     1       1.657   8.605  19.048  0.00  0.00    +0.000 A 
ATOM     20  C   UNL     1       1.043   9.585  18.264  0.00  0.00    +0.000 A 
ATOM     21  C   UNL     1       0.161  10.507  18.837  0.00  0.00    +0.000 A 
ATOM     22  C   UNL     1      -0.161  10.475  20.204  0.00  0.00    +0.000 A 
ATOM     23  C   UNL     1       0.428   9.456  20.972  0.00  0.00    +0.000 A 
ATOM     24  C   UNL     1       1.321   8.536  20.405  0.00  0.00    +0.000 A 
BRANCH  22  25
ATOM     25  C   UNL     1      -1.066  11.486  20.805  0.00  0.00    +0.000 A 
ATOM     26  C   UNL     1      -1.883  12.302  20.000  0.00  0.00    +0.000 A 
ATOM     27  C   UNL     1      -2.690  13.306  20.553  0.00  0.00    +0.000 A 
ATOM     28  C   UNL     1      -2.711  13.499  21.927  0.00  0.00    +0.000 A 
ATOM     29  C   UNL     1      -1.937  12.687  22.751  0.00  0.00    +0.000 A 
ATOM     30  C   UNL     1      -1.120  11.697  22.193  0.00  0.00    +0.000 A 
ENDBRANCH  22  25
ENDBRANCH  18  19
ENDBRANCH   2  17
TORSDOF 5
ENDMDL
