MODEL 1
REMARK VINA RESULT:      -8.5      0.000      0.000
REMARK  Name = 
REMARK  10 active torsions:
REMARK  status: ('A' for Active; 'I' for Inactive)
REMARK    1  A    between atoms: C_1  and  C_2
REMARK    2  A    between atoms: N_4  and  C_5
REMARK    3  A    between atoms: C_10  and  C_11
REMARK    4  A    between atoms: C_11  and  C_12
REMARK    5  A    between atoms: C_12  and  C_13
REMARK    6  A    between atoms: C_13  and  O_15
REMARK    7  A    between atoms: C_19  and  N_20
REMARK    8  A    between atoms: N_20  and  C_21
REMARK    9  A    between atoms: C_21  and  C_22
REMARK   10  A    between atoms: C_21  and  C_23
REMARK                            x       y       z     vdW  Elec       q    Type
REMARK                         _______ _______ _______ _____ _____    ______ ____
ROOT
ATOM      1  C   UNL     1       1.915   2.451  21.804  0.00  0.00    +0.000 C 
ATOM      2  C   UNL     1       2.177   3.588  20.887  0.00  0.00    +0.000 A 
ATOM      3  N   UNL     1       1.793   4.827  21.220  0.00  0.00    +0.000 NA
ATOM      4  N   UNL     1       2.084   5.582  20.128  0.00  0.00    +0.000 N 
ATOM      5  C   UNL     1       2.798   4.867  19.179  0.00  0.00    +0.000 A 
ATOM      6  C   UNL     1       3.457   5.235  18.005  0.00  0.00    +0.000 A 
ATOM      7  C   UNL     1       4.073   4.224  17.272  0.00  0.00    +0.000 A 
ATOM      8  N   UNL     1       4.110   2.947  17.699  0.00  0.00    +0.000 NA
ATOM      9  C   UNL     1       3.524   2.602  18.877  0.00  0.00    +0.000 A 
ATOM     10  C   UNL     1       2.854   3.559  19.644  0.00  0.00    +0.000 A 
ENDROOT
BRANCH   4  11
ATOM     11  C   UNL     1       1.708   6.952  20.078  0.00  0.00    +0.000 A 
ATOM     12  C   UNL     1       2.094   7.760  19.001  0.00  0.00    +0.000 A 
ATOM     13  C   UNL     1       1.758   9.110  19.003  0.00  0.00    +0.000 A 
ATOM     14 CL   UNL     1       2.209  10.098  17.667  0.00  0.00    +0.000 Cl
ATOM     15  C   UNL     1       1.065   9.670  20.074  0.00  0.00    +0.000 A 
ATOM     16  C   UNL     1       0.667   8.872  21.157  0.00  0.00    +0.000 A 
ATOM     17  C   UNL     1       0.955   7.497  21.128  0.00  0.00    +0.000 A 
BRANCH  16  18
ATOM     18  C   UNL     1      -0.066   9.493  22.325  0.00  0.00    +0.000 C 
BRANCH  18  19
ATOM     19  C   UNL     1      -0.066  11.023  22.285  0.00  0.00    +0.000 C 
BRANCH  19  20
ATOM     20  C   UNL     1      -1.473  11.552  22.156  0.00  0.00    +0.000 C 
ATOM     21  O   UNL     1      -1.964  12.024  21.150  0.00  0.00    +0.000 OA
BRANCH  20  22
ATOM     22  O   UNL     1      -2.171  11.447  23.320  0.00  0.00    +0.000 OA
ATOM     23  H   UNL     1      -2.925  12.065  23.387  0.00  0.00    +0.000 HD
ENDBRANCH  20  22
ENDBRANCH  19  20
ENDBRANCH  18  19
ENDBRANCH  16  18
ENDBRANCH   4  11
BRANCH   7  24
ATOM     24  N   UNL     1       4.728   4.611  16.099  0.00  0.00    +0.000 N 
ATOM     25  H   UNL     1       4.247   4.248  15.288  0.00  0.00    +0.000 HD
BRANCH  24  26
ATOM     26  C   UNL     1       6.173   4.389  15.999  0.00  0.00    +0.000 C 
ATOM     27  C   UNL     1       6.688   4.659  14.577  0.00  0.00    +0.000 C 
BRANCH  26  28
ATOM     28  C   UNL     1       6.850   5.352  16.979  0.00  0.00    +0.000 A 
ATOM     29  C   UNL     1       6.959   6.718  16.678  0.00  0.00    +0.000 A 
ATOM     30  C   UNL     1       7.623   7.589  17.551  0.00  0.00    +0.000 A 
ATOM     31  C   UNL     1       8.185   7.109  18.732  0.00  0.00    +0.000 A 
ATOM     32  C   UNL     1       8.065   5.761  19.058  0.00  0.00    +0.000 A 
ATOM     33  C   UNL     1       7.393   4.895  18.196  0.00  0.00    +0.000 A 
ENDBRANCH  26  28
ENDBRANCH  24  26
ENDBRANCH   7  24
TORSDOF 8
ENDMDL
MODEL 2
REMARK VINA RESULT:      -8.4      4.426      8.448
REMARK  Name = 
REMARK  10 active torsions:
REMARK  status: ('A' for Active; 'I' for Inactive)
REMARK    1  A    between atoms: C_1  and  C_2
REMARK    2  A    between atoms: N_4  and  C_5
REMARK    3  A    between atoms: C_10  and  C_11
REMARK    4  A    between atoms: C_11  and  C_12
REMARK    5  A    between atoms: C_12  and  C_13
REMARK    6  A    between atoms: C_13  and  O_15
REMARK    7  A    between atoms: C_19  and  N_20
REMARK    8  A    between atoms: N_20  and  C_21
REMARK    9  A    between atoms: C_21  and  C_22
REMARK   10  A    between atoms: C_21  and  C_23
REMARK                            x       y       z     vdW  Elec       q    Type
REMARK                         _______ _______ _______ _____ _____    ______ ____
ROOT
ATOM      1  C   UNL     1       1.637   1.714  19.134  0.00  0.00    +0.000 C 
ATOM      2  C   UNL     1       2.310   3.018  18.916  0.00  0.00    +0.000 A 
ATOM      3  N   UNL     1       3.281   3.133  18.000  0.00  0.00    +0.000 NA
ATOM      4  N   UNL     1       3.738   4.405  18.142  0.00  0.00    +0.000 N 
ATOM      5  C   UNL     1       2.956   5.141  19.018  0.00  0.00    +0.000 A 
ATOM      6  C   UNL     1       2.916   6.497  19.349  0.00  0.00    +0.000 A 
ATOM      7  C   UNL     1       1.986   6.895  20.307  0.00  0.00    +0.000 A 
ATOM      8  N   UNL     1       1.102   6.036  20.850  0.00  0.00    +0.000 NA
ATOM      9  C   UNL     1       1.099   4.728  20.477  0.00  0.00    +0.000 A 
ATOM     10  C   UNL     1       2.031   4.253  19.550  0.00  0.00    +0.000 A 
ENDROOT
BRANCH   4  11
ATOM     11  C   UNL     1       4.861   4.854  17.396  0.00  0.00    +0.000 A 
ATOM     12  C   UNL     1       5.686   5.871  17.889  0.00  0.00    +0.000 A 
ATOM     13  C   UNL     1       6.749   6.329  17.115  0.00  0.00    +0.000 A 
ATOM     14 CL   UNL     1       7.779   7.562  17.732  0.00  0.00    +0.000 Cl
ATOM     15  C   UNL     1       6.983   5.803  15.846  0.00  0.00    +0.000 A 
ATOM     16  C   UNL     1       6.169   4.779  15.341  0.00  0.00    +0.000 A 
ATOM     17  C   UNL     1       5.132   4.276  16.146  0.00  0.00    +0.000 A 
BRANCH  16  18
ATOM     18  C   UNL     1       6.418   4.229  13.954  0.00  0.00    +0.000 C 
BRANCH  18  19
ATOM     19  C   UNL     1       5.133   3.813  13.237  0.00  0.00    +0.000 C 
BRANCH  19  20
ATOM     20  C   UNL     1       5.447   2.958  12.034  0.00  0.00    +0.000 C 
ATOM     21  O   UNL     1       4.654   2.612  11.182  0.00  0.00    +0.000 OA
BRANCH  20  22
ATOM     22  O   UNL     1       6.758   2.594  11.991  0.00  0.00    +0.000 OA
ATOM     23  H   UNL     1       7.111   2.488  11.086  0.00  0.00    +0.000 HD
ENDBRANCH  20  22
ENDBRANCH  19  20
ENDBRANCH  18  19
ENDBRANCH  16  18
ENDBRANCH   4  11
BRANCH   7  24
ATOM     24  N   UNL     1       1.959   8.256  20.627  0.00  0.00    +0.000 N 
ATOM     25  H   UNL     1       2.755   8.502  21.199  0.00  0.00    +0.000 HD
BRANCH  24  26
ATOM     26  C   UNL     1       0.722   8.822  21.171  0.00  0.00    +0.000 C 
ATOM     27  C   UNL     1       0.873   9.183  22.656  0.00  0.00    +0.000 C 
BRANCH  26  28
ATOM     28  C   UNL     1       0.409  10.088  20.367  0.00  0.00    +0.000 A 
ATOM     29  C   UNL     1      -0.340  10.016  19.183  0.00  0.00    +0.000 A 
ATOM     30  C   UNL     1      -0.582  11.165  18.422  0.00  0.00    +0.000 A 
ATOM     31  C   UNL     1      -0.079  12.399  18.830  0.00  0.00    +0.000 A 
ATOM     32  C   UNL     1       0.647  12.493  20.015  0.00  0.00    +0.000 A 
ATOM     33  C   UNL     1       0.876  11.351  20.781  0.00  0.00    +0.000 A 
ENDBRANCH  26  28
ENDBRANCH  24  26
ENDBRANCH   7  24
TORSDOF 8
ENDMDL
MODEL 3
REMARK VINA RESULT:      -8.4      0.535      1.019
REMARK  Name = 
REMARK  10 active torsions:
REMARK  status: ('A' for Active; 'I' for Inactive)
REMARK    1  A    between atoms: C_1  and  C_2
REMARK    2  A    between atoms: N_4  and  C_5
REMARK    3  A    between atoms: C_10  and  C_11
REMARK    4  A    between atoms: C_11  and  C_12
REMARK    5  A    between atoms: C_12  and  C_13
REMARK    6  A    between atoms: C_13  and  O_15
REMARK    7  A    between atoms: C_19  and  N_20
REMARK    8  A    between atoms: N_20  and  C_21
REMARK    9  A    between atoms: C_21  and  C_22
REMARK   10  A    between atoms: C_21  and  C_23
REMARK                            x       y       z     vdW  Elec       q    Type
REMARK                         _______ _______ _______ _____ _____    ______ ____
ROOT
ATOM      1  C   UNL     1       2.218   2.271  21.791  0.00  0.00    +0.000 C 
ATOM      2  C   UNL     1       2.393   3.417  20.864  0.00  0.00    +0.000 A 
ATOM      3  N   UNL     1       1.927   4.628  21.192  0.00  0.00    +0.000 NA
ATOM      4  N   UNL     1       2.158   5.393  20.092  0.00  0.00    +0.000 N 
ATOM      5  C   UNL     1       2.912   4.722  19.143  0.00  0.00    +0.000 A 
ATOM      6  C   UNL     1       3.534   5.126  17.961  0.00  0.00    +0.000 A 
ATOM      7  C   UNL     1       4.214   4.154  17.229  0.00  0.00    +0.000 A 
ATOM      8  N   UNL     1       4.341   2.886  17.665  0.00  0.00    +0.000 NA
ATOM      9  C   UNL     1       3.789   2.510  18.850  0.00  0.00    +0.000 A 
ATOM     10  C   UNL     1       3.061   3.425  19.616  0.00  0.00    +0.000 A 
ENDROOT
BRANCH   4  11
ATOM     11  C   UNL     1       1.688   6.733  20.036  0.00  0.00    +0.000 A 
ATOM     12  C   UNL     1       2.150   7.611  19.048  0.00  0.00    +0.000 A 
ATOM     13  C   UNL     1       1.714   8.934  19.047  0.00  0.00    +0.000 A 
ATOM     14 CL   UNL     1       2.261  10.006  17.817  0.00  0.00    +0.000 Cl
ATOM     15  C   UNL     1       0.845   9.396  20.033  0.00  0.00    +0.000 A 
ATOM     16  C   UNL     1       0.369   8.528  21.025  0.00  0.00    +0.000 A 
ATOM     17  C   UNL     1       0.762   7.179  20.992  0.00  0.00    +0.000 A 
BRANCH  16  18
ATOM     18  C   UNL     1      -0.558   9.045  22.103  0.00  0.00    +0.000 C 
BRANCH  18  19
ATOM     19  C   UNL     1       0.067  10.158  22.945  0.00  0.00    +0.000 C 
BRANCH  19  20
ATOM     20  C   UNL     1      -0.803  11.390  22.930  0.00  0.00    +0.000 C 
ATOM     21  O   UNL     1      -0.443  12.509  22.625  0.00  0.00    +0.000 OA
BRANCH  20  22
ATOM     22  O   UNL     1      -2.083  11.120  23.305  0.00  0.00    +0.000 OA
ATOM     23  H   UNL     1      -2.363  11.579  24.121  0.00  0.00    +0.000 HD
ENDBRANCH  20  22
ENDBRANCH  19  20
ENDBRANCH  18  19
ENDBRANCH  16  18
ENDBRANCH   4  11
BRANCH   7  24
ATOM     24  N   UNL     1       4.831   4.577  16.048  0.00  0.00    +0.000 N 
ATOM     25  H   UNL     1       4.329   4.231  15.242  0.00  0.00    +0.000 HD
BRANCH  24  26
ATOM     26  C   UNL     1       6.275   4.369  15.901  0.00  0.00    +0.000 C 
ATOM     27  C   UNL     1       6.744   4.671  14.470  0.00  0.00    +0.000 C 
BRANCH  26  28
ATOM     28  C   UNL     1       6.972   5.320  16.879  0.00  0.00    +0.000 A 
ATOM     29  C   UNL     1       7.529   4.836  18.072  0.00  0.00    +0.000 A 
ATOM     30  C   UNL     1       8.121   5.712  18.989  0.00  0.00    +0.000 A 
ATOM     31  C   UNL     1       8.163   7.080  18.729  0.00  0.00    +0.000 A 
ATOM     32  C   UNL     1       7.636   7.576  17.540  0.00  0.00    +0.000 A 
ATOM     33  C   UNL     1       7.059   6.702  16.619  0.00  0.00    +0.000 A 
ENDBRANCH  26  28
ENDBRANCH  24  26
ENDBRANCH   7  24
TORSDOF 8
ENDMDL
MODEL 4
REMARK VINA RESULT:      -8.2      3.898      7.910
REMARK  Name = 
REMARK  10 active torsions:
REMARK  status: ('A' for Active; 'I' for Inactive)
REMARK    1  A    between atoms: C_1  and  C_2
REMARK    2  A    between atoms: N_4  and  C_5
REMARK    3  A    between atoms: C_10  and  C_11
REMARK    4  A    between atoms: C_11  and  C_12
REMARK    5  A    between atoms: C_12  and  C_13
REMARK    6  A    between atoms: C_13  and  O_15
REMARK    7  A    between atoms: C_19  and  N_20
REMARK    8  A    between atoms: N_20  and  C_21
REMARK    9  A    between atoms: C_21  and  C_22
REMARK   10  A    between atoms: C_21  and  C_23
REMARK                            x       y       z     vdW  Elec       q    Type
REMARK                         _______ _______ _______ _____ _____    ______ ____
ROOT
ATOM      1  C   UNL     1       2.084   3.249  21.445  0.00  0.00    +0.000 C 
ATOM      2  C   UNL     1       2.538   4.321  20.525  0.00  0.00    +0.000 A 
ATOM      3  N   UNL     1       3.470   4.065  19.598  0.00  0.00    +0.000 NA
ATOM      4  N   UNL     1       3.719   5.270  19.021  0.00  0.00    +0.000 N 
ATOM      5  C   UNL     1       2.838   6.246  19.458  0.00  0.00    +0.000 A 
ATOM      6  C   UNL     1       2.583   7.555  19.044  0.00  0.00    +0.000 A 
ATOM      7  C   UNL     1       1.611   8.270  19.740  0.00  0.00    +0.000 A 
ATOM      8  N   UNL     1       0.880   7.715  20.726  0.00  0.00    +0.000 NA
ATOM      9  C   UNL     1       1.083   6.418  21.084  0.00  0.00    +0.000 A 
ATOM     10  C   UNL     1       2.070   5.655  20.453  0.00  0.00    +0.000 A 
ENDROOT
BRANCH   4  11
ATOM     11  C   UNL     1       4.749   5.405  18.051  0.00  0.00    +0.000 A 
ATOM     12  C   UNL     1       4.759   4.603  16.903  0.00  0.00    +0.000 A 
ATOM     13  C   UNL     1       5.807   4.717  15.995  0.00  0.00    +0.000 A 
ATOM     14 CL   UNL     1       5.806   3.750  14.571  0.00  0.00    +0.000 Cl
ATOM     15  C   UNL     1       6.857   5.603  16.229  0.00  0.00    +0.000 A 
ATOM     16  C   UNL     1       6.858   6.417  17.370  0.00  0.00    +0.000 A 
ATOM     17  C   UNL     1       5.771   6.344  18.258  0.00  0.00    +0.000 A 
BRANCH  16  18
ATOM     18  C   UNL     1       8.013   7.360  17.626  0.00  0.00    +0.000 C 
BRANCH  18  19
ATOM     19  C   UNL     1       7.600   8.833  17.593  0.00  0.00    +0.000 C 
BRANCH  19  20
ATOM     20  C   UNL     1       8.614   9.686  18.315  0.00  0.00    +0.000 C 
ATOM     21  O   UNL     1       8.958  10.805  17.992  0.00  0.00    +0.000 OA
BRANCH  20  22
ATOM     22  O   UNL     1       9.128   9.060  19.408  0.00  0.00    +0.000 OA
ATOM     23  H   UNL     1       8.517   9.024  20.170  0.00  0.00    +0.000 HD
ENDBRANCH  20  22
ENDBRANCH  19  20
ENDBRANCH  18  19
ENDBRANCH  16  18
ENDBRANCH   4  11
BRANCH   7  24
ATOM     24  N   UNL     1       1.370   9.579  19.313  0.00  0.00    +0.000 N 
ATOM     25  H   UNL     1       2.238  10.086  19.218  0.00  0.00    +0.000 HD
BRANCH  24  26
ATOM     26  C   UNL     1       0.368  10.375  20.028  0.00  0.00    +0.000 C 
ATOM     27  C   UNL     1       0.926  11.745  20.440  0.00  0.00    +0.000 C 
BRANCH  26  28
ATOM     28  C   UNL     1      -0.818  10.570  19.079  0.00  0.00    +0.000 A 
ATOM     29  C   UNL     1      -0.903   9.845  17.881  0.00  0.00    +0.000 A 
ATOM     30  C   UNL     1      -1.961  10.061  16.991  0.00  0.00    +0.000 A 
ATOM     31  C   UNL     1      -2.946  11.002  17.282  0.00  0.00    +0.000 A 
ATOM     32  C   UNL     1      -2.891  11.714  18.478  0.00  0.00    +0.000 A 
ATOM     33  C   UNL     1      -1.845  11.490  19.372  0.00  0.00    +0.000 A 
ENDBRANCH  26  28
ENDBRANCH  24  26
ENDBRANCH   7  24
TORSDOF 8
ENDMDL
MODEL 5
REMARK VINA RESULT:      -7.9      3.775      7.673
REMARK  Name = 
REMARK  10 active torsions:
REMARK  status: ('A' for Active; 'I' for Inactive)
REMARK    1  A    between atoms: C_1  and  C_2
REMARK    2  A    between atoms: N_4  and  C_5
REMARK    3  A    between atoms: C_10  and  C_11
REMARK    4  A    between atoms: C_11  and  C_12
REMARK    5  A    between atoms: C_12  and  C_13
REMARK    6  A    between atoms: C_13  and  O_15
REMARK    7  A    between atoms: C_19  and  N_20
REMARK    8  A    between atoms: N_20  and  C_21
REMARK    9  A    between atoms: C_21  and  C_22
REMARK   10  A    between atoms: C_21  and  C_23
REMARK                            x       y       z     vdW  Elec       q    Type
REMARK                         _______ _______ _______ _____ _____    ______ ____
ROOT
ATOM      1  C   UNL     1       1.427   1.661  19.116  0.00  0.00    +0.000 C 
ATOM      2  C   UNL     1       2.099   2.955  18.842  0.00  0.00    +0.000 A 
ATOM      3  N   UNL     1       3.000   3.053  17.856  0.00  0.00    +0.000 NA
ATOM      4  N   UNL     1       3.483   4.319  17.957  0.00  0.00    +0.000 N 
ATOM      5  C   UNL     1       2.778   5.070  18.885  0.00  0.00    +0.000 A 
ATOM      6  C   UNL     1       2.780   6.427  19.211  0.00  0.00    +0.000 A 
ATOM      7  C   UNL     1       1.929   6.841  20.234  0.00  0.00    +0.000 A 
ATOM      8  N   UNL     1       1.077   5.997  20.845  0.00  0.00    +0.000 NA
ATOM      9  C   UNL     1       1.030   4.687  20.480  0.00  0.00    +0.000 A 
ATOM     10  C   UNL     1       1.883   4.196  19.488  0.00  0.00    +0.000 A 
ENDROOT
BRANCH   4  11
ATOM     11  C   UNL     1       4.553   4.750  17.127  0.00  0.00    +0.000 A 
ATOM     12  C   UNL     1       4.802   4.124  15.900  0.00  0.00    +0.000 A 
ATOM     13  C   UNL     1       5.888   4.530  15.130  0.00  0.00    +0.000 A 
ATOM     14 CL   UNL     1       6.179   3.778  13.609  0.00  0.00    +0.000 Cl
ATOM     15  C   UNL     1       6.743   5.534  15.580  0.00  0.00    +0.000 A 
ATOM     16  C   UNL     1       6.503   6.175  16.803  0.00  0.00    +0.000 A 
ATOM     17  C   UNL     1       5.373   5.806  17.553  0.00  0.00    +0.000 A 
BRANCH  16  18
ATOM     18  C   UNL     1       7.448   7.250  17.293  0.00  0.00    +0.000 C 
BRANCH  18  19
ATOM     19  C   UNL     1       8.050   6.937  18.664  0.00  0.00    +0.000 C 
BRANCH  19  20
ATOM     20  C   UNL     1       7.896   5.473  18.990  0.00  0.00    +0.000 C 
ATOM     21  O   UNL     1       8.338   4.549  18.337  0.00  0.00    +0.000 OA
BRANCH  20  22
ATOM     22  O   UNL     1       7.186   5.272  20.134  0.00  0.00    +0.000 OA
ATOM     23  H   UNL     1       6.286   5.652  20.114  0.00  0.00    +0.000 HD
ENDBRANCH  20  22
ENDBRANCH  19  20
ENDBRANCH  18  19
ENDBRANCH  16  18
ENDBRANCH   4  11
BRANCH   7  24
ATOM     24  N   UNL     1       1.944   8.204  20.547  0.00  0.00    +0.000 N 
ATOM     25  H   UNL     1       2.764   8.434  21.091  0.00  0.00    +0.000 HD
BRANCH  24  26
ATOM     26  C   UNL     1       0.739   8.800  21.131  0.00  0.00    +0.000 C 
ATOM     27  C   UNL     1       0.978   9.251  22.579  0.00  0.00    +0.000 C 
BRANCH  26  28
ATOM     28  C   UNL     1       0.371  10.013  20.271  0.00  0.00    +0.000 A 
ATOM     29  C   UNL     1       0.796  11.301  20.632  0.00  0.00    +0.000 A 
ATOM     30  C   UNL     1       0.416  12.415  19.875  0.00  0.00    +0.000 A 
ATOM     31  C   UNL     1      -0.392  12.260  18.751  0.00  0.00    +0.000 A 
ATOM     32  C   UNL     1      -0.804  10.987  18.364  0.00  0.00    +0.000 A 
ATOM     33  C   UNL     1      -0.415   9.876  19.110  0.00  0.00    +0.000 A 
ENDBRANCH  26  28
ENDBRANCH  24  26
ENDBRANCH   7  24
TORSDOF 8
ENDMDL
MODEL 6
REMARK VINA RESULT:      -7.8      2.270      3.416
REMARK  Name = 
REMARK  10 active torsions:
REMARK  status: ('A' for Active; 'I' for Inactive)
REMARK    1  A    between atoms: C_1  and  C_2
REMARK    2  A    between atoms: N_4  and  C_5
REMARK    3  A    between atoms: C_10  and  C_11
REMARK    4  A    between atoms: C_11  and  C_12
REMARK    5  A    between atoms: C_12  and  C_13
REMARK    6  A    between atoms: C_13  and  O_15
REMARK    7  A    between atoms: C_19  and  N_20
REMARK    8  A    between atoms: N_20  and  C_21
REMARK    9  A    between atoms: C_21  and  C_22
REMARK   10  A    between atoms: C_21  and  C_23
REMARK                            x       y       z     vdW  Elec       q    Type
REMARK                         _______ _______ _______ _____ _____    ______ ____
ROOT
ATOM      1  C   UNL     1       0.921   2.378  20.437  0.00  0.00    +0.000 C 
ATOM      2  C   UNL     1       1.618   3.679  20.280  0.00  0.00    +0.000 A 
ATOM      3  N   UNL     1       1.022   4.815  20.663  0.00  0.00    +0.000 NA
ATOM      4  N   UNL     1       1.880   5.797  20.281  0.00  0.00    +0.000 N 
ATOM      5  C   UNL     1       3.080   5.286  19.816  0.00  0.00    +0.000 A 
ATOM      6  C   UNL     1       4.302   5.874  19.484  0.00  0.00    +0.000 A 
ATOM      7  C   UNL     1       5.314   5.033  19.025  0.00  0.00    +0.000 A 
ATOM      8  N   UNL     1       5.166   3.696  18.968  0.00  0.00    +0.000 NA
ATOM      9  C   UNL     1       3.997   3.118  19.354  0.00  0.00    +0.000 A 
ATOM     10  C   UNL     1       2.926   3.906  19.788  0.00  0.00    +0.000 A 
ENDROOT
BRANCH   4  11
ATOM     11  C   UNL     1       1.521   7.165  20.431  0.00  0.00    +0.000 A 
ATOM     12  C   UNL     1       0.971   7.631  21.632  0.00  0.00    +0.000 A 
ATOM     13  C   UNL     1       0.579   8.963  21.735  0.00  0.00    +0.000 A 
ATOM     14 CL   UNL     1      -0.072   9.543  23.219  0.00  0.00    +0.000 Cl
ATOM     15  C   UNL     1       0.705   9.827  20.649  0.00  0.00    +0.000 A 
ATOM     16  C   UNL     1       1.259   9.376  19.443  0.00  0.00    +0.000 A 
ATOM     17  C   UNL     1       1.709   8.047  19.357  0.00  0.00    +0.000 A 
BRANCH  16  18
ATOM     18  C   UNL     1       1.372  10.317  18.264  0.00  0.00    +0.000 C 
BRANCH  18  19
ATOM     19  C   UNL     1       0.906  11.738  18.586  0.00  0.00    +0.000 C 
BRANCH  19  20
ATOM     20  C   UNL     1       2.067  12.700  18.547  0.00  0.00    +0.000 C 
ATOM     21  O   UNL     1       2.499  13.330  19.492  0.00  0.00    +0.000 OA
BRANCH  20  22
ATOM     22  O   UNL     1       2.609  12.803  17.303  0.00  0.00    +0.000 OA
ATOM     23  H   UNL     1       2.393  13.637  16.843  0.00  0.00    +0.000 HD
ENDBRANCH  20  22
ENDBRANCH  19  20
ENDBRANCH  18  19
ENDBRANCH  16  18
ENDBRANCH   4  11
BRANCH   7  24
ATOM     24  N   UNL     1       6.531   5.640  18.697  0.00  0.00    +0.000 N 
ATOM     25  H   UNL     1       6.948   6.061  19.514  0.00  0.00    +0.000 HD
BRANCH  24  26
ATOM     26  C   UNL     1       6.570   6.554  17.552  0.00  0.00    +0.000 C 
ATOM     27  C   UNL     1       7.894   7.330  17.496  0.00  0.00    +0.000 C 
BRANCH  26  28
ATOM     28  C   UNL     1       6.421   5.704  16.287  0.00  0.00    +0.000 A 
ATOM     29  C   UNL     1       7.548   5.337  15.535  0.00  0.00    +0.000 A 
ATOM     30  C   UNL     1       7.407   4.604  14.351  0.00  0.00    +0.000 A 
ATOM     31  C   UNL     1       6.143   4.229  13.902  0.00  0.00    +0.000 A 
ATOM     32  C   UNL     1       5.015   4.563  14.647  0.00  0.00    +0.000 A 
ATOM     33  C   UNL     1       5.155   5.282  15.833  0.00  0.00    +0.000 A 
ENDBRANCH  26  28
ENDBRANCH  24  26
ENDBRANCH   7  24
TORSDOF 8
ENDMDL
MODEL 7
REMARK VINA RESULT:      -7.8      4.481      8.564
REMARK  Name = 
REMARK  10 active torsions:
REMARK  status: ('A' for Active; 'I' for Inactive)
REMARK    1  A    between atoms: C_1  and  C_2
REMARK    2  A    between atoms: N_4  and  C_5
REMARK    3  A    between atoms: C_10  and  C_11
REMARK    4  A    between atoms: C_11  and  C_12
REMARK    5  A    between atoms: C_12  and  C_13
REMARK    6  A    between atoms: C_13  and  O_15
REMARK    7  A    between atoms: C_19  and  N_20
REMARK    8  A    between atoms: N_20  and  C_21
REMARK    9  A    between atoms: C_21  and  C_22
REMARK   10  A    between atoms: C_21  and  C_23
REMARK                            x       y       z     vdW  Elec       q    Type
REMARK                         _______ _______ _______ _____ _____    ______ ____
ROOT
ATOM      1  C   UNL     1       2.153   2.543  20.767  0.00  0.00    +0.000 C 
ATOM      2  C   UNL     1       2.653   3.744  20.054  0.00  0.00    +0.000 A 
ATOM      3  N   UNL     1       3.623   3.631  19.138  0.00  0.00    +0.000 NA
ATOM      4  N   UNL     1       3.904   4.910  18.777  0.00  0.00    +0.000 N 
ATOM      5  C   UNL     1       3.010   5.813  19.329  0.00  0.00    +0.000 A 
ATOM      6  C   UNL     1       2.782   7.175  19.123  0.00  0.00    +0.000 A 
ATOM      7  C   UNL     1       1.783   7.779  19.884  0.00  0.00    +0.000 A 
ATOM      8  N   UNL     1       1.006   7.081  20.734  0.00  0.00    +0.000 NA
ATOM      9  C   UNL     1       1.187   5.741  20.884  0.00  0.00    +0.000 A 
ATOM     10  C   UNL     1       2.196   5.078  20.181  0.00  0.00    +0.000 A 
ENDROOT
BRANCH   4  11
ATOM     11  C   UNL     1       4.977   5.188  17.887  0.00  0.00    +0.000 A 
ATOM     12  C   UNL     1       5.814   6.291  18.098  0.00  0.00    +0.000 A 
ATOM     13  C   UNL     1       6.824   6.571  17.183  0.00  0.00    +0.000 A 
ATOM     14 CL   UNL     1       7.869   7.911  17.455  0.00  0.00    +0.000 Cl
ATOM     15  C   UNL     1       6.995   5.780  16.048  0.00  0.00    +0.000 A 
ATOM     16  C   UNL     1       6.170   4.669  15.826  0.00  0.00    +0.000 A 
ATOM     17  C   UNL     1       5.187   4.352  16.780  0.00  0.00    +0.000 A 
BRANCH  16  18
ATOM     18  C   UNL     1       6.349   3.829  14.581  0.00  0.00    +0.000 C 
BRANCH  18  19
ATOM     19  C   UNL     1       5.258   4.069  13.536  0.00  0.00    +0.000 C 
BRANCH  19  20
ATOM     20  C   UNL     1       5.590   3.359  12.247  0.00  0.00    +0.000 C 
ATOM     21  O   UNL     1       6.705   3.064  11.866  0.00  0.00    +0.000 OA
BRANCH  20  22
ATOM     22  O   UNL     1       4.477   3.066  11.520  0.00  0.00    +0.000 OA
ATOM     23  H   UNL     1       3.846   2.478  11.979  0.00  0.00    +0.000 HD
ENDBRANCH  20  22
ENDBRANCH  19  20
ENDBRANCH  18  19
ENDBRANCH  16  18
ENDBRANCH   4  11
BRANCH   7  24
ATOM     24  N   UNL     1       1.568   9.144  19.665  0.00  0.00    +0.000 N 
ATOM     25  H   UNL     1       2.429   9.661  19.780  0.00  0.00    +0.000 HD
BRANCH  24  26
ATOM     26  C   UNL     1       0.461   9.798  20.368  0.00  0.00    +0.000 C 
ATOM     27  C   UNL     1       0.967  10.880  21.334  0.00  0.00    +0.000 C 
BRANCH  26  28
ATOM     28  C   UNL     1      -0.434  10.442  19.304  0.00  0.00    +0.000 A 
ATOM     29  C   UNL     1      -1.269   9.652  18.499  0.00  0.00    +0.000 A 
ATOM     30  C   UNL     1      -2.048  10.235  17.493  0.00  0.00    +0.000 A 
ATOM     31  C   UNL     1      -2.003  11.611  17.276  0.00  0.00    +0.000 A 
ATOM     32  C   UNL     1      -1.199  12.413  18.081  0.00  0.00    +0.000 A 
ATOM     33  C   UNL     1      -0.433  11.835  19.092  0.00  0.00    +0.000 A 
ENDBRANCH  26  28
ENDBRANCH  24  26
ENDBRANCH   7  24
TORSDOF 8
ENDMDL
MODEL 8
REMARK VINA RESULT:      -7.8      4.446      8.381
REMARK  Name = 
REMARK  10 active torsions:
REMARK  status: ('A' for Active; 'I' for Inactive)
REMARK    1  A    between atoms: C_1  and  C_2
REMARK    2  A    between atoms: N_4  and  C_5
REMARK    3  A    between atoms: C_10  and  C_11
REMARK    4  A    between atoms: C_11  and  C_12
REMARK    5  A    between atoms: C_12  and  C_13
REMARK    6  A    between atoms: C_13  and  O_15
REMARK    7  A    between atoms: C_19  and  N_20
REMARK    8  A    between atoms: N_20  and  C_21
REMARK    9  A    between atoms: C_21  and  C_22
REMARK   10  A    between atoms: C_21  and  C_23
REMARK                            x       y       z     vdW  Elec       q    Type
REMARK                         _______ _______ _______ _____ _____    ______ ____
ROOT
ATOM      1  C   UNL     1       1.953   1.404  18.857  0.00  0.00    +0.000 C 
ATOM      2  C   UNL     1       2.588   2.744  18.793  0.00  0.00    +0.000 A 
ATOM      3  N   UNL     1       3.645   2.954  17.999  0.00  0.00    +0.000 NA
ATOM      4  N   UNL     1       4.027   4.230  18.267  0.00  0.00    +0.000 N 
ATOM      5  C   UNL     1       3.124   4.879  19.094  0.00  0.00    +0.000 A 
ATOM      6  C   UNL     1       2.988   6.208  19.500  0.00  0.00    +0.000 A 
ATOM      7  C   UNL     1       1.944   6.507  20.373  0.00  0.00    +0.000 A 
ATOM      8  N   UNL     1       1.045   5.583  20.762  0.00  0.00    +0.000 NA
ATOM      9  C   UNL     1       1.141   4.302  20.313  0.00  0.00    +0.000 A 
ATOM     10  C   UNL     1       2.187   3.924  19.466  0.00  0.00    +0.000 A 
ENDROOT
BRANCH   4  11
ATOM     11  C   UNL     1       5.203   4.769  17.677  0.00  0.00    +0.000 A 
ATOM     12  C   UNL     1       6.066   5.583  18.420  0.00  0.00    +0.000 A 
ATOM     13  C   UNL     1       7.183   6.141  17.804  0.00  0.00    +0.000 A 
ATOM     14 CL   UNL     1       8.259   7.121  18.723  0.00  0.00    +0.000 Cl
ATOM     15  C   UNL     1       7.435   5.917  16.452  0.00  0.00    +0.000 A 
ATOM     16  C   UNL     1       6.583   5.098  15.697  0.00  0.00    +0.000 A 
ATOM     17  C   UNL     1       5.489   4.488  16.332  0.00  0.00    +0.000 A 
BRANCH  16  18
ATOM     18  C   UNL     1       6.854   4.878  14.225  0.00  0.00    +0.000 C 
BRANCH  18  19
ATOM     19  C   UNL     1       5.917   3.847  13.593  0.00  0.00    +0.000 C 
BRANCH  19  20
ATOM     20  C   UNL     1       6.443   3.403  12.250  0.00  0.00    +0.000 C 
ATOM     21  O   UNL     1       7.245   4.006  11.567  0.00  0.00    +0.000 OA
BRANCH  20  22
ATOM     22  O   UNL     1       5.913   2.211  11.860  0.00  0.00    +0.000 OA
ATOM     23  H   UNL     1       5.019   2.039  12.215  0.00  0.00    +0.000 HD
ENDBRANCH  20  22
ENDBRANCH  19  20
ENDBRANCH  18  19
ENDBRANCH  16  18
ENDBRANCH   4  11
BRANCH   7  24
ATOM     24  N   UNL     1       1.823   7.843  20.769  0.00  0.00    +0.000 N 
ATOM     25  H   UNL     1       1.082   7.945  21.449  0.00  0.00    +0.000 HD
BRANCH  24  26
ATOM     26  C   UNL     1       1.733   8.874  19.731  0.00  0.00    +0.000 C 
ATOM     27  C   UNL     1       1.341   8.275  18.373  0.00  0.00    +0.000 C 
BRANCH  26  28
ATOM     28  C   UNL     1       0.663   9.875  20.177  0.00  0.00    +0.000 A 
ATOM     29  C   UNL     1      -0.155  10.514  19.233  0.00  0.00    +0.000 A 
ATOM     30  C   UNL     1      -1.099  11.467  19.637  0.00  0.00    +0.000 A 
ATOM     31  C   UNL     1      -1.236  11.794  20.984  0.00  0.00    +0.000 A 
ATOM     32  C   UNL     1      -0.450  11.152  21.937  0.00  0.00    +0.000 A 
ATOM     33  C   UNL     1       0.481  10.194  21.537  0.00  0.00    +0.000 A 
ENDBRANCH  26  28
ENDBRANCH  24  26
ENDBRANCH   7  24
TORSDOF 8
ENDMDL
MODEL 9
REMARK VINA RESULT:      -7.7      2.203      3.312
REMARK  Name = 
REMARK  10 active torsions:
REMARK  status: ('A' for Active; 'I' for Inactive)
REMARK    1  A    between atoms: C_1  and  C_2
REMARK    2  A    between atoms: N_4  and  C_5
REMARK    3  A    between atoms: C_10  and  C_11
REMARK    4  A    between atoms: C_11  and  C_12
REMARK    5  A    between atoms: C_12  and  C_13
REMARK    6  A    between atoms: C_13  and  O_15
REMARK    7  A    between atoms: C_19  and  N_20
REMARK    8  A    between atoms: N_20  and  C_21
REMARK    9  A    between atoms: C_21  and  C_22
REMARK   10  A    between atoms: C_21  and  C_23
REMARK                            x       y       z     vdW  Elec       q    Type
REMARK                         _______ _______ _______ _____ _____    ______ ____
ROOT
ATOM      1  C   UNL     1       0.669   2.261  19.947  0.00  0.00    +0.000 C 
ATOM      2  C   UNL     1       1.452   3.521  19.972  0.00  0.00    +0.000 A 
ATOM      3  N   UNL     1       0.864   4.675  20.310  0.00  0.00    +0.000 NA
ATOM      4  N   UNL     1       1.825   5.617  20.124  0.00  0.00    +0.000 N 
ATOM      5  C   UNL     1       3.056   5.052  19.833  0.00  0.00    +0.000 A 
ATOM      6  C   UNL     1       4.346   5.576  19.734  0.00  0.00    +0.000 A 
ATOM      7  C   UNL     1       5.372   4.694  19.401  0.00  0.00    +0.000 A 
ATOM      8  N   UNL     1       5.163   3.372  19.253  0.00  0.00    +0.000 NA
ATOM      9  C   UNL     1       3.916   2.853  19.415  0.00  0.00    +0.000 A 
ATOM     10  C   UNL     1       2.833   3.686  19.710  0.00  0.00    +0.000 A 
ENDROOT
BRANCH   4  11
ATOM     11  C   UNL     1       1.521   6.997  20.284  0.00  0.00    +0.000 A 
ATOM     12  C   UNL     1       1.053   7.488  21.509  0.00  0.00    +0.000 A 
ATOM     13  C   UNL     1       0.713   8.833  21.624  0.00  0.00    +0.000 A 
ATOM     14 CL   UNL     1       0.163   9.443  23.137  0.00  0.00    +0.000 Cl
ATOM     15  C   UNL     1       0.810   9.687  20.527  0.00  0.00    +0.000 A 
ATOM     16  C   UNL     1       1.282   9.212  19.296  0.00  0.00    +0.000 A 
ATOM     17  C   UNL     1       1.681   7.868  19.196  0.00  0.00    +0.000 A 
BRANCH  16  18
ATOM     18  C   UNL     1       1.364  10.142  18.106  0.00  0.00    +0.000 C 
BRANCH  18  19
ATOM     19  C   UNL     1       2.420  11.236  18.275  0.00  0.00    +0.000 C 
BRANCH  19  20
ATOM     20  C   UNL     1       1.776  12.601  18.280  0.00  0.00    +0.000 C 
ATOM     21  O   UNL     1       0.936  12.986  19.068  0.00  0.00    +0.000 OA
BRANCH  20  22
ATOM     22  O   UNL     1       2.243  13.394  17.278  0.00  0.00    +0.000 OA
ATOM     23  H   UNL     1       2.425  12.915  16.445  0.00  0.00    +0.000 HD
ENDBRANCH  20  22
ENDBRANCH  19  20
ENDBRANCH  18  19
ENDBRANCH  16  18
ENDBRANCH   4  11
BRANCH   7  24
ATOM     24  N   UNL     1       6.657   5.237  19.306  0.00  0.00    +0.000 N 
ATOM     25  H   UNL     1       7.028   5.434  20.225  0.00  0.00    +0.000 HD
BRANCH  24  26
ATOM     26  C   UNL     1       6.874   6.365  18.395  0.00  0.00    +0.000 C 
ATOM     27  C   UNL     1       8.315   6.888  18.480  0.00  0.00    +0.000 C 
BRANCH  26  28
ATOM     28  C   UNL     1       6.595   5.862  16.976  0.00  0.00    +0.000 A 
ATOM     29  C   UNL     1       5.560   6.419  16.210  0.00  0.00    +0.000 A 
ATOM     30  C   UNL     1       5.272   5.924  14.933  0.00  0.00    +0.000 A 
ATOM     31  C   UNL     1       6.012   4.869  14.404  0.00  0.00    +0.000 A 
ATOM     32  C   UNL     1       7.060   4.320  15.139  0.00  0.00    +0.000 A 
ATOM     33  C   UNL     1       7.355   4.821  16.406  0.00  0.00    +0.000 A 
ENDBRANCH  26  28
ENDBRANCH  24  26
ENDBRANCH   7  24
TORSDOF 8
ENDMDL
