MODEL 1
REMARK VINA RESULT:      -8.4      0.000      0.000
REMARK  Name = 
REMARK  8 active torsions:
REMARK  status: ('A' for Active; 'I' for Inactive)
REMARK    1  A    between atoms: C_1  and  C_2
REMARK    2  A    between atoms: C_2  and  N_3
REMARK    3  A    between atoms: C_6  and  C_7
REMARK    4  A    between atoms: N_13  and  C_14
REMARK    5  A    between atoms: C_14  and  C_15
REMARK    6  A    between atoms: C_15  and  C_16
REMARK    7  A    between atoms: C_16  and  C_17
REMARK    8  A    between atoms: C_25  and  C_26
REMARK                            x       y       z     vdW  Elec       q    Type
REMARK                         _______ _______ _______ _____ _____    ______ ____
ROOT
ATOM      1  C   UNL     1       4.327   3.946  16.709  0.00  0.00    +0.000 C 
ATOM      2  O   UNL     1       4.305   3.564  15.542  0.00  0.00    +0.000 OA
ATOM      3  N   UNL     1       5.078   5.064  17.098  0.00  0.00    +0.000 N 
ATOM      4  C   UNL     1       5.132   5.628  18.442  0.00  0.00    +0.000 C 
ATOM      5  C   UNL     1       6.428   5.327  19.196  0.00  0.00    +0.000 C 
ATOM      6  C   UNL     1       7.755   5.494  18.453  0.00  0.00    +0.000 C 
ATOM      7  N   UNL     1       7.848   6.452  17.356  0.00  0.00    +0.000 NA
ATOM      8  C   UNL     1       7.246   5.919  16.122  0.00  0.00    +0.000 C 
ATOM      9  C   UNL     1       5.713   5.867  16.045  0.00  0.00    +0.000 C 
ENDROOT
BRANCH   1  13
ATOM     10  N   UNL     1       1.916   2.903  19.203  0.00  0.00    +0.000 N 
ATOM     11  N   UNL     1       2.713   1.824  19.287  0.00  0.00    +0.000 NA
ATOM     12  C   UNL     1       3.635   2.046  18.353  0.00  0.00    +0.000 A 
ATOM     13  C   UNL     1       3.486   3.292  17.706  0.00  0.00    +0.000 A 
ATOM     14  C   UNL     1       2.286   3.780  18.214  0.00  0.00    +0.000 A 
ATOM     15  C   UNL     1       1.500   4.996  17.873  0.00  0.00    +0.000 C 
BRANCH  10  17
ATOM     16  C   UNL     1       1.313   2.857  21.591  0.00  0.00    +0.000 C 
ATOM     17  C   UNL     1       0.829   3.041  20.160  0.00  0.00    +0.000 C 
ENDBRANCH  10  17
ENDBRANCH   1  13
BRANCH   7  18
ATOM     18  C   UNL     1       7.467   7.833  17.653  0.00  0.00    +0.000 C 
BRANCH  18  19
ATOM     19  C   UNL     1       8.509   8.615  18.454  0.00  0.00    +0.000 C 
BRANCH  19  20
ATOM     20  C   UNL     1       8.399  10.113  18.183  0.00  0.00    +0.000 C 
BRANCH  20  21
ATOM     21  C   UNL     1       9.573  10.863  18.748  0.00  0.00    +0.000 A 
ATOM     22  C   UNL     1       9.629  11.158  20.115  0.00  0.00    +0.000 A 
ATOM     23  C   UNL     1      10.717  11.850  20.642  0.00  0.00    +0.000 A 
ATOM     24  C   UNL     1      11.756  12.252  19.805  0.00  0.00    +0.000 A 
ATOM     25  C   UNL     1      11.703  11.976  18.441  0.00  0.00    +0.000 A 
ATOM     26  C   UNL     1      10.613  11.287  17.912  0.00  0.00    +0.000 A 
ENDBRANCH  20  21
ENDBRANCH  19  20
ENDBRANCH  18  19
ENDBRANCH   7  18
TORSDOF 6
ENDMDL
MODEL 2
REMARK VINA RESULT:      -7.9      0.545      1.093
REMARK  Name = 
REMARK  8 active torsions:
REMARK  status: ('A' for Active; 'I' for Inactive)
REMARK    1  A    between atoms: C_1  and  C_2
REMARK    2  A    between atoms: C_2  and  N_3
REMARK    3  A    between atoms: C_6  and  C_7
REMARK    4  A    between atoms: N_13  and  C_14
REMARK    5  A    between atoms: C_14  and  C_15
REMARK    6  A    between atoms: C_15  and  C_16
REMARK    7  A    between atoms: C_16  and  C_17
REMARK    8  A    between atoms: C_25  and  C_26
REMARK                            x       y       z     vdW  Elec       q    Type
REMARK                         _______ _______ _______ _____ _____    ______ ____
ROOT
ATOM      1  C   UNL     1       4.449   3.910  16.639  0.00  0.00    +0.000 C 
ATOM      2  O   UNL     1       4.538   3.529  15.475  0.00  0.00    +0.000 OA
ATOM      3  N   UNL     1       5.066   5.094  17.069  0.00  0.00    +0.000 N 
ATOM      4  C   UNL     1       4.980   5.661  18.411  0.00  0.00    +0.000 C 
ATOM      5  C   UNL     1       6.247   5.483  19.247  0.00  0.00    +0.000 C 
ATOM      6  C   UNL     1       7.598   5.774  18.590  0.00  0.00    +0.000 C 
ATOM      7  N   UNL     1       7.670   6.736  17.495  0.00  0.00    +0.000 NA
ATOM      8  C   UNL     1       7.201   6.149  16.228  0.00  0.00    +0.000 C 
ATOM      9  C   UNL     1       5.689   5.954  16.054  0.00  0.00    +0.000 C 
ENDROOT
BRANCH   1  13
ATOM     10  N   UNL     1       2.009   2.657  19.004  0.00  0.00    +0.000 N 
ATOM     11  N   UNL     1       2.868   1.627  19.097  0.00  0.00    +0.000 NA
ATOM     12  C   UNL     1       3.812   1.929  18.208  0.00  0.00    +0.000 A 
ATOM     13  C   UNL     1       3.611   3.180  17.584  0.00  0.00    +0.000 A 
ATOM     14  C   UNL     1       2.363   3.580  18.052  0.00  0.00    +0.000 A 
ATOM     15  C   UNL     1       1.517   4.753  17.707  0.00  0.00    +0.000 C 
BRANCH  10  17
ATOM     16  C   UNL     1       1.328   2.781  21.368  0.00  0.00    +0.000 C 
ATOM     17  C   UNL     1       0.877   2.702  19.917  0.00  0.00    +0.000 C 
ENDBRANCH  10  17
ENDBRANCH   1  13
BRANCH   7  18
ATOM     18  C   UNL     1       7.143   8.076  17.759  0.00  0.00    +0.000 C 
BRANCH  18  19
ATOM     19  C   UNL     1       8.195   9.185  17.721  0.00  0.00    +0.000 C 
BRANCH  19  20
ATOM     20  C   UNL     1       8.972   9.250  19.034  0.00  0.00    +0.000 C 
BRANCH  20  21
ATOM     21  C   UNL     1       9.610  10.597  19.230  0.00  0.00    +0.000 A 
ATOM     22  C   UNL     1      10.127  11.298  18.134  0.00  0.00    +0.000 A 
ATOM     23  C   UNL     1      10.716  12.548  18.312  0.00  0.00    +0.000 A 
ATOM     24  C   UNL     1      10.793  13.104  19.588  0.00  0.00    +0.000 A 
ATOM     25  C   UNL     1      10.295  12.408  20.687  0.00  0.00    +0.000 A 
ATOM     26  C   UNL     1       9.709  11.156  20.511  0.00  0.00    +0.000 A 
ENDBRANCH  20  21
ENDBRANCH  19  20
ENDBRANCH  18  19
ENDBRANCH   7  18
TORSDOF 6
ENDMDL
MODEL 3
REMARK VINA RESULT:      -7.6      0.679      1.203
REMARK  Name = 
REMARK  8 active torsions:
REMARK  status: ('A' for Active; 'I' for Inactive)
REMARK    1  A    between atoms: C_1  and  C_2
REMARK    2  A    between atoms: C_2  and  N_3
REMARK    3  A    between atoms: C_6  and  C_7
REMARK    4  A    between atoms: N_13  and  C_14
REMARK    5  A    between atoms: C_14  and  C_15
REMARK    6  A    between atoms: C_15  and  C_16
REMARK    7  A    between atoms: C_16  and  C_17
REMARK    8  A    between atoms: C_25  and  C_26
REMARK                            x       y       z     vdW  Elec       q    Type
REMARK                         _______ _______ _______ _____ _____    ______ ____
ROOT
ATOM      1  C   UNL     1       4.332   4.134  16.664  0.00  0.00    +0.000 C 
ATOM      2  O   UNL     1       4.549   3.476  15.650  0.00  0.00    +0.000 OA
ATOM      3  N   UNL     1       5.097   5.266  16.977  0.00  0.00    +0.000 N 
ATOM      4  C   UNL     1       4.889   6.144  18.125  0.00  0.00    +0.000 C 
ATOM      5  C   UNL     1       5.914   5.963  19.245  0.00  0.00    +0.000 C 
ATOM      6  C   UNL     1       7.393   5.860  18.865  0.00  0.00    +0.000 C 
ATOM      7  N   UNL     1       7.867   6.507  17.646  0.00  0.00    +0.000 NA
ATOM      8  C   UNL     1       7.525   5.721  16.448  0.00  0.00    +0.000 C 
ATOM      9  C   UNL     1       6.063   5.743  15.979  0.00  0.00    +0.000 C 
ENDROOT
BRANCH   1  13
ATOM     10  N   UNL     1       1.970   2.975  19.153  0.00  0.00    +0.000 N 
ATOM     11  N   UNL     1       1.066   3.477  18.294  0.00  0.00    +0.000 NA
ATOM     12  C   UNL     1       1.816   4.010  17.331  0.00  0.00    +0.000 A 
ATOM     13  C   UNL     1       3.199   3.801  17.521  0.00  0.00    +0.000 A 
ATOM     14  C   UNL     1       3.269   3.213  18.780  0.00  0.00    +0.000 A 
ATOM     15  C   UNL     1       4.436   2.833  19.621  0.00  0.00    +0.000 C 
BRANCH  10  17
ATOM     16  C   UNL     1       1.502   3.073  21.569  0.00  0.00    +0.000 C 
ATOM     17  C   UNL     1       1.492   2.226  20.305  0.00  0.00    +0.000 C 
ENDBRANCH  10  17
ENDBRANCH   1  13
BRANCH   7  18
ATOM     18  C   UNL     1       7.597   7.939  17.512  0.00  0.00    +0.000 C 
BRANCH  18  19
ATOM     19  C   UNL     1       8.441   8.827  18.428  0.00  0.00    +0.000 C 
BRANCH  19  20
ATOM     20  C   UNL     1       8.444  10.274  17.939  0.00  0.00    +0.000 C 
BRANCH  20  21
ATOM     21  C   UNL     1       9.551  11.067  18.575  0.00  0.00    +0.000 A 
ATOM     22  C   UNL     1       9.729  11.042  19.963  0.00  0.00    +0.000 A 
ATOM     23  C   UNL     1      10.756  11.774  20.555  0.00  0.00    +0.000 A 
ATOM     24  C   UNL     1      11.611  12.537  19.762  0.00  0.00    +0.000 A 
ATOM     25  C   UNL     1      11.433  12.581  18.382  0.00  0.00    +0.000 A 
ATOM     26  C   UNL     1      10.404  11.852  17.788  0.00  0.00    +0.000 A 
ENDBRANCH  20  21
ENDBRANCH  19  20
ENDBRANCH  18  19
ENDBRANCH   7  18
TORSDOF 6
ENDMDL
MODEL 4
REMARK VINA RESULT:      -7.4      0.946      1.346
REMARK  Name = 
REMARK  8 active torsions:
REMARK  status: ('A' for Active; 'I' for Inactive)
REMARK    1  A    between atoms: C_1  and  C_2
REMARK    2  A    between atoms: C_2  and  N_3
REMARK    3  A    between atoms: C_6  and  C_7
REMARK    4  A    between atoms: N_13  and  C_14
REMARK    5  A    between atoms: C_14  and  C_15
REMARK    6  A    between atoms: C_15  and  C_16
REMARK    7  A    between atoms: C_16  and  C_17
REMARK    8  A    between atoms: C_25  and  C_26
REMARK                            x       y       z     vdW  Elec       q    Type
REMARK                         _______ _______ _______ _____ _____    ______ ____
ROOT
ATOM      1  C   UNL     1       4.142   4.086  17.550  0.00  0.00    +0.000 C 
ATOM      2  O   UNL     1       3.735   3.673  16.466  0.00  0.00    +0.000 OA
ATOM      3  N   UNL     1       4.962   5.219  17.638  0.00  0.00    +0.000 N 
ATOM      4  C   UNL     1       5.457   5.819  18.873  0.00  0.00    +0.000 C 
ATOM      5  C   UNL     1       6.935   5.549  19.152  0.00  0.00    +0.000 C 
ATOM      6  C   UNL     1       7.932   5.708  18.001  0.00  0.00    +0.000 C 
ATOM      7  N   UNL     1       7.633   6.637  16.916  0.00  0.00    +0.000 NA
ATOM      8  C   UNL     1       6.659   6.068  15.970  0.00  0.00    +0.000 C 
ATOM      9  C   UNL     1       5.192   6.001  16.416  0.00  0.00    +0.000 C 
ENDROOT
BRANCH   1  13
ATOM     10  N   UNL     1       2.732   3.088  20.733  0.00  0.00    +0.000 N 
ATOM     11  N   UNL     1       3.528   2.018  20.566  0.00  0.00    +0.000 NA
ATOM     12  C   UNL     1       4.077   2.223  19.371  0.00  0.00    +0.000 A 
ATOM     13  C   UNL     1       3.698   3.451  18.786  0.00  0.00    +0.000 A 
ATOM     14  C   UNL     1       2.732   3.942  19.658  0.00  0.00    +0.000 A 
ATOM     15  C   UNL     1       1.857   5.142  19.577  0.00  0.00    +0.000 C 
BRANCH  10  17
ATOM     16  C   UNL     1       1.003   2.137  22.207  0.00  0.00    +0.000 C 
ATOM     17  C   UNL     1       2.029   3.241  21.997  0.00  0.00    +0.000 C 
ENDBRANCH  10  17
ENDBRANCH   1  13
BRANCH   7  18
ATOM     18  C   UNL     1       7.351   8.023  17.295  0.00  0.00    +0.000 C 
BRANCH  18  19
ATOM     19  C   UNL     1       8.443   8.679  18.142  0.00  0.00    +0.000 C 
BRANCH  19  20
ATOM     20  C   UNL     1       8.289  10.198  18.156  0.00  0.00    +0.000 C 
BRANCH  20  21
ATOM     21  C   UNL     1       9.499  10.869  18.742  0.00  0.00    +0.000 A 
ATOM     22  C   UNL     1      10.594  11.183  17.928  0.00  0.00    +0.000 A 
ATOM     23  C   UNL     1      11.716  11.808  18.468  0.00  0.00    +0.000 A 
ATOM     24  C   UNL     1      11.750  12.122  19.825  0.00  0.00    +0.000 A 
ATOM     25  C   UNL     1      10.673  11.800  20.647  0.00  0.00    +0.000 A 
ATOM     26  C   UNL     1       9.551  11.171  20.109  0.00  0.00    +0.000 A 
ENDBRANCH  20  21
ENDBRANCH  19  20
ENDBRANCH  18  19
ENDBRANCH   7  18
TORSDOF 6
ENDMDL
MODEL 5
REMARK VINA RESULT:      -6.8      1.542      1.987
REMARK  Name = 
REMARK  8 active torsions:
REMARK  status: ('A' for Active; 'I' for Inactive)
REMARK    1  A    between atoms: C_1  and  C_2
REMARK    2  A    between atoms: C_2  and  N_3
REMARK    3  A    between atoms: C_6  and  C_7
REMARK    4  A    between atoms: N_13  and  C_14
REMARK    5  A    between atoms: C_14  and  C_15
REMARK    6  A    between atoms: C_15  and  C_16
REMARK    7  A    between atoms: C_16  and  C_17
REMARK    8  A    between atoms: C_25  and  C_26
REMARK                            x       y       z     vdW  Elec       q    Type
REMARK                         _______ _______ _______ _____ _____    ______ ____
ROOT
ATOM      1  C   UNL     1       2.847   5.817  17.823  0.00  0.00    +0.000 C 
ATOM      2  O   UNL     1       2.114   6.579  17.197  0.00  0.00    +0.000 OA
ATOM      3  N   UNL     1       4.209   6.098  18.002  0.00  0.00    +0.000 N 
ATOM      4  C   UNL     1       5.152   5.289  18.768  0.00  0.00    +0.000 C 
ATOM      5  C   UNL     1       6.116   4.471  17.909  0.00  0.00    +0.000 C 
ATOM      6  C   UNL     1       6.790   5.158  16.719  0.00  0.00    +0.000 C 
ATOM      7  N   UNL     1       7.012   6.600  16.754  0.00  0.00    +0.000 NA
ATOM      8  C   UNL     1       5.775   7.345  16.461  0.00  0.00    +0.000 C 
ATOM      9  C   UNL     1       4.707   7.408  17.562  0.00  0.00    +0.000 C 
ENDROOT
BRANCH   1  13
ATOM     10  N   UNL     1       1.512   3.255  20.006  0.00  0.00    +0.000 N 
ATOM     11  N   UNL     1       1.608   2.493  18.903  0.00  0.00    +0.000 NA
ATOM     12  C   UNL     1       2.038   3.345  17.974  0.00  0.00    +0.000 A 
ATOM     13  C   UNL     1       2.287   4.640  18.478  0.00  0.00    +0.000 A 
ATOM     14  C   UNL     1       1.829   4.573  19.790  0.00  0.00    +0.000 A 
ATOM     15  C   UNL     1       1.705   5.619  20.840  0.00  0.00    +0.000 C 
BRANCH  10  17
ATOM     16  C   UNL     1       2.375   2.238  22.077  0.00  0.00    +0.000 C 
ATOM     17  C   UNL     1       1.147   2.617  21.262  0.00  0.00    +0.000 C 
ENDBRANCH  10  17
ENDBRANCH   1  13
BRANCH   7  18
ATOM     18  C   UNL     1       7.762   7.124  17.897  0.00  0.00    +0.000 C 
BRANCH  18  19
ATOM     19  C   UNL     1       8.029   8.629  17.839  0.00  0.00    +0.000 C 
BRANCH  19  20
ATOM     20  C   UNL     1       8.862   9.085  19.034  0.00  0.00    +0.000 C 
BRANCH  20  21
ATOM     21  C   UNL     1       9.317  10.509  18.877  0.00  0.00    +0.000 A 
ATOM     22  C   UNL     1       8.800  11.304  17.847  0.00  0.00    +0.000 A 
ATOM     23  C   UNL     1       9.217  12.625  17.701  0.00  0.00    +0.000 A 
ATOM     24  C   UNL     1      10.154  13.159  18.583  0.00  0.00    +0.000 A 
ATOM     25  C   UNL     1      10.685  12.373  19.602  0.00  0.00    +0.000 A 
ATOM     26  C   UNL     1      10.272  11.049  19.747  0.00  0.00    +0.000 A 
ENDBRANCH  20  21
ENDBRANCH  19  20
ENDBRANCH  18  19
ENDBRANCH   7  18
TORSDOF 6
ENDMDL
MODEL 6
REMARK VINA RESULT:      -6.8      3.982      6.923
REMARK  Name = 
REMARK  8 active torsions:
REMARK  status: ('A' for Active; 'I' for Inactive)
REMARK    1  A    between atoms: C_1  and  C_2
REMARK    2  A    between atoms: C_2  and  N_3
REMARK    3  A    between atoms: C_6  and  C_7
REMARK    4  A    between atoms: N_13  and  C_14
REMARK    5  A    between atoms: C_14  and  C_15
REMARK    6  A    between atoms: C_15  and  C_16
REMARK    7  A    between atoms: C_16  and  C_17
REMARK    8  A    between atoms: C_25  and  C_26
REMARK                            x       y       z     vdW  Elec       q    Type
REMARK                         _______ _______ _______ _____ _____    ______ ____
ROOT
ATOM      1  C   UNL     1       5.842   4.491  19.184  0.00  0.00    +0.000 C 
ATOM      2  O   UNL     1       6.599   5.061  19.966  0.00  0.00    +0.000 OA
ATOM      3  N   UNL     1       6.130   4.414  17.815  0.00  0.00    +0.000 N 
ATOM      4  C   UNL     1       5.327   3.719  16.813  0.00  0.00    +0.000 C 
ATOM      5  C   UNL     1       4.513   4.646  15.911  0.00  0.00    +0.000 C 
ATOM      6  C   UNL     1       5.201   5.884  15.332  0.00  0.00    +0.000 C 
ATOM      7  N   UNL     1       6.644   5.868  15.116  0.00  0.00    +0.000 NA
ATOM      8  C   UNL     1       7.382   6.069  16.374  0.00  0.00    +0.000 C 
ATOM      9  C   UNL     1       7.441   4.892  17.358  0.00  0.00    +0.000 C 
ENDROOT
BRANCH   1  13
ATOM     10  N   UNL     1       2.646   3.367  20.466  0.00  0.00    +0.000 N 
ATOM     11  N   UNL     1       3.289   2.192  20.582  0.00  0.00    +0.000 NA
ATOM     12  C   UNL     1       4.493   2.446  20.072  0.00  0.00    +0.000 A 
ATOM     13  C   UNL     1       4.664   3.793  19.688  0.00  0.00    +0.000 A 
ATOM     14  C   UNL     1       3.397   4.343  19.860  0.00  0.00    +0.000 A 
ATOM     15  C   UNL     1       2.864   5.695  19.542  0.00  0.00    +0.000 C 
BRANCH  10  17
ATOM     16  C   UNL     1       1.078   2.498  22.155  0.00  0.00    +0.000 C 
ATOM     17  C   UNL     1       1.305   3.482  21.016  0.00  0.00    +0.000 C 
ENDBRANCH  10  17
ENDBRANCH   1  13
BRANCH   7  18
ATOM     18  C   UNL     1       7.174   4.785  14.285  0.00  0.00    +0.000 C 
BRANCH  18  19
ATOM     19  C   UNL     1       8.120   5.247  13.175  0.00  0.00    +0.000 C 
BRANCH  19  20
ATOM     20  C   UNL     1       7.461   5.121  11.804  0.00  0.00    +0.000 C 
BRANCH  20  21
ATOM     21  C   UNL     1       6.879   3.750  11.597  0.00  0.00    +0.000 A 
ATOM     22  C   UNL     1       5.508   3.532  11.782  0.00  0.00    +0.000 A 
ATOM     23  C   UNL     1       4.965   2.264  11.587  0.00  0.00    +0.000 A 
ATOM     24  C   UNL     1       5.790   1.206  11.208  0.00  0.00    +0.000 A 
ATOM     25  C   UNL     1       7.156   1.409  11.036  0.00  0.00    +0.000 A 
ATOM     26  C   UNL     1       7.702   2.677  11.234  0.00  0.00    +0.000 A 
ENDBRANCH  20  21
ENDBRANCH  19  20
ENDBRANCH  18  19
ENDBRANCH   7  18
TORSDOF 6
ENDMDL
MODEL 7
REMARK VINA RESULT:      -6.5      4.810      8.708
REMARK  Name = 
REMARK  8 active torsions:
REMARK  status: ('A' for Active; 'I' for Inactive)
REMARK    1  A    between atoms: C_1  and  C_2
REMARK    2  A    between atoms: C_2  and  N_3
REMARK    3  A    between atoms: C_6  and  C_7
REMARK    4  A    between atoms: N_13  and  C_14
REMARK    5  A    between atoms: C_14  and  C_15
REMARK    6  A    between atoms: C_15  and  C_16
REMARK    7  A    between atoms: C_16  and  C_17
REMARK    8  A    between atoms: C_25  and  C_26
REMARK                            x       y       z     vdW  Elec       q    Type
REMARK                         _______ _______ _______ _____ _____    ______ ____
ROOT
ATOM      1  C   UNL     1       1.584   8.466  20.455  0.00  0.00    +0.000 C 
ATOM      2  O   UNL     1       1.681   8.233  21.657  0.00  0.00    +0.000 OA
ATOM      3  N   UNL     1       1.977   7.523  19.495  0.00  0.00    +0.000 N 
ATOM      4  C   UNL     1       1.857   7.679  18.049  0.00  0.00    +0.000 C 
ATOM      5  C   UNL     1       3.179   7.968  17.338  0.00  0.00    +0.000 C 
ATOM      6  C   UNL     1       4.406   7.137  17.723  0.00  0.00    +0.000 C 
ATOM      7  N   UNL     1       4.224   5.783  18.235  0.00  0.00    +0.000 NA
ATOM      8  C   UNL     1       3.810   5.791  19.649  0.00  0.00    +0.000 C 
ATOM      9  C   UNL     1       2.359   6.183  19.960  0.00  0.00    +0.000 C 
ENDROOT
BRANCH   1  13
ATOM     10  N   UNL     1      -0.386  11.439  19.824  0.00  0.00    +0.000 N 
ATOM     11  N   UNL     1       0.364  11.502  18.710  0.00  0.00    +0.000 NA
ATOM     12  C   UNL     1       1.203  10.476  18.842  0.00  0.00    +0.000 A 
ATOM     13  C   UNL     1       0.962   9.705  20.000  0.00  0.00    +0.000 A 
ATOM     14  C   UNL     1      -0.016  10.428  20.675  0.00  0.00    +0.000 A 
ATOM     15  C   UNL     1      -0.640  10.222  22.010  0.00  0.00    +0.000 C 
BRANCH  10  17
ATOM     16  C   UNL     1      -2.682  11.982  19.117  0.00  0.00    +0.000 C 
ATOM     17  C   UNL     1      -1.488  12.377  19.974  0.00  0.00    +0.000 C 
ENDBRANCH  10  17
ENDBRANCH   1  13
BRANCH   7  18
ATOM     18  C   UNL     1       3.457   4.859  17.398  0.00  0.00    +0.000 C 
BRANCH  18  19
ATOM     19  C   UNL     1       4.082   3.470  17.259  0.00  0.00    +0.000 C 
BRANCH  19  20
ATOM     20  C   UNL     1       3.065   2.376  17.578  0.00  0.00    +0.000 C 
BRANCH  20  21
ATOM     21  C   UNL     1       2.493   2.542  18.957  0.00  0.00    +0.000 A 
ATOM     22  C   UNL     1       3.312   2.394  20.083  0.00  0.00    +0.000 A 
ATOM     23  C   UNL     1       2.786   2.550  21.363  0.00  0.00    +0.000 A 
ATOM     24  C   UNL     1       1.436   2.854  21.526  0.00  0.00    +0.000 A 
ATOM     25  C   UNL     1       0.608   2.989  20.414  0.00  0.00    +0.000 A 
ATOM     26  C   UNL     1       1.133   2.830  19.133  0.00  0.00    +0.000 A 
ENDBRANCH  20  21
ENDBRANCH  19  20
ENDBRANCH  18  19
ENDBRANCH   7  18
TORSDOF 6
ENDMDL
MODEL 8
REMARK VINA RESULT:      -6.5      7.664      9.842
REMARK  Name = 
REMARK  8 active torsions:
REMARK  status: ('A' for Active; 'I' for Inactive)
REMARK    1  A    between atoms: C_1  and  C_2
REMARK    2  A    between atoms: C_2  and  N_3
REMARK    3  A    between atoms: C_6  and  C_7
REMARK    4  A    between atoms: N_13  and  C_14
REMARK    5  A    between atoms: C_14  and  C_15
REMARK    6  A    between atoms: C_15  and  C_16
REMARK    7  A    between atoms: C_16  and  C_17
REMARK    8  A    between atoms: C_25  and  C_26
REMARK                            x       y       z     vdW  Elec       q    Type
REMARK                         _______ _______ _______ _____ _____    ______ ____
ROOT
ATOM      1  C   UNL     1       5.625  16.875  19.811  0.00  0.00    +0.000 C 
ATOM      2  O   UNL     1       5.384  18.079  19.776  0.00  0.00    +0.000 OA
ATOM      3  N   UNL     1       6.941  16.393  19.788  0.00  0.00    +0.000 N 
ATOM      4  C   UNL     1       7.337  14.991  19.877  0.00  0.00    +0.000 C 
ATOM      5  C   UNL     1       7.798  14.385  18.551  0.00  0.00    +0.000 C 
ATOM      6  C   UNL     1       8.759  15.195  17.678  0.00  0.00    +0.000 C 
ATOM      7  N   UNL     1       9.663  16.154  18.306  0.00  0.00    +0.000 NA
ATOM      8  C   UNL     1       8.966  17.401  18.662  0.00  0.00    +0.000 C 
ATOM      9  C   UNL     1       8.035  17.369  19.882  0.00  0.00    +0.000 C 
ENDROOT
BRANCH   1  13
ATOM     10  N   UNL     1       2.807  14.612  19.576  0.00  0.00    +0.000 N 
ATOM     11  N   UNL     1       2.941  14.564  20.913  0.00  0.00    +0.000 NA
ATOM     12  C   UNL     1       4.012  15.322  21.144  0.00  0.00    +0.000 A 
ATOM     13  C   UNL     1       4.537  15.918  19.976  0.00  0.00    +0.000 A 
ATOM     14  C   UNL     1       3.787  15.345  18.954  0.00  0.00    +0.000 A 
ATOM     15  C   UNL     1       3.896  15.461  17.475  0.00  0.00    +0.000 C 
BRANCH  10  17
ATOM     16  C   UNL     1       1.948  12.490  18.668  0.00  0.00    +0.000 C 
ATOM     17  C   UNL     1       1.660  13.954  18.969  0.00  0.00    +0.000 C 
ENDBRANCH  10  17
ENDBRANCH   1  13
BRANCH   7  18
ATOM     18  C   UNL     1      10.538  15.641  19.362  0.00  0.00    +0.000 C 
BRANCH  18  19
ATOM     19  C   UNL     1      11.767  14.888  18.850  0.00  0.00    +0.000 C 
BRANCH  19  20
ATOM     20  C   UNL     1      12.086  13.689  19.740  0.00  0.00    +0.000 C 
BRANCH  20  21
ATOM     21  C   UNL     1      11.097  12.575  19.538  0.00  0.00    +0.000 A 
ATOM     22  C   UNL     1      10.451  11.998  20.638  0.00  0.00    +0.000 A 
ATOM     23  C   UNL     1       9.532  10.968  20.453  0.00  0.00    +0.000 A 
ATOM     24  C   UNL     1       9.254  10.507  19.168  0.00  0.00    +0.000 A 
ATOM     25  C   UNL     1       9.902  11.064  18.068  0.00  0.00    +0.000 A 
ATOM     26  C   UNL     1      10.824  12.093  18.251  0.00  0.00    +0.000 A 
ENDBRANCH  20  21
ENDBRANCH  19  20
ENDBRANCH  18  19
ENDBRANCH   7  18
TORSDOF 6
ENDMDL
MODEL 9
REMARK VINA RESULT:      -6.4      8.020     10.818
REMARK  Name = 
REMARK  8 active torsions:
REMARK  status: ('A' for Active; 'I' for Inactive)
REMARK    1  A    between atoms: C_1  and  C_2
REMARK    2  A    between atoms: C_2  and  N_3
REMARK    3  A    between atoms: C_6  and  C_7
REMARK    4  A    between atoms: N_13  and  C_14
REMARK    5  A    between atoms: C_14  and  C_15
REMARK    6  A    between atoms: C_15  and  C_16
REMARK    7  A    between atoms: C_16  and  C_17
REMARK    8  A    between atoms: C_25  and  C_26
REMARK                            x       y       z     vdW  Elec       q    Type
REMARK                         _______ _______ _______ _____ _____    ______ ____
ROOT
ATOM      1  C   UNL     1      -0.171  13.492  20.208  0.00  0.00    +0.000 C 
ATOM      2  O   UNL     1      -0.621  14.077  19.225  0.00  0.00    +0.000 OA
ATOM      3  N   UNL     1       0.470  12.251  20.088  0.00  0.00    +0.000 N 
ATOM      4  C   UNL     1       1.081  11.500  21.180  0.00  0.00    +0.000 C 
ATOM      5  C   UNL     1       0.269  10.287  21.636  0.00  0.00    +0.000 C 
ATOM      6  C   UNL     1      -0.320   9.364  20.567  0.00  0.00    +0.000 C 
ATOM      7  N   UNL     1       0.340   9.255  19.270  0.00  0.00    +0.000 NA
ATOM      8  C   UNL     1       0.038  10.412  18.411  0.00  0.00    +0.000 C 
ATOM      9  C   UNL     1       0.736  11.740  18.738  0.00  0.00    +0.000 C 
ENDROOT
BRANCH   1  13
ATOM     10  N   UNL     1      -0.874  14.792  23.515  0.00  0.00    +0.000 N 
ATOM     11  N   UNL     1       0.239  15.511  23.292  0.00  0.00    +0.000 NA
ATOM     12  C   UNL     1       0.656  15.078  22.103  0.00  0.00    +0.000 A 
ATOM     13  C   UNL     1      -0.213  14.130  21.519  0.00  0.00    +0.000 A 
ATOM     14  C   UNL     1      -1.149  13.887  22.520  0.00  0.00    +0.000 A 
ATOM     15  C   UNL     1      -2.275  12.918  22.593  0.00  0.00    +0.000 C 
BRANCH  10  17
ATOM     16  C   UNL     1      -0.934  16.036  25.639  0.00  0.00    +0.000 C 
ATOM     17  C   UNL     1      -1.657  15.074  24.708  0.00  0.00    +0.000 C 
ENDBRANCH  10  17
ENDBRANCH   1  13
BRANCH   7  18
ATOM     18  C   UNL     1       1.755   8.878  19.280  0.00  0.00    +0.000 C 
BRANCH  18  19
ATOM     19  C   UNL     1       2.175   7.981  18.114  0.00  0.00    +0.000 C 
BRANCH  19  20
ATOM     20  C   UNL     1       3.101   6.864  18.588  0.00  0.00    +0.000 C 
BRANCH  20  21
ATOM     21  C   UNL     1       2.329   5.627  18.954  0.00  0.00    +0.000 A 
ATOM     22  C   UNL     1       1.970   4.703  17.965  0.00  0.00    +0.000 A 
ATOM     23  C   UNL     1       1.258   3.554  18.302  0.00  0.00    +0.000 A 
ATOM     24  C   UNL     1       0.899   3.323  19.628  0.00  0.00    +0.000 A 
ATOM     25  C   UNL     1       1.238   4.243  20.617  0.00  0.00    +0.000 A 
ATOM     26  C   UNL     1       1.948   5.395  20.281  0.00  0.00    +0.000 A 
ENDBRANCH  20  21
ENDBRANCH  19  20
ENDBRANCH  18  19
ENDBRANCH   7  18
TORSDOF 6
ENDMDL
