MODEL 1
REMARK VINA RESULT:      -7.3      0.000      0.000
REMARK  Name = 
REMARK  9 active torsions:
REMARK  status: ('A' for Active; 'I' for Inactive)
REMARK    1  A    between atoms: C_2  and  C_3
REMARK    2  A    between atoms: C_3  and  O_4
REMARK    3  A    between atoms: O_4  and  C_5
REMARK    4  A    between atoms: C_5  and  C_7
REMARK    5  A    between atoms: C_7  and  C_8
REMARK    6  A    between atoms: C_8  and  C_9
REMARK    7  A    between atoms: C_9  and  C_11
REMARK    8  A    between atoms: N_16  and  C_17
REMARK    9  A    between atoms: C_22  and  N_23
REMARK                            x       y       z     vdW  Elec       q    Type
REMARK                         _______ _______ _______ _____ _____    ______ ____
ROOT
ATOM      1  O   UNL     1       4.394   4.800  16.657  0.00  0.00    +0.000 OA
ATOM      2  C   UNL     1       5.148   5.185  17.551  0.00  0.00    +0.000 C 
ATOM      3  N   UNL     1       4.803   5.340  18.887  0.00  0.00    +0.000 N 
ATOM      4  H   UNL     1       5.467   5.841  19.481  0.00  0.00    +0.000 HD
ENDROOT
BRANCH   3   5
ATOM      5  C   UNL     1       3.590   4.917  19.503  0.00  0.00    +0.000 A 
ATOM      6  C   UNL     1       2.666   5.869  19.962  0.00  0.00    +0.000 A 
ATOM      7  C   UNL     1       1.423   5.502  20.489  0.00  0.00    +0.000 A 
ATOM      8  C   UNL     1       1.053   4.166  20.547  0.00  0.00    +0.000 A 
ATOM      9  C   UNL     1       1.948   3.191  20.119  0.00  0.00    +0.000 A 
ATOM     10  C   UNL     1       3.219   3.557  19.620  0.00  0.00    +0.000 A 
BRANCH  10  11
ATOM     11  N   UNL     1       4.161   2.463  19.328  0.00  0.00    +0.000 N 
ATOM     12  O   UNL     1       3.885   1.675  18.412  0.00  0.00    +0.000 OA
ATOM     13  O   UNL     1       5.206   2.405  19.997  0.00  0.00    +0.000 OA
ENDBRANCH  10  11
ENDBRANCH   3   5
BRANCH   2  14
ATOM     14  C   UNL     1       6.589   5.575  17.212  0.00  0.00    +0.000 C 
BRANCH  14  15
ATOM     15  O   UNL     1       6.769   6.984  17.069  0.00  0.00    +0.000 OA
BRANCH  15  16
ATOM     16  C   UNL     1       7.709   7.517  17.887  0.00  0.00    +0.000 C 
ATOM     17  O   UNL     1       8.138   6.974  18.902  0.00  0.00    +0.000 OA
BRANCH  16  18
ATOM     18  C   UNL     1       8.125   8.885  17.414  0.00  0.00    +0.000 C 
BRANCH  18  19
ATOM     19  C   UNL     1       8.892   9.624  18.504  0.00  0.00    +0.000 C 
BRANCH  19  20
ATOM     20  C   UNL     1       9.073  11.103  18.171  0.00  0.00    +0.000 C 
ATOM     21  O   UNL     1       8.173  11.721  17.601  0.00  0.00    +0.000 OA
BRANCH  20  22
ATOM     22  C   UNL     1      10.332  11.711  18.585  0.00  0.00    +0.000 A 
ATOM     23  C   UNL     1      11.229  11.313  19.561  0.00  0.00    +0.000 A 
ATOM     24  C   UNL     1      12.333  12.208  19.686  0.00  0.00    +0.000 A 
ATOM     25  C   UNL     1      12.251  13.254  18.795  0.00  0.00    +0.000 A 
ATOM     26  S   UNL     1      10.861  13.148  17.809  0.00  0.00    +0.000 S 
ENDBRANCH  20  22
ENDBRANCH  19  20
ENDBRANCH  18  19
ENDBRANCH  16  18
ENDBRANCH  15  16
ENDBRANCH  14  15
ENDBRANCH   2  14
TORSDOF 9
ENDMDL
MODEL 2
REMARK VINA RESULT:      -7.2      4.788      7.351
REMARK  Name = 
REMARK  9 active torsions:
REMARK  status: ('A' for Active; 'I' for Inactive)
REMARK    1  A    between atoms: C_2  and  C_3
REMARK    2  A    between atoms: C_3  and  O_4
REMARK    3  A    between atoms: O_4  and  C_5
REMARK    4  A    between atoms: C_5  and  C_7
REMARK    5  A    between atoms: C_7  and  C_8
REMARK    6  A    between atoms: C_8  and  C_9
REMARK    7  A    between atoms: C_9  and  C_11
REMARK    8  A    between atoms: N_16  and  C_17
REMARK    9  A    between atoms: C_22  and  N_23
REMARK                            x       y       z     vdW  Elec       q    Type
REMARK                         _______ _______ _______ _____ _____    ______ ____
ROOT
ATOM      1  O   UNL     1       4.146   1.747  17.630  0.00  0.00    +0.000 OA
ATOM      2  C   UNL     1       3.652   2.838  17.914  0.00  0.00    +0.000 C 
ATOM      3  N   UNL     1       4.121   4.073  17.488  0.00  0.00    +0.000 N 
ATOM      4  H   UNL     1       3.731   4.899  17.946  0.00  0.00    +0.000 HD
ENDROOT
BRANCH   3   5
ATOM      5  C   UNL     1       5.132   4.303  16.511  0.00  0.00    +0.000 A 
ATOM      6  C   UNL     1       4.929   3.901  15.181  0.00  0.00    +0.000 A 
ATOM      7  C   UNL     1       5.852   4.188  14.170  0.00  0.00    +0.000 A 
ATOM      8  C   UNL     1       7.000   4.914  14.454  0.00  0.00    +0.000 A 
ATOM      9  C   UNL     1       7.248   5.314  15.764  0.00  0.00    +0.000 A 
ATOM     10  C   UNL     1       6.334   4.994  16.794  0.00  0.00    +0.000 A 
BRANCH  10  11
ATOM     11  N   UNL     1       6.740   5.323  18.170  0.00  0.00    +0.000 N 
ATOM     12  O   UNL     1       7.093   6.485  18.421  0.00  0.00    +0.000 OA
ATOM     13  O   UNL     1       6.677   4.422  19.023  0.00  0.00    +0.000 OA
ENDBRANCH  10  11
ENDBRANCH   3   5
BRANCH   2  14
ATOM     14  C   UNL     1       2.435   2.900  18.842  0.00  0.00    +0.000 C 
BRANCH  14  15
ATOM     15  O   UNL     1       2.767   2.691  20.214  0.00  0.00    +0.000 OA
BRANCH  15  16
ATOM     16  C   UNL     1       2.016   3.401  21.090  0.00  0.00    +0.000 C 
ATOM     17  O   UNL     1       1.917   3.149  22.288  0.00  0.00    +0.000 OA
BRANCH  16  18
ATOM     18  C   UNL     1       1.279   4.515  20.391  0.00  0.00    +0.000 C 
BRANCH  18  19
ATOM     19  C   UNL     1       1.739   5.874  20.908  0.00  0.00    +0.000 C 
BRANCH  19  20
ATOM     20  C   UNL     1       2.504   6.658  19.845  0.00  0.00    +0.000 C 
ATOM     21  O   UNL     1       3.531   6.189  19.352  0.00  0.00    +0.000 OA
BRANCH  20  22
ATOM     22  C   UNL     1       1.935   7.942  19.453  0.00  0.00    +0.000 A 
ATOM     23  C   UNL     1       1.116   8.803  20.163  0.00  0.00    +0.000 A 
ATOM     24  C   UNL     1       0.742   9.952  19.406  0.00  0.00    +0.000 A 
ATOM     25  C   UNL     1       1.296   9.939  18.146  0.00  0.00    +0.000 A 
ATOM     26  S   UNL     1       2.267   8.560  17.886  0.00  0.00    +0.000 S 
ENDBRANCH  20  22
ENDBRANCH  19  20
ENDBRANCH  18  19
ENDBRANCH  16  18
ENDBRANCH  15  16
ENDBRANCH  14  15
ENDBRANCH   2  14
TORSDOF 9
ENDMDL
MODEL 3
REMARK VINA RESULT:      -7.2      2.811      4.192
REMARK  Name = 
REMARK  9 active torsions:
REMARK  status: ('A' for Active; 'I' for Inactive)
REMARK    1  A    between atoms: C_2  and  C_3
REMARK    2  A    between atoms: C_3  and  O_4
REMARK    3  A    between atoms: O_4  and  C_5
REMARK    4  A    between atoms: C_5  and  C_7
REMARK    5  A    between atoms: C_7  and  C_8
REMARK    6  A    between atoms: C_8  and  C_9
REMARK    7  A    between atoms: C_9  and  C_11
REMARK    8  A    between atoms: N_16  and  C_17
REMARK    9  A    between atoms: C_22  and  N_23
REMARK                            x       y       z     vdW  Elec       q    Type
REMARK                         _______ _______ _______ _____ _____    ______ ____
ROOT
ATOM      1  O   UNL     1       8.119   6.790  18.714  0.00  0.00    +0.000 OA
ATOM      2  C   UNL     1       7.624   7.650  17.985  0.00  0.00    +0.000 C 
ATOM      3  N   UNL     1       6.512   7.478  17.173  0.00  0.00    +0.000 N 
ATOM      4  H   UNL     1       6.323   8.211  16.486  0.00  0.00    +0.000 HD
ENDROOT
BRANCH   3   5
ATOM      5  C   UNL     1       5.634   6.356  17.165  0.00  0.00    +0.000 A 
ATOM      6  C   UNL     1       4.362   6.454  17.751  0.00  0.00    +0.000 A 
ATOM      7  C   UNL     1       3.432   5.411  17.687  0.00  0.00    +0.000 A 
ATOM      8  C   UNL     1       3.738   4.240  17.008  0.00  0.00    +0.000 A 
ATOM      9  C   UNL     1       4.996   4.096  16.430  0.00  0.00    +0.000 A 
ATOM     10  C   UNL     1       5.950   5.135  16.524  0.00  0.00    +0.000 A 
BRANCH  10  11
ATOM     11  N   UNL     1       7.302   4.846  16.018  0.00  0.00    +0.000 N 
ATOM     12  O   UNL     1       8.058   4.151  16.713  0.00  0.00    +0.000 OA
ATOM     13  O   UNL     1       7.608   5.290  14.898  0.00  0.00    +0.000 OA
ENDBRANCH  10  11
ENDBRANCH   3   5
BRANCH   2  14
ATOM     14  C   UNL     1       8.273   9.034  17.899  0.00  0.00    +0.000 C 
BRANCH  14  15
ATOM     15  O   UNL     1       9.124   9.323  19.008  0.00  0.00    +0.000 OA
BRANCH  15  16
ATOM     16  C   UNL     1       9.336  10.644  19.225  0.00  0.00    +0.000 C 
ATOM     17  O   UNL     1       9.222  11.198  20.315  0.00  0.00    +0.000 OA
BRANCH  16  18
ATOM     18  C   UNL     1       9.688  11.353  17.942  0.00  0.00    +0.000 C 
BRANCH  18  19
ATOM     19  C   UNL     1       9.747  12.861  18.157  0.00  0.00    +0.000 C 
BRANCH  19  20
ATOM     20  C   UNL     1      11.085  13.447  17.712  0.00  0.00    +0.000 C 
ATOM     21  O   UNL     1      11.973  12.705  17.291  0.00  0.00    +0.000 OA
BRANCH  20  22
ATOM     22  C   UNL     1      11.216  14.897  17.794  0.00  0.00    +0.000 A 
ATOM     23  C   UNL     1      11.046  15.859  16.814  0.00  0.00    +0.000 A 
ATOM     24  C   UNL     1      11.305  17.178  17.292  0.00  0.00    +0.000 A 
ATOM     25  C   UNL     1      11.652  17.183  18.624  0.00  0.00    +0.000 A 
ATOM     26  S   UNL     1      11.653  15.613  19.292  0.00  0.00    +0.000 S 
ENDBRANCH  20  22
ENDBRANCH  19  20
ENDBRANCH  18  19
ENDBRANCH  16  18
ENDBRANCH  15  16
ENDBRANCH  14  15
ENDBRANCH   2  14
TORSDOF 9
ENDMDL
MODEL 4
REMARK VINA RESULT:      -7.2      1.321      1.448
REMARK  Name = 
REMARK  9 active torsions:
REMARK  status: ('A' for Active; 'I' for Inactive)
REMARK    1  A    between atoms: C_2  and  C_3
REMARK    2  A    between atoms: C_3  and  O_4
REMARK    3  A    between atoms: O_4  and  C_5
REMARK    4  A    between atoms: C_5  and  C_7
REMARK    5  A    between atoms: C_7  and  C_8
REMARK    6  A    between atoms: C_8  and  C_9
REMARK    7  A    between atoms: C_9  and  C_11
REMARK    8  A    between atoms: N_16  and  C_17
REMARK    9  A    between atoms: C_22  and  N_23
REMARK                            x       y       z     vdW  Elec       q    Type
REMARK                         _______ _______ _______ _____ _____    ______ ____
ROOT
ATOM      1  O   UNL     1       6.249   4.672  19.542  0.00  0.00    +0.000 OA
ATOM      2  C   UNL     1       5.717   4.900  18.455  0.00  0.00    +0.000 C 
ATOM      3  N   UNL     1       4.369   4.743  18.167  0.00  0.00    +0.000 N 
ATOM      4  H   UNL     1       4.098   4.790  17.182  0.00  0.00    +0.000 HD
ENDROOT
BRANCH   3   5
ATOM      5  C   UNL     1       3.329   4.472  19.101  0.00  0.00    +0.000 A 
ATOM      6  C   UNL     1       2.485   5.508  19.533  0.00  0.00    +0.000 A 
ATOM      7  C   UNL     1       1.394   5.273  20.377  0.00  0.00    +0.000 A 
ATOM      8  C   UNL     1       1.097   3.984  20.796  0.00  0.00    +0.000 A 
ATOM      9  C   UNL     1       1.921   2.933  20.406  0.00  0.00    +0.000 A 
ATOM     10  C   UNL     1       3.044   3.173  19.582  0.00  0.00    +0.000 A 
BRANCH  10  11
ATOM     11  N   UNL     1       3.946   2.035  19.338  0.00  0.00    +0.000 N 
ATOM     12  O   UNL     1       3.817   1.394  18.285  0.00  0.00    +0.000 OA
ATOM     13  O   UNL     1       4.818   1.794  20.190  0.00  0.00    +0.000 OA
ENDBRANCH  10  11
ENDBRANCH   3   5
BRANCH   2  14
ATOM     14  C   UNL     1       6.576   5.363  17.274  0.00  0.00    +0.000 C 
BRANCH  14  15
ATOM     15  O   UNL     1       7.663   6.200  17.667  0.00  0.00    +0.000 OA
BRANCH  15  16
ATOM     16  C   UNL     1       7.389   7.526  17.644  0.00  0.00    +0.000 C 
ATOM     17  O   UNL     1       6.343   8.014  17.224  0.00  0.00    +0.000 OA
BRANCH  16  18
ATOM     18  C   UNL     1       8.555   8.329  18.158  0.00  0.00    +0.000 C 
BRANCH  18  19
ATOM     19  C   UNL     1       8.256   9.822  18.091  0.00  0.00    +0.000 C 
BRANCH  19  20
ATOM     20  C   UNL     1       9.197  10.633  18.978  0.00  0.00    +0.000 C 
ATOM     21  O   UNL     1       9.206  10.450  20.196  0.00  0.00    +0.000 OA
BRANCH  20  22
ATOM     22  C   UNL     1      10.069  11.584  18.299  0.00  0.00    +0.000 A 
ATOM     23  C   UNL     1      11.414  11.487  17.988  0.00  0.00    +0.000 A 
ATOM     24  C   UNL     1      11.912  12.660  17.346  0.00  0.00    +0.000 A 
ATOM     25  C   UNL     1      10.931  13.610  17.178  0.00  0.00    +0.000 A 
ATOM     26  S   UNL     1       9.421  13.085  17.777  0.00  0.00    +0.000 S 
ENDBRANCH  20  22
ENDBRANCH  19  20
ENDBRANCH  18  19
ENDBRANCH  16  18
ENDBRANCH  15  16
ENDBRANCH  14  15
ENDBRANCH   2  14
TORSDOF 9
ENDMDL
MODEL 5
REMARK VINA RESULT:      -7.2      1.691      1.814
REMARK  Name = 
REMARK  9 active torsions:
REMARK  status: ('A' for Active; 'I' for Inactive)
REMARK    1  A    between atoms: C_2  and  C_3
REMARK    2  A    between atoms: C_3  and  O_4
REMARK    3  A    between atoms: O_4  and  C_5
REMARK    4  A    between atoms: C_5  and  C_7
REMARK    5  A    between atoms: C_7  and  C_8
REMARK    6  A    between atoms: C_8  and  C_9
REMARK    7  A    between atoms: C_9  and  C_11
REMARK    8  A    between atoms: N_16  and  C_17
REMARK    9  A    between atoms: C_22  and  N_23
REMARK                            x       y       z     vdW  Elec       q    Type
REMARK                         _______ _______ _______ _____ _____    ______ ____
ROOT
ATOM      1  O   UNL     1       5.677   3.637  16.103  0.00  0.00    +0.000 OA
ATOM      2  C   UNL     1       5.934   4.283  17.119  0.00  0.00    +0.000 C 
ATOM      3  N   UNL     1       5.026   4.622  18.112  0.00  0.00    +0.000 N 
ATOM      4  H   UNL     1       5.332   5.314  18.801  0.00  0.00    +0.000 HD
ENDROOT
BRANCH   3   5
ATOM      5  C   UNL     1       3.692   4.142  18.239  0.00  0.00    +0.000 A 
ATOM      6  C   UNL     1       2.618   4.924  17.784  0.00  0.00    +0.000 A 
ATOM      7  C   UNL     1       1.299   4.456  17.802  0.00  0.00    +0.000 A 
ATOM      8  C   UNL     1       1.016   3.176  18.254  0.00  0.00    +0.000 A 
ATOM      9  C   UNL     1       2.050   2.376  18.731  0.00  0.00    +0.000 A 
ATOM     10  C   UNL     1       3.379   2.860  18.747  0.00  0.00    +0.000 A 
BRANCH  10  11
ATOM     11  N   UNL     1       4.388   2.012  19.402  0.00  0.00    +0.000 N 
ATOM     12  O   UNL     1       4.428   0.808  19.111  0.00  0.00    +0.000 OA
ATOM     13  O   UNL     1       5.175   2.557  20.195  0.00  0.00    +0.000 OA
ENDBRANCH  10  11
ENDBRANCH   3   5
BRANCH   2  14
ATOM     14  C   UNL     1       7.354   4.814  17.339  0.00  0.00    +0.000 C 
BRANCH  14  15
ATOM     15  O   UNL     1       7.586   6.071  16.705  0.00  0.00    +0.000 OA
BRANCH  15  16
ATOM     16  C   UNL     1       7.079   7.138  17.368  0.00  0.00    +0.000 C 
ATOM     17  O   UNL     1       5.903   7.489  17.326  0.00  0.00    +0.000 OA
BRANCH  16  18
ATOM     18  C   UNL     1       8.157   7.866  18.128  0.00  0.00    +0.000 C 
BRANCH  18  19
ATOM     19  C   UNL     1       8.196   9.338  17.736  0.00  0.00    +0.000 C 
BRANCH  19  20
ATOM     20  C   UNL     1       9.050  10.161  18.697  0.00  0.00    +0.000 C 
ATOM     21  O   UNL     1       9.185   9.799  19.866  0.00  0.00    +0.000 OA
BRANCH  20  22
ATOM     22  C   UNL     1       9.689  11.349  18.141  0.00  0.00    +0.000 A 
ATOM     23  C   UNL     1      11.011  11.562  17.793  0.00  0.00    +0.000 A 
ATOM     24  C   UNL     1      11.243  12.886  17.313  0.00  0.00    +0.000 A 
ATOM     25  C   UNL     1      10.090  13.637  17.300  0.00  0.00    +0.000 A 
ATOM     26  S   UNL     1       8.739  12.749  17.848  0.00  0.00    +0.000 S 
ENDBRANCH  20  22
ENDBRANCH  19  20
ENDBRANCH  18  19
ENDBRANCH  16  18
ENDBRANCH  15  16
ENDBRANCH  14  15
ENDBRANCH   2  14
TORSDOF 9
ENDMDL
MODEL 6
REMARK VINA RESULT:      -7.1      4.501      6.778
REMARK  Name = 
REMARK  9 active torsions:
REMARK  status: ('A' for Active; 'I' for Inactive)
REMARK    1  A    between atoms: C_2  and  C_3
REMARK    2  A    between atoms: C_3  and  O_4
REMARK    3  A    between atoms: O_4  and  C_5
REMARK    4  A    between atoms: C_5  and  C_7
REMARK    5  A    between atoms: C_7  and  C_8
REMARK    6  A    between atoms: C_8  and  C_9
REMARK    7  A    between atoms: C_9  and  C_11
REMARK    8  A    between atoms: N_16  and  C_17
REMARK    9  A    between atoms: C_22  and  N_23
REMARK                            x       y       z     vdW  Elec       q    Type
REMARK                         _______ _______ _______ _____ _____    ______ ____
ROOT
ATOM      1  O   UNL     1       6.439   5.127  20.074  0.00  0.00    +0.000 OA
ATOM      2  C   UNL     1       6.003   5.648  19.047  0.00  0.00    +0.000 C 
ATOM      3  N   UNL     1       4.680   5.625  18.628  0.00  0.00    +0.000 N 
ATOM      4  H   UNL     1       4.492   5.934  17.671  0.00  0.00    +0.000 HD
ENDROOT
BRANCH   3   5
ATOM      5  C   UNL     1       3.562   5.164  19.380  0.00  0.00    +0.000 A 
ATOM      6  C   UNL     1       2.702   6.087  19.997  0.00  0.00    +0.000 A 
ATOM      7  C   UNL     1       1.541   5.686  20.667  0.00  0.00    +0.000 A 
ATOM      8  C   UNL     1       1.188   4.345  20.718  0.00  0.00    +0.000 A 
ATOM      9  C   UNL     1       2.024   3.398  20.135  0.00  0.00    +0.000 A 
ATOM     10  C   UNL     1       3.216   3.797  19.488  0.00  0.00    +0.000 A 
BRANCH  10  11
ATOM     11  N   UNL     1       4.115   2.726  19.029  0.00  0.00    +0.000 N 
ATOM     12  O   UNL     1       4.087   2.403  17.832  0.00  0.00    +0.000 OA
ATOM     13  O   UNL     1       4.884   2.218  19.863  0.00  0.00    +0.000 OA
ENDBRANCH  10  11
ENDBRANCH   3   5
BRANCH   2  14
ATOM     14  C   UNL     1       6.965   6.364  18.094  0.00  0.00    +0.000 C 
BRANCH  14  15
ATOM     15  O   UNL     1       6.775   5.999  16.728  0.00  0.00    +0.000 OA
BRANCH  15  16
ATOM     16  C   UNL     1       7.085   4.712  16.441  0.00  0.00    +0.000 C 
ATOM     17  O   UNL     1       8.130   4.157  16.768  0.00  0.00    +0.000 OA
BRANCH  16  18
ATOM     18  C   UNL     1       5.996   4.062  15.627  0.00  0.00    +0.000 C 
BRANCH  18  19
ATOM     19  C   UNL     1       5.707   4.872  14.368  0.00  0.00    +0.000 C 
BRANCH  19  20
ATOM     20  C   UNL     1       6.773   4.659  13.296  0.00  0.00    +0.000 C 
ATOM     21  O   UNL     1       7.737   5.422  13.226  0.00  0.00    +0.000 OA
BRANCH  20  22
ATOM     22  C   UNL     1       6.584   3.513  12.414  0.00  0.00    +0.000 A 
ATOM     23  C   UNL     1       7.522   2.742  11.750  0.00  0.00    +0.000 A 
ATOM     24  C   UNL     1       6.925   1.726  10.947  0.00  0.00    +0.000 A 
ATOM     25  C   UNL     1       5.552   1.744  11.032  0.00  0.00    +0.000 A 
ATOM     26  S   UNL     1       4.990   2.968  12.081  0.00  0.00    +0.000 S 
ENDBRANCH  20  22
ENDBRANCH  19  20
ENDBRANCH  18  19
ENDBRANCH  16  18
ENDBRANCH  15  16
ENDBRANCH  14  15
ENDBRANCH   2  14
TORSDOF 9
ENDMDL
MODEL 7
REMARK VINA RESULT:      -7.1      5.901      8.969
REMARK  Name = 
REMARK  9 active torsions:
REMARK  status: ('A' for Active; 'I' for Inactive)
REMARK    1  A    between atoms: C_2  and  C_3
REMARK    2  A    between atoms: C_3  and  O_4
REMARK    3  A    between atoms: O_4  and  C_5
REMARK    4  A    between atoms: C_5  and  C_7
REMARK    5  A    between atoms: C_7  and  C_8
REMARK    6  A    between atoms: C_8  and  C_9
REMARK    7  A    between atoms: C_9  and  C_11
REMARK    8  A    between atoms: N_16  and  C_17
REMARK    9  A    between atoms: C_22  and  N_23
REMARK                            x       y       z     vdW  Elec       q    Type
REMARK                         _______ _______ _______ _____ _____    ______ ____
ROOT
ATOM      1  O   UNL     1       2.370   9.490  17.486  0.00  0.00    +0.000 OA
ATOM      2  C   UNL     1       1.916   8.765  18.372  0.00  0.00    +0.000 C 
ATOM      3  N   UNL     1       0.854   9.079  19.209  0.00  0.00    +0.000 N 
ATOM      4  H   UNL     1       0.704   8.469  20.015  0.00  0.00    +0.000 HD
ENDROOT
BRANCH   3   5
ATOM      5  C   UNL     1      -0.017  10.199  19.086  0.00  0.00    +0.000 A 
ATOM      6  C   UNL     1      -0.950  10.252  18.038  0.00  0.00    +0.000 A 
ATOM      7  C   UNL     1      -1.888  11.284  17.930  0.00  0.00    +0.000 A 
ATOM      8  C   UNL     1      -1.939  12.288  18.887  0.00  0.00    +0.000 A 
ATOM      9  C   UNL     1      -1.019  12.282  19.931  0.00  0.00    +0.000 A 
ATOM     10  C   UNL     1      -0.047  11.259  20.023  0.00  0.00    +0.000 A 
BRANCH  10  11
ATOM     11  N   UNL     1       0.979  11.406  21.068  0.00  0.00    +0.000 N 
ATOM     12  O   UNL     1       1.184  10.453  21.833  0.00  0.00    +0.000 OA
ATOM     13  O   UNL     1       1.614  12.473  21.109  0.00  0.00    +0.000 OA
ENDBRANCH  10  11
ENDBRANCH   3   5
BRANCH   2  14
ATOM     14  C   UNL     1       2.564   7.404  18.642  0.00  0.00    +0.000 C 
BRANCH  14  15
ATOM     15  O   UNL     1       3.558   7.055  17.679  0.00  0.00    +0.000 OA
BRANCH  15  16
ATOM     16  C   UNL     1       4.256   5.931  17.971  0.00  0.00    +0.000 C 
ATOM     17  O   UNL     1       4.875   5.748  19.016  0.00  0.00    +0.000 OA
BRANCH  16  18
ATOM     18  C   UNL     1       4.211   4.954  16.826  0.00  0.00    +0.000 C 
BRANCH  18  19
ATOM     19  C   UNL     1       3.699   3.596  17.293  0.00  0.00    +0.000 C 
BRANCH  19  20
ATOM     20  C   UNL     1       2.290   3.689  17.874  0.00  0.00    +0.000 C 
ATOM     21  O   UNL     1       1.348   4.029  17.156  0.00  0.00    +0.000 OA
BRANCH  20  22
ATOM     22  C   UNL     1       2.145   3.332  19.281  0.00  0.00    +0.000 A 
ATOM     23  C   UNL     1       1.060   3.487  20.126  0.00  0.00    +0.000 A 
ATOM     24  C   UNL     1       1.334   3.040  21.453  0.00  0.00    +0.000 A 
ATOM     25  C   UNL     1       2.613   2.549  21.577  0.00  0.00    +0.000 A 
ATOM     26  S   UNL     1       3.470   2.614  20.102  0.00  0.00    +0.000 S 
ENDBRANCH  20  22
ENDBRANCH  19  20
ENDBRANCH  18  19
ENDBRANCH  16  18
ENDBRANCH  15  16
ENDBRANCH  14  15
ENDBRANCH   2  14
TORSDOF 9
ENDMDL
MODEL 8
REMARK VINA RESULT:      -7.0      4.759      7.483
REMARK  Name = 
REMARK  9 active torsions:
REMARK  status: ('A' for Active; 'I' for Inactive)
REMARK    1  A    between atoms: C_2  and  C_3
REMARK    2  A    between atoms: C_3  and  O_4
REMARK    3  A    between atoms: O_4  and  C_5
REMARK    4  A    between atoms: C_5  and  C_7
REMARK    5  A    between atoms: C_7  and  C_8
REMARK    6  A    between atoms: C_8  and  C_9
REMARK    7  A    between atoms: C_9  and  C_11
REMARK    8  A    between atoms: N_16  and  C_17
REMARK    9  A    between atoms: C_22  and  N_23
REMARK                            x       y       z     vdW  Elec       q    Type
REMARK                         _______ _______ _______ _____ _____    ______ ____
ROOT
ATOM      1  O   UNL     1       5.166   2.415  19.255  0.00  0.00    +0.000 OA
ATOM      2  C   UNL     1       4.143   2.908  18.779  0.00  0.00    +0.000 C 
ATOM      3  N   UNL     1       4.094   3.795  17.713  0.00  0.00    +0.000 N 
ATOM      4  H   UNL     1       3.202   4.265  17.543  0.00  0.00    +0.000 HD
ENDROOT
BRANCH   3   5
ATOM      5  C   UNL     1       5.178   4.157  16.863  0.00  0.00    +0.000 A 
ATOM      6  C   UNL     1       5.173   3.768  15.514  0.00  0.00    +0.000 A 
ATOM      7  C   UNL     1       6.167   4.178  14.619  0.00  0.00    +0.000 A 
ATOM      8  C   UNL     1       7.189   5.016  15.042  0.00  0.00    +0.000 A 
ATOM      9  C   UNL     1       7.240   5.409  16.376  0.00  0.00    +0.000 A 
ATOM     10  C   UNL     1       6.256   4.967  17.290  0.00  0.00    +0.000 A 
BRANCH  10  11
ATOM     11  N   UNL     1       6.464   5.305  18.708  0.00  0.00    +0.000 N 
ATOM     12  O   UNL     1       5.539   5.848  19.328  0.00  0.00    +0.000 OA
ATOM     13  O   UNL     1       7.552   4.997  19.223  0.00  0.00    +0.000 OA
ENDBRANCH  10  11
ENDBRANCH   3   5
BRANCH   2  14
ATOM     14  C   UNL     1       2.783   2.576  19.400  0.00  0.00    +0.000 C 
BRANCH  14  15
ATOM     15  O   UNL     1       2.803   2.583  20.827  0.00  0.00    +0.000 OA
BRANCH  15  16
ATOM     16  C   UNL     1       1.698   3.115  21.403  0.00  0.00    +0.000 C 
ATOM     17  O   UNL     1       1.126   2.642  22.381  0.00  0.00    +0.000 OA
BRANCH  16  18
ATOM     18  C   UNL     1       1.235   4.339  20.656  0.00  0.00    +0.000 C 
BRANCH  18  19
ATOM     19  C   UNL     1       2.241   5.475  20.803  0.00  0.00    +0.000 C 
BRANCH  19  20
ATOM     20  C   UNL     1       2.146   6.473  19.651  0.00  0.00    +0.000 C 
ATOM     21  O   UNL     1       2.448   6.126  18.509  0.00  0.00    +0.000 OA
BRANCH  20  22
ATOM     22  C   UNL     1       1.664   7.807  19.989  0.00  0.00    +0.000 A 
ATOM     23  C   UNL     1       1.227   8.311  21.201  0.00  0.00    +0.000 A 
ATOM     24  C   UNL     1       0.799   9.668  21.107  0.00  0.00    +0.000 A 
ATOM     25  C   UNL     1       0.933  10.162  19.829  0.00  0.00    +0.000 A 
ATOM     26  S   UNL     1       1.582   9.001  18.758  0.00  0.00    +0.000 S 
ENDBRANCH  20  22
ENDBRANCH  19  20
ENDBRANCH  18  19
ENDBRANCH  16  18
ENDBRANCH  15  16
ENDBRANCH  14  15
ENDBRANCH   2  14
TORSDOF 9
ENDMDL
MODEL 9
REMARK VINA RESULT:      -6.9      1.508      1.758
REMARK  Name = 
REMARK  9 active torsions:
REMARK  status: ('A' for Active; 'I' for Inactive)
REMARK    1  A    between atoms: C_2  and  C_3
REMARK    2  A    between atoms: C_3  and  O_4
REMARK    3  A    between atoms: O_4  and  C_5
REMARK    4  A    between atoms: C_5  and  C_7
REMARK    5  A    between atoms: C_7  and  C_8
REMARK    6  A    between atoms: C_8  and  C_9
REMARK    7  A    between atoms: C_9  and  C_11
REMARK    8  A    between atoms: N_16  and  C_17
REMARK    9  A    between atoms: C_22  and  N_23
REMARK                            x       y       z     vdW  Elec       q    Type
REMARK                         _______ _______ _______ _____ _____    ______ ____
ROOT
ATOM      1  O   UNL     1       5.600   5.480  19.030  0.00  0.00    +0.000 OA
ATOM      2  C   UNL     1       4.822   5.960  18.205  0.00  0.00    +0.000 C 
ATOM      3  N   UNL     1       3.490   5.603  18.049  0.00  0.00    +0.000 N 
ATOM      4  H   UNL     1       3.015   5.944  17.210  0.00  0.00    +0.000 HD
ENDROOT
BRANCH   3   5
ATOM      5  C   UNL     1       2.731   4.764  18.914  0.00  0.00    +0.000 A 
ATOM      6  C   UNL     1       2.047   5.318  20.008  0.00  0.00    +0.000 A 
ATOM      7  C   UNL     1       1.215   4.550  20.830  0.00  0.00    +0.000 A 
ATOM      8  C   UNL     1       1.020   3.202  20.565  0.00  0.00    +0.000 A 
ATOM      9  C   UNL     1       1.695   2.610  19.501  0.00  0.00    +0.000 A 
ATOM     10  C   UNL     1       2.563   3.377  18.691  0.00  0.00    +0.000 A 
BRANCH  10  11
ATOM     11  N   UNL     1       3.350   2.648  17.683  0.00  0.00    +0.000 N 
ATOM     12  O   UNL     1       3.551   3.189  16.585  0.00  0.00    +0.000 OA
ATOM     13  O   UNL     1       3.803   1.534  17.996  0.00  0.00    +0.000 OA
ENDBRANCH  10  11
ENDBRANCH   3   5
BRANCH   2  14
ATOM     14  C   UNL     1       5.322   7.019  17.218  0.00  0.00    +0.000 C 
BRANCH  14  15
ATOM     15  O   UNL     1       6.273   7.915  17.793  0.00  0.00    +0.000 OA
BRANCH  15  16
ATOM     16  C   UNL     1       7.560   7.664  17.452  0.00  0.00    +0.000 C 
ATOM     17  O   UNL     1       7.906   6.943  16.520  0.00  0.00    +0.000 OA
BRANCH  16  18
ATOM     18  C   UNL     1       8.513   8.351  18.396  0.00  0.00    +0.000 C 
BRANCH  18  19
ATOM     19  C   UNL     1       8.481   9.861  18.192  0.00  0.00    +0.000 C 
BRANCH  19  20
ATOM     20  C   UNL     1       9.367  10.590  19.199  0.00  0.00    +0.000 C 
ATOM     21  O   UNL     1       9.254  10.356  20.403  0.00  0.00    +0.000 OA
BRANCH  20  22
ATOM     22  C   UNL     1      10.337  11.529  18.647  0.00  0.00    +0.000 A 
ATOM     23  C   UNL     1      10.348  12.175  17.424  0.00  0.00    +0.000 A 
ATOM     24  C   UNL     1      11.504  12.992  17.247  0.00  0.00    +0.000 A 
ATOM     25  C   UNL     1      12.333  12.953  18.345  0.00  0.00    +0.000 A 
ATOM     26  S   UNL     1      11.715  11.951  19.581  0.00  0.00    +0.000 S 
ENDBRANCH  20  22
ENDBRANCH  19  20
ENDBRANCH  18  19
ENDBRANCH  16  18
ENDBRANCH  15  16
ENDBRANCH  14  15
ENDBRANCH   2  14
TORSDOF 9
ENDMDL
