MODEL 1
REMARK VINA RESULT:      -9.0      0.000      0.000
REMARK  Name = 
REMARK  6 active torsions:
REMARK  status: ('A' for Active; 'I' for Inactive)
REMARK    1  A    between atoms: C_1  and  C_2
REMARK    2  A    between atoms: C_5  and  C_6
REMARK    3  A    between atoms: C_9  and  C_10
REMARK    4  A    between atoms: C_15  and  N_16
REMARK    5  A    between atoms: N_16  and  C_17
REMARK    6  A    between atoms: C_17  and  C_18
REMARK                            x       y       z     vdW  Elec       q    Type
REMARK                         _______ _______ _______ _____ _____    ______ ____
ROOT
ATOM      1  C   UNL     1       2.090   5.103  20.295  0.00  0.00    +0.000 A 
ATOM      2  C   UNL     1       1.081   4.200  20.662  0.00  0.00    +0.000 A 
ATOM      3  C   UNL     1       1.316   2.832  20.612  0.00  0.00    +0.000 A 
ATOM      4  C   UNL     1       2.556   2.404  20.182  0.00  0.00    +0.000 A 
ATOM      5  N   UNL     1       3.544   3.236  19.788  0.00  0.00    +0.000 NA
ATOM      6  C   UNL     1       3.315   4.569  19.841  0.00  0.00    +0.000 A 
ENDROOT
BRANCH   1  10
ATOM      7  C   UNL     1       1.151   8.513  20.660  0.00  0.00    +0.000 A 
ATOM      8  N   UNL     1       1.782   8.577  19.475  0.00  0.00    +0.000 NA
ATOM      9  O   UNL     1       2.218   7.280  19.264  0.00  0.00    +0.000 OA
ATOM     10  C   UNL     1       1.796   6.534  20.326  0.00  0.00    +0.000 A 
ATOM     11  N   UNL     1       1.179   7.258  21.237  0.00  0.00    +0.000 NA
BRANCH   7  16
ATOM     12  C   UNL     1      -1.384  13.038  23.195  0.00  0.00    +0.000 C 
ATOM     13  C   UNL     1      -0.798  11.851  22.491  0.00  0.00    +0.000 A 
ATOM     14  C   UNL     1      -0.926  10.571  23.032  0.00  0.00    +0.000 A 
ATOM     15  C   UNL     1      -0.319   9.479  22.409  0.00  0.00    +0.000 A 
ATOM     16  C   UNL     1       0.434   9.645  21.237  0.00  0.00    +0.000 A 
ATOM     17  C   UNL     1       0.524  10.922  20.672  0.00  0.00    +0.000 A 
ATOM     18  C   UNL     1      -0.089  12.017  21.293  0.00  0.00    +0.000 A 
ENDBRANCH   7  16
ENDBRANCH   1  10
BRANCH   6  19
ATOM     19  N   UNL     1       4.320   5.420  19.395  0.00  0.00    +0.000 N 
ATOM     20  H   UNL     1       4.297   6.312  19.879  0.00  0.00    +0.000 HD
BRANCH  19  21
ATOM     21  C   UNL     1       5.664   4.907  19.214  0.00  0.00    +0.000 C 
BRANCH  21  22
ATOM     22  C   UNL     1       5.919   4.704  17.727  0.00  0.00    +0.000 A 
ATOM     23  C   UNL     1       7.221   4.804  17.220  0.00  0.00    +0.000 A 
ATOM     24  C   UNL     1       7.462   4.665  15.848  0.00  0.00    +0.000 A 
ATOM     25  C   UNL     1       6.410   4.416  14.972  0.00  0.00    +0.000 A 
ATOM     26 CL   UNL     1       6.699   4.309  13.282  0.00  0.00    +0.000 Cl
ATOM     27  C   UNL     1       5.116   4.255  15.463  0.00  0.00    +0.000 A 
ATOM     28  C   UNL     1       4.879   4.383  16.834  0.00  0.00    +0.000 A 
ENDBRANCH  21  22
ENDBRANCH  19  21
ENDBRANCH   6  19
TORSDOF 5
ENDMDL
MODEL 2
REMARK VINA RESULT:      -8.7      4.893      7.552
REMARK  Name = 
REMARK  6 active torsions:
REMARK  status: ('A' for Active; 'I' for Inactive)
REMARK    1  A    between atoms: C_1  and  C_2
REMARK    2  A    between atoms: C_5  and  C_6
REMARK    3  A    between atoms: C_9  and  C_10
REMARK    4  A    between atoms: C_15  and  N_16
REMARK    5  A    between atoms: N_16  and  C_17
REMARK    6  A    between atoms: C_17  and  C_18
REMARK                            x       y       z     vdW  Elec       q    Type
REMARK                         _______ _______ _______ _____ _____    ______ ____
ROOT
ATOM      1  C   UNL     1       6.563   5.972  16.554  0.00  0.00    +0.000 A 
ATOM      2  C   UNL     1       7.285   5.246  15.595  0.00  0.00    +0.000 A 
ATOM      3  C   UNL     1       6.651   4.277  14.828  0.00  0.00    +0.000 A 
ATOM      4  C   UNL     1       5.307   4.053  15.052  0.00  0.00    +0.000 A 
ATOM      5  N   UNL     1       4.581   4.705  15.986  0.00  0.00    +0.000 NA
ATOM      6  C   UNL     1       5.200   5.652  16.730  0.00  0.00    +0.000 A 
ENDROOT
BRANCH   1  10
ATOM      7  C   UNL     1       8.214   8.619  18.261  0.00  0.00    +0.000 A 
ATOM      8  N   UNL     1       8.604   7.581  19.020  0.00  0.00    +0.000 NA
ATOM      9  O   UNL     1       7.973   6.494  18.442  0.00  0.00    +0.000 OA
ATOM     10  C   UNL     1       7.271   6.959  17.368  0.00  0.00    +0.000 A 
ATOM     11  N   UNL     1       7.346   8.268  17.245  0.00  0.00    +0.000 NA
BRANCH   7  16
ATOM     12  C   UNL     1       9.904  14.064  19.171  0.00  0.00    +0.000 C 
ATOM     13  C   UNL     1       9.537  12.638  18.888  0.00  0.00    +0.000 A 
ATOM     14  C   UNL     1       8.757  12.313  17.777  0.00  0.00    +0.000 A 
ATOM     15  C   UNL     1       8.359  10.993  17.557  0.00  0.00    +0.000 A 
ATOM     16  C   UNL     1       8.727   9.972  18.446  0.00  0.00    +0.000 A 
ATOM     17  C   UNL     1       9.546  10.293  19.535  0.00  0.00    +0.000 A 
ATOM     18  C   UNL     1       9.950  11.615  19.754  0.00  0.00    +0.000 A 
ENDBRANCH   7  16
ENDBRANCH   1  10
BRANCH   6  19
ATOM     19  N   UNL     1       4.459   6.289  17.719  0.00  0.00    +0.000 N 
ATOM     20  H   UNL     1       4.835   7.208  17.933  0.00  0.00    +0.000 HD
BRANCH  19  21
ATOM     21  C   UNL     1       3.011   6.269  17.652  0.00  0.00    +0.000 C 
BRANCH  21  22
ATOM     22  C   UNL     1       2.481   5.328  18.725  0.00  0.00    +0.000 A 
ATOM     23  C   UNL     1       2.706   5.611  20.078  0.00  0.00    +0.000 A 
ATOM     24  C   UNL     1       2.262   4.730  21.072  0.00  0.00    +0.000 A 
ATOM     25  C   UNL     1       1.585   3.565  20.725  0.00  0.00    +0.000 A 
ATOM     26 CL   UNL     1       1.097   2.454  21.943  0.00  0.00    +0.000 Cl
ATOM     27  C   UNL     1       1.300   3.295  19.389  0.00  0.00    +0.000 A 
ATOM     28  C   UNL     1       1.733   4.181  18.399  0.00  0.00    +0.000 A 
ENDBRANCH  21  22
ENDBRANCH  19  21
ENDBRANCH   6  19
TORSDOF 5
ENDMDL
MODEL 3
REMARK VINA RESULT:      -8.6      2.239      2.833
REMARK  Name = 
REMARK  6 active torsions:
REMARK  status: ('A' for Active; 'I' for Inactive)
REMARK    1  A    between atoms: C_1  and  C_2
REMARK    2  A    between atoms: C_5  and  C_6
REMARK    3  A    between atoms: C_9  and  C_10
REMARK    4  A    between atoms: C_15  and  N_16
REMARK    5  A    between atoms: N_16  and  C_17
REMARK    6  A    between atoms: C_17  and  C_18
REMARK                            x       y       z     vdW  Elec       q    Type
REMARK                         _______ _______ _______ _____ _____    ______ ____
ROOT
ATOM      1  C   UNL     1       2.532   4.321  19.059  0.00  0.00    +0.000 A 
ATOM      2  C   UNL     1       1.412   3.510  18.829  0.00  0.00    +0.000 A 
ATOM      3  C   UNL     1       1.572   2.159  18.548  0.00  0.00    +0.000 A 
ATOM      4  C   UNL     1       2.857   1.658  18.494  0.00  0.00    +0.000 A 
ATOM      5  N   UNL     1       3.965   2.409  18.677  0.00  0.00    +0.000 NA
ATOM      6  C   UNL     1       3.807   3.724  18.953  0.00  0.00    +0.000 A 
ENDROOT
BRANCH   1  10
ATOM      7  C   UNL     1       1.806   7.683  19.960  0.00  0.00    +0.000 A 
ATOM      8  N   UNL     1       2.442   7.893  18.796  0.00  0.00    +0.000 NA
ATOM      9  O   UNL     1       2.797   6.621  18.380  0.00  0.00    +0.000 OA
ATOM     10  C   UNL     1       2.328   5.745  19.316  0.00  0.00    +0.000 A 
ATOM     11  N   UNL     1       1.756   6.354  20.334  0.00  0.00    +0.000 NA
BRANCH   7  16
ATOM     12  C   UNL     1      -1.100  11.768  22.824  0.00  0.00    +0.000 C 
ATOM     13  C   UNL     1      -0.272  10.749  22.100  0.00  0.00    +0.000 A 
ATOM     14  C   UNL     1       0.010  10.900  20.741  0.00  0.00    +0.000 A 
ATOM     15  C   UNL     1       0.722   9.913  20.056  0.00  0.00    +0.000 A 
ATOM     16  C   UNL     1       1.160   8.753  20.713  0.00  0.00    +0.000 A 
ATOM     17  C   UNL     1       0.914   8.625  22.085  0.00  0.00    +0.000 A 
ATOM     18  C   UNL     1       0.205   9.616  22.774  0.00  0.00    +0.000 A 
ENDBRANCH   7  16
ENDBRANCH   1  10
BRANCH   6  19
ATOM     19  N   UNL     1       4.951   4.500  19.098  0.00  0.00    +0.000 N 
ATOM     20  H   UNL     1       5.365   4.388  20.019  0.00  0.00    +0.000 HD
BRANCH  19  21
ATOM     21  C   UNL     1       5.935   4.530  18.034  0.00  0.00    +0.000 C 
BRANCH  21  22
ATOM     22  C   UNL     1       6.644   5.876  18.054  0.00  0.00    +0.000 A 
ATOM     23  C   UNL     1       6.181   6.924  17.248  0.00  0.00    +0.000 A 
ATOM     24  C   UNL     1       6.853   8.152  17.223  0.00  0.00    +0.000 A 
ATOM     25  C   UNL     1       7.985   8.349  18.008  0.00  0.00    +0.000 A 
ATOM     26 CL   UNL     1       8.844   9.835  17.928  0.00  0.00    +0.000 Cl
ATOM     27  C   UNL     1       8.427   7.340  18.860  0.00  0.00    +0.000 A 
ATOM     28  C   UNL     1       7.750   6.118  18.892  0.00  0.00    +0.000 A 
ENDBRANCH  21  22
ENDBRANCH  19  21
ENDBRANCH   6  19
TORSDOF 5
ENDMDL
MODEL 4
REMARK VINA RESULT:      -8.6      4.876      7.708
REMARK  Name = 
REMARK  6 active torsions:
REMARK  status: ('A' for Active; 'I' for Inactive)
REMARK    1  A    between atoms: C_1  and  C_2
REMARK    2  A    between atoms: C_5  and  C_6
REMARK    3  A    between atoms: C_9  and  C_10
REMARK    4  A    between atoms: C_15  and  N_16
REMARK    5  A    between atoms: N_16  and  C_17
REMARK    6  A    between atoms: C_17  and  C_18
REMARK                            x       y       z     vdW  Elec       q    Type
REMARK                         _______ _______ _______ _____ _____    ______ ____
ROOT
ATOM      1  C   UNL     1       6.635   5.802  16.481  0.00  0.00    +0.000 A 
ATOM      2  C   UNL     1       7.267   5.386  15.300  0.00  0.00    +0.000 A 
ATOM      3  C   UNL     1       6.693   4.397  14.511  0.00  0.00    +0.000 A 
ATOM      4  C   UNL     1       5.503   3.841  14.935  0.00  0.00    +0.000 A 
ATOM      5  N   UNL     1       4.877   4.188  16.082  0.00  0.00    +0.000 NA
ATOM      6  C   UNL     1       5.436   5.154  16.847  0.00  0.00    +0.000 A 
ENDROOT
BRANCH   1  10
ATOM      7  C   UNL     1       8.163   8.513  18.201  0.00  0.00    +0.000 A 
ATOM      8  N   UNL     1       8.509   7.504  19.017  0.00  0.00    +0.000 NA
ATOM      9  O   UNL     1       7.920   6.394  18.436  0.00  0.00    +0.000 OA
ATOM     10  C   UNL     1       7.286   6.819  17.305  0.00  0.00    +0.000 A 
ATOM     11  N   UNL     1       7.363   8.125  17.144  0.00  0.00    +0.000 NA
BRANCH   7  16
ATOM     12  C   UNL     1      10.422  13.808  18.647  0.00  0.00    +0.000 C 
ATOM     13  C   UNL     1       9.776  12.456  18.590  0.00  0.00    +0.000 A 
ATOM     14  C   UNL     1      10.220  11.423  19.418  0.00  0.00    +0.000 A 
ATOM     15  C   UNL     1       9.664  10.147  19.313  0.00  0.00    +0.000 A 
ATOM     16  C   UNL     1       8.657   9.875  18.373  0.00  0.00    +0.000 A 
ATOM     17  C   UNL     1       8.183  10.923  17.575  0.00  0.00    +0.000 A 
ATOM     18  C   UNL     1       8.737  12.204  17.684  0.00  0.00    +0.000 A 
ENDBRANCH   7  16
ENDBRANCH   1  10
BRANCH   6  19
ATOM     19  N   UNL     1       4.811   5.476  18.046  0.00  0.00    +0.000 N 
ATOM     20  H   UNL     1       5.127   6.373  18.403  0.00  0.00    +0.000 HD
BRANCH  19  21
ATOM     21  C   UNL     1       3.381   5.283  18.182  0.00  0.00    +0.000 C 
BRANCH  21  22
ATOM     22  C   UNL     1       2.746   6.592  18.629  0.00  0.00    +0.000 A 
ATOM     23  C   UNL     1       2.265   6.726  19.937  0.00  0.00    +0.000 A 
ATOM     24  C   UNL     1       1.637   7.910  20.346  0.00  0.00    +0.000 A 
ATOM     25  C   UNL     1       1.492   8.970  19.457  0.00  0.00    +0.000 A 
ATOM     26 CL   UNL     1       0.666  10.397  19.941  0.00  0.00    +0.000 Cl
ATOM     27  C   UNL     1       2.015   8.878  18.169  0.00  0.00    +0.000 A 
ATOM     28  C   UNL     1       2.651   7.701  17.766  0.00  0.00    +0.000 A 
ENDBRANCH  21  22
ENDBRANCH  19  21
ENDBRANCH   6  19
TORSDOF 5
ENDMDL
MODEL 5
REMARK VINA RESULT:      -8.6      2.212      2.679
REMARK  Name = 
REMARK  6 active torsions:
REMARK  status: ('A' for Active; 'I' for Inactive)
REMARK    1  A    between atoms: C_1  and  C_2
REMARK    2  A    between atoms: C_5  and  C_6
REMARK    3  A    between atoms: C_9  and  C_10
REMARK    4  A    between atoms: C_15  and  N_16
REMARK    5  A    between atoms: N_16  and  C_17
REMARK    6  A    between atoms: C_17  and  C_18
REMARK                            x       y       z     vdW  Elec       q    Type
REMARK                         _______ _______ _______ _____ _____    ______ ____
ROOT
ATOM      1  C   UNL     1       2.464   4.436  19.219  0.00  0.00    +0.000 A 
ATOM      2  C   UNL     1       1.510   3.511  19.667  0.00  0.00    +0.000 A 
ATOM      3  C   UNL     1       1.684   2.154  19.424  0.00  0.00    +0.000 A 
ATOM      4  C   UNL     1       2.807   1.762  18.724  0.00  0.00    +0.000 A 
ATOM      5  N   UNL     1       3.734   2.621  18.246  0.00  0.00    +0.000 NA
ATOM      6  C   UNL     1       3.565   3.942  18.487  0.00  0.00    +0.000 A 
ENDROOT
BRANCH   1  10
ATOM      7  C   UNL     1       1.677   7.792  20.092  0.00  0.00    +0.000 A 
ATOM      8  N   UNL     1       2.286   8.001  18.914  0.00  0.00    +0.000 NA
ATOM      9  O   UNL     1       2.663   6.733  18.507  0.00  0.00    +0.000 OA
ATOM     10  C   UNL     1       2.232   5.859  19.462  0.00  0.00    +0.000 A 
ATOM     11  N   UNL     1       1.664   6.467  20.483  0.00  0.00    +0.000 NA
BRANCH   7  16
ATOM     12  C   UNL     1      -1.272  11.845  22.958  0.00  0.00    +0.000 C 
ATOM     13  C   UNL     1      -0.434  10.836  22.232  0.00  0.00    +0.000 A 
ATOM     14  C   UNL     1      -0.175  10.978  20.867  0.00  0.00    +0.000 A 
ATOM     15  C   UNL     1       0.546   9.999  20.182  0.00  0.00    +0.000 A 
ATOM     16  C   UNL     1       1.019   8.856  20.844  0.00  0.00    +0.000 A 
ATOM     17  C   UNL     1       0.797   8.737  22.221  0.00  0.00    +0.000 A 
ATOM     18  C   UNL     1       0.078   9.721  22.910  0.00  0.00    +0.000 A 
ENDBRANCH   7  16
ENDBRANCH   1  10
BRANCH   6  19
ATOM     19  N   UNL     1       4.499   4.824  17.956  0.00  0.00    +0.000 N 
ATOM     20  H   UNL     1       4.248   5.791  18.144  0.00  0.00    +0.000 HD
BRANCH  19  21
ATOM     21  C   UNL     1       5.913   4.560  18.131  0.00  0.00    +0.000 C 
BRANCH  21  22
ATOM     22  C   UNL     1       6.672   5.879  18.082  0.00  0.00    +0.000 A 
ATOM     23  C   UNL     1       7.792   6.072  18.900  0.00  0.00    +0.000 A 
ATOM     24  C   UNL     1       8.471   7.298  18.897  0.00  0.00    +0.000 A 
ATOM     25  C   UNL     1       8.043   8.334  18.074  0.00  0.00    +0.000 A 
ATOM     26 CL   UNL     1       8.838   9.857  18.119  0.00  0.00    +0.000 Cl
ATOM     27  C   UNL     1       6.967   8.142  17.211  0.00  0.00    +0.000 A 
ATOM     28  C   UNL     1       6.298   6.916  17.206  0.00  0.00    +0.000 A 
ENDBRANCH  21  22
ENDBRANCH  19  21
ENDBRANCH   6  19
TORSDOF 5
ENDMDL
MODEL 6
REMARK VINA RESULT:      -8.5      1.461      1.905
REMARK  Name = 
REMARK  6 active torsions:
REMARK  status: ('A' for Active; 'I' for Inactive)
REMARK    1  A    between atoms: C_1  and  C_2
REMARK    2  A    between atoms: C_5  and  C_6
REMARK    3  A    between atoms: C_9  and  C_10
REMARK    4  A    between atoms: C_15  and  N_16
REMARK    5  A    between atoms: N_16  and  C_17
REMARK    6  A    between atoms: C_17  and  C_18
REMARK                            x       y       z     vdW  Elec       q    Type
REMARK                         _______ _______ _______ _____ _____    ______ ____
ROOT
ATOM      1  C   UNL     1       2.822   5.011  18.583  0.00  0.00    +0.000 A 
ATOM      2  C   UNL     1       1.889   4.199  17.923  0.00  0.00    +0.000 A 
ATOM      3  C   UNL     1       2.240   2.919  17.516  0.00  0.00    +0.000 A 
ATOM      4  C   UNL     1       3.527   2.490  17.772  0.00  0.00    +0.000 A 
ATOM      5  N   UNL     1       4.468   3.250  18.375  0.00  0.00    +0.000 NA
ATOM      6  C   UNL     1       4.122   4.496  18.774  0.00  0.00    +0.000 A 
ENDROOT
BRANCH   1  10
ATOM      7  C   UNL     1       1.677   8.152  19.797  0.00  0.00    +0.000 A 
ATOM      8  N   UNL     1       2.174   8.535  18.609  0.00  0.00    +0.000 NA
ATOM      9  O   UNL     1       2.680   7.365  18.070  0.00  0.00    +0.000 OA
ATOM     10  C   UNL     1       2.428   6.366  18.966  0.00  0.00    +0.000 A 
ATOM     11  N   UNL     1       1.858   6.809  20.067  0.00  0.00    +0.000 NA
BRANCH   7  16
ATOM     12  C   UNL     1      -1.558  11.522  23.190  0.00  0.00    +0.000 C 
ATOM     13  C   UNL     1      -0.651  10.700  22.324  0.00  0.00    +0.000 A 
ATOM     14  C   UNL     1      -0.554  10.956  20.954  0.00  0.00    +0.000 A 
ATOM     15  C   UNL     1       0.237  10.143  20.141  0.00  0.00    +0.000 A 
ATOM     16  C   UNL     1       0.942   9.054  20.676  0.00  0.00    +0.000 A 
ATOM     17  C   UNL     1       0.879   8.827  22.056  0.00  0.00    +0.000 A 
ATOM     18  C   UNL     1       0.090   9.645  22.874  0.00  0.00    +0.000 A 
ENDBRANCH   7  16
ENDBRANCH   1  10
BRANCH   6  19
ATOM     19  N   UNL     1       5.105   5.289  19.355  0.00  0.00    +0.000 N 
ATOM     20  H   UNL     1       5.692   4.752  19.987  0.00  0.00    +0.000 HD
BRANCH  19  21
ATOM     21  C   UNL     1       5.856   6.216  18.532  0.00  0.00    +0.000 C 
BRANCH  21  22
ATOM     22  C   UNL     1       6.023   5.618  17.142  0.00  0.00    +0.000 A 
ATOM     23  C   UNL     1       5.193   6.038  16.095  0.00  0.00    +0.000 A 
ATOM     24  C   UNL     1       5.307   5.462  14.823  0.00  0.00    +0.000 A 
ATOM     25  C   UNL     1       6.254   4.472  14.584  0.00  0.00    +0.000 A 
ATOM     26 CL   UNL     1       6.349   3.722  13.040  0.00  0.00    +0.000 Cl
ATOM     27  C   UNL     1       7.127   4.082  15.596  0.00  0.00    +0.000 A 
ATOM     28  C   UNL     1       7.020   4.665  16.861  0.00  0.00    +0.000 A 
ENDBRANCH  21  22
ENDBRANCH  19  21
ENDBRANCH   6  19
TORSDOF 5
ENDMDL
MODEL 7
REMARK VINA RESULT:      -8.5      5.018      7.625
REMARK  Name = 
REMARK  6 active torsions:
REMARK  status: ('A' for Active; 'I' for Inactive)
REMARK    1  A    between atoms: C_1  and  C_2
REMARK    2  A    between atoms: C_5  and  C_6
REMARK    3  A    between atoms: C_9  and  C_10
REMARK    4  A    between atoms: C_15  and  N_16
REMARK    5  A    between atoms: N_16  and  C_17
REMARK    6  A    between atoms: C_17  and  C_18
REMARK                            x       y       z     vdW  Elec       q    Type
REMARK                         _______ _______ _______ _____ _____    ______ ____
ROOT
ATOM      1  C   UNL     1       6.649   6.199  16.711  0.00  0.00    +0.000 A 
ATOM      2  C   UNL     1       7.377   5.249  15.981  0.00  0.00    +0.000 A 
ATOM      3  C   UNL     1       6.715   4.283  15.234  0.00  0.00    +0.000 A 
ATOM      4  C   UNL     1       5.335   4.289  15.248  0.00  0.00    +0.000 A 
ATOM      5  N   UNL     1       4.593   5.165  15.962  0.00  0.00    +0.000 NA
ATOM      6  C   UNL     1       5.241   6.107  16.687  0.00  0.00    +0.000 A 
ENDROOT
BRANCH   1  10
ATOM      7  C   UNL     1       8.348   8.829  18.397  0.00  0.00    +0.000 A 
ATOM      8  N   UNL     1       8.754   7.784  19.138  0.00  0.00    +0.000 NA
ATOM      9  O   UNL     1       8.106   6.703  18.567  0.00  0.00    +0.000 OA
ATOM     10  C   UNL     1       7.379   7.178  17.515  0.00  0.00    +0.000 A 
ATOM     11  N   UNL     1       7.454   8.488  17.400  0.00  0.00    +0.000 NA
BRANCH   7  16
ATOM     12  C   UNL     1      10.742  14.053  18.947  0.00  0.00    +0.000 C 
ATOM     13  C   UNL     1      10.053  12.725  18.851  0.00  0.00    +0.000 A 
ATOM     14  C   UNL     1      10.294  11.730  19.801  0.00  0.00    +0.000 A 
ATOM     15  C   UNL     1       9.704  10.472  19.668  0.00  0.00    +0.000 A 
ATOM     16  C   UNL     1       8.868  10.179  18.580  0.00  0.00    +0.000 A 
ATOM     17  C   UNL     1       8.593  11.192  17.653  0.00  0.00    +0.000 A 
ATOM     18  C   UNL     1       9.180  12.455  17.789  0.00  0.00    +0.000 A 
ENDBRANCH   7  16
ENDBRANCH   1  10
BRANCH   6  19
ATOM     19  N   UNL     1       4.475   6.977  17.453  0.00  0.00    +0.000 N 
ATOM     20  H   UNL     1       4.805   7.935  17.374  0.00  0.00    +0.000 HD
BRANCH  19  21
ATOM     21  C   UNL     1       3.029   6.872  17.426  0.00  0.00    +0.000 C 
BRANCH  21  22
ATOM     22  C   UNL     1       2.592   5.809  18.424  0.00  0.00    +0.000 A 
ATOM     23  C   UNL     1       1.877   4.688  17.984  0.00  0.00    +0.000 A 
ATOM     24  C   UNL     1       1.429   3.727  18.899  0.00  0.00    +0.000 A 
ATOM     25  C   UNL     1       1.700   3.871  20.256  0.00  0.00    +0.000 A 
ATOM     26 CL   UNL     1       1.096   2.723  21.385  0.00  0.00    +0.000 Cl
ATOM     27  C   UNL     1       2.459   4.948  20.706  0.00  0.00    +0.000 A 
ATOM     28  C   UNL     1       2.915   5.900  19.791  0.00  0.00    +0.000 A 
ENDBRANCH  21  22
ENDBRANCH  19  21
ENDBRANCH   6  19
TORSDOF 5
ENDMDL
MODEL 8
REMARK VINA RESULT:      -8.5      0.895      1.567
REMARK  Name = 
REMARK  6 active torsions:
REMARK  status: ('A' for Active; 'I' for Inactive)
REMARK    1  A    between atoms: C_1  and  C_2
REMARK    2  A    between atoms: C_5  and  C_6
REMARK    3  A    between atoms: C_9  and  C_10
REMARK    4  A    between atoms: C_15  and  N_16
REMARK    5  A    between atoms: N_16  and  C_17
REMARK    6  A    between atoms: C_17  and  C_18
REMARK                            x       y       z     vdW  Elec       q    Type
REMARK                         _______ _______ _______ _____ _____    ______ ____
ROOT
ATOM      1  C   UNL     1       2.321   5.339  20.155  0.00  0.00    +0.000 A 
ATOM      2  C   UNL     1       1.306   4.527  20.682  0.00  0.00    +0.000 A 
ATOM      3  C   UNL     1       1.546   3.183  20.935  0.00  0.00    +0.000 A 
ATOM      4  C   UNL     1       2.799   2.684  20.640  0.00  0.00    +0.000 A 
ATOM      5  N   UNL     1       3.795   3.421  20.102  0.00  0.00    +0.000 NA
ATOM      6  C   UNL     1       3.560   4.732  19.860  0.00  0.00    +0.000 A 
ENDROOT
BRANCH   1  10
ATOM      7  C   UNL     1       1.363   8.740  19.752  0.00  0.00    +0.000 A 
ATOM      8  N   UNL     1       2.015   8.549  18.592  0.00  0.00    +0.000 NA
ATOM      9  O   UNL     1       2.459   7.241  18.676  0.00  0.00    +0.000 OA
ATOM     10  C   UNL     1       2.021   6.741  19.868  0.00  0.00    +0.000 A 
ATOM     11  N   UNL     1       1.386   7.641  20.589  0.00  0.00    +0.000 NA
BRANCH   7  16
ATOM     12  C   UNL     1      -1.851  13.366  21.018  0.00  0.00    +0.000 C 
ATOM     13  C   UNL     1      -0.952  12.218  20.668  0.00  0.00    +0.000 A 
ATOM     14  C   UNL     1      -0.946  11.691  19.375  0.00  0.00    +0.000 A 
ATOM     15  C   UNL     1      -0.159  10.578  19.072  0.00  0.00    +0.000 A 
ATOM     16  C   UNL     1       0.632   9.965  20.056  0.00  0.00    +0.000 A 
ATOM     17  C   UNL     1       0.658  10.523  21.340  0.00  0.00    +0.000 A 
ATOM     18  C   UNL     1      -0.126  11.642  21.643  0.00  0.00    +0.000 A 
ENDBRANCH   7  16
ENDBRANCH   1  10
BRANCH   6  19
ATOM     19  N   UNL     1       4.574   5.475  19.266  0.00  0.00    +0.000 N 
ATOM     20  H   UNL     1       4.668   6.390  19.698  0.00  0.00    +0.000 HD
BRANCH  19  21
ATOM     21  C   UNL     1       5.850   4.848  18.983  0.00  0.00    +0.000 C 
BRANCH  21  22
ATOM     22  C   UNL     1       5.981   4.653  17.479  0.00  0.00    +0.000 A 
ATOM     23  C   UNL     1       4.903   4.147  16.742  0.00  0.00    +0.000 A 
ATOM     24  C   UNL     1       5.028   3.921  15.365  0.00  0.00    +0.000 A 
ATOM     25  C   UNL     1       6.224   4.205  14.713  0.00  0.00    +0.000 A 
ATOM     26 CL   UNL     1       6.395   3.866  13.037  0.00  0.00    +0.000 Cl
ATOM     27  C   UNL     1       7.288   4.762  15.418  0.00  0.00    +0.000 A 
ATOM     28  C   UNL     1       7.158   4.999  16.789  0.00  0.00    +0.000 A 
ENDBRANCH  21  22
ENDBRANCH  19  21
ENDBRANCH   6  19
TORSDOF 5
ENDMDL
MODEL 9
REMARK VINA RESULT:      -8.5      4.976      7.694
REMARK  Name = 
REMARK  6 active torsions:
REMARK  status: ('A' for Active; 'I' for Inactive)
REMARK    1  A    between atoms: C_1  and  C_2
REMARK    2  A    between atoms: C_5  and  C_6
REMARK    3  A    between atoms: C_9  and  C_10
REMARK    4  A    between atoms: C_15  and  N_16
REMARK    5  A    between atoms: N_16  and  C_17
REMARK    6  A    between atoms: C_17  and  C_18
REMARK                            x       y       z     vdW  Elec       q    Type
REMARK                         _______ _______ _______ _____ _____    ______ ____
ROOT
ATOM      1  C   UNL     1       6.701   5.946  16.880  0.00  0.00    +0.000 A 
ATOM      2  C   UNL     1       7.217   5.457  15.671  0.00  0.00    +0.000 A 
ATOM      3  C   UNL     1       6.616   4.376  15.039  0.00  0.00    +0.000 A 
ATOM      4  C   UNL     1       5.516   3.804  15.646  0.00  0.00    +0.000 A 
ATOM      5  N   UNL     1       5.005   4.220  16.826  0.00  0.00    +0.000 NA
ATOM      6  C   UNL     1       5.591   5.276  17.438  0.00  0.00    +0.000 A 
ENDROOT
BRANCH   1  10
ATOM      7  C   UNL     1       8.276   8.863  18.167  0.00  0.00    +0.000 A 
ATOM      8  N   UNL     1       8.702   7.959  19.065  0.00  0.00    +0.000 NA
ATOM      9  O   UNL     1       8.104   6.780  18.658  0.00  0.00    +0.000 OA
ATOM     10  C   UNL     1       7.381   7.062  17.534  0.00  0.00    +0.000 A 
ATOM     11  N   UNL     1       7.414   8.341  17.221  0.00  0.00    +0.000 NA
BRANCH   7  16
ATOM     12  C   UNL     1      10.332  14.242  17.757  0.00  0.00    +0.000 C 
ATOM     13  C   UNL     1       9.765  12.866  17.941  0.00  0.00    +0.000 A 
ATOM     14  C   UNL     1      10.529  11.858  18.533  0.00  0.00    +0.000 A 
ATOM     15  C   UNL     1      10.022  10.561  18.638  0.00  0.00    +0.000 A 
ATOM     16  C   UNL     1       8.746  10.243  18.148  0.00  0.00    +0.000 A 
ATOM     17  C   UNL     1       7.966  11.266  17.595  0.00  0.00    +0.000 A 
ATOM     18  C   UNL     1       8.470  12.567  17.494  0.00  0.00    +0.000 A 
ENDBRANCH   7  16
ENDBRANCH   1  10
BRANCH   6  19
ATOM     19  N   UNL     1       5.089   5.673  18.672  0.00  0.00    +0.000 N 
ATOM     20  H   UNL     1       5.364   6.624  18.899  0.00  0.00    +0.000 HD
BRANCH  19  21
ATOM     21  C   UNL     1       3.709   5.386  19.008  0.00  0.00    +0.000 C 
BRANCH  21  22
ATOM     22  C   UNL     1       2.912   6.683  18.977  0.00  0.00    +0.000 A 
ATOM     23  C   UNL     1       2.890   7.462  17.813  0.00  0.00    +0.000 A 
ATOM     24  C   UNL     1       2.199   8.680  17.788  0.00  0.00    +0.000 A 
ATOM     25  C   UNL     1       1.519   9.125  18.917  0.00  0.00    +0.000 A 
ATOM     26 CL   UNL     1       0.724  10.649  18.903  0.00  0.00    +0.000 Cl
ATOM     27  C   UNL     1       1.480   8.337  20.064  0.00  0.00    +0.000 A 
ATOM     28  C   UNL     1       2.161   7.117  20.085  0.00  0.00    +0.000 A 
ENDBRANCH  21  22
ENDBRANCH  19  21
ENDBRANCH   6  19
TORSDOF 5
ENDMDL
