MODEL 1
REMARK VINA RESULT:      -7.1      0.000      0.000
REMARK  Name = 
REMARK  1 active torsions:
REMARK  status: ('A' for Active; 'I' for Inactive)
REMARK    1  A    between atoms: N_1  and  C_2
REMARK                            x       y       z     vdW  Elec       q    Type
REMARK                         _______ _______ _______ _____ _____    ______ ____
ROOT
ATOM      1  C   UNL     1       1.670  11.621  18.220  0.00  0.00    +0.000 A 
ATOM      2  C   UNL     1       1.125  12.851  18.601  0.00  0.00    +0.000 A 
ATOM      3  C   UNL     1      -0.176  12.866  19.113  0.00  0.00    +0.000 A 
ATOM      4  C   UNL     1      -1.047  11.932  18.516  0.00  0.00    +0.000 A 
ATOM      5  C   UNL     1      -0.557  10.648  18.282  0.00  0.00    +0.000 A 
ATOM      6  C   UNL     1       0.826  10.489  18.195  0.00  0.00    +0.000 A 
ATOM      7 CL   UNL     1       1.470   8.917  17.894  0.00  0.00    +0.000 Cl
ATOM      8  N   UNL     1      -2.278  12.342  17.957  0.00  0.00    +0.000 N 
ATOM      9  C   UNL     1      -3.428  11.632  18.182  0.00  0.00    +0.000 C 
ATOM     10  O   UNL     1      -3.479  10.500  18.644  0.00  0.00    +0.000 OA
ATOM     11  N   UNL     1      -4.586  12.378  17.946  0.00  0.00    +0.000 N 
ATOM     12  C   UNL     1      -5.573  12.252  18.950  0.00  0.00    +0.000 A 
ATOM     13  C   UNL     1      -6.900  11.945  18.718  0.00  0.00    +0.000 A 
ATOM     14  N   UNL     1      -7.781  11.702  19.728  0.00  0.00    +0.000 NA
ATOM     15  C   UNL     1      -7.274  11.795  20.991  0.00  0.00    +0.000 A 
ATOM     16  C   UNL     1      -5.971  12.160  21.232  0.00  0.00    +0.000 A 
ATOM     17  N   UNL     1      -5.126  12.419  20.208  0.00  0.00    +0.000 NA
ATOM     18  O   UNL     1      -5.458  12.289  22.526  0.00  0.00    +0.000 OA
ATOM     19  C   UNL     1      -4.091  12.692  22.404  0.00  0.00    +0.000 C 
ATOM     20  C   UNL     1      -3.275  12.970  23.667  0.00  0.00    +0.000 C 
ATOM     21  C   UNL     1      -2.015  13.633  23.121  0.00  0.00    +0.000 C 
ATOM     22  C   UNL     1      -0.988  12.922  22.617  0.00  0.00    +0.000 C 
ATOM     23  C   UNL     1      -0.041  13.414  21.543  0.00  0.00    +0.000 C 
ATOM     24  O   UNL     1      -0.082  12.416  20.519  0.00  0.00    +0.000 OA
ATOM     25  H   UNL     1      -2.369  13.295  17.650  0.00  0.00    +0.000 HD
ATOM     26  H   UNL     1      -4.909  12.300  16.996  0.00  0.00    +0.000 HD
ENDROOT
BRANCH   1  27
ATOM     27  N   UNL     1       2.959  11.597  17.634  0.00  0.00    +0.000 N 
ATOM     28  H   UNL     1       3.121  10.693  17.191  0.00  0.00    +0.000 HD
ATOM     29  H   UNL     1       3.668  11.727  18.358  0.00  0.00    +0.000 HD
ENDBRANCH   1  27
TORSDOF 1
ENDMDL
MODEL 2
REMARK VINA RESULT:      -7.0      2.429      4.276
REMARK  Name = 
REMARK  1 active torsions:
REMARK  status: ('A' for Active; 'I' for Inactive)
REMARK    1  A    between atoms: N_1  and  C_2
REMARK                            x       y       z     vdW  Elec       q    Type
REMARK                         _______ _______ _______ _____ _____    ______ ____
ROOT
ATOM      1  C   UNL     1       0.448  12.685  18.653  0.00  0.00    +0.000 A 
ATOM      2  C   UNL     1      -0.272  11.498  18.820  0.00  0.00    +0.000 A 
ATOM      3  C   UNL     1      -1.563  11.577  19.350  0.00  0.00    +0.000 A 
ATOM      4  C   UNL     1      -1.728  12.575  20.333  0.00  0.00    +0.000 A 
ATOM      5  C   UNL     1      -1.147  13.820  20.095  0.00  0.00    +0.000 A 
ATOM      6  C   UNL     1      -0.084  13.876  19.195  0.00  0.00    +0.000 A 
ATOM      7 CL   UNL     1       0.669  15.398  18.884  0.00  0.00    +0.000 Cl
ATOM      8  N   UNL     1      -2.248  12.258  21.608  0.00  0.00    +0.000 N 
ATOM      9  C   UNL     1      -3.194  13.050  22.202  0.00  0.00    +0.000 C 
ATOM     10  O   UNL     1      -3.494  14.182  21.844  0.00  0.00    +0.000 OA
ATOM     11  N   UNL     1      -3.903  12.392  23.211  0.00  0.00    +0.000 N 
ATOM     12  C   UNL     1      -5.302  12.587  23.161  0.00  0.00    +0.000 A 
ATOM     13  C   UNL     1      -6.080  12.992  24.229  0.00  0.00    +0.000 A 
ATOM     14  N   UNL     1      -7.401  13.297  24.096  0.00  0.00    +0.000 NA
ATOM     15  C   UNL     1      -7.915  13.164  22.840  0.00  0.00    +0.000 A 
ATOM     16  C   UNL     1      -7.164  12.703  21.786  0.00  0.00    +0.000 A 
ATOM     17  N   UNL     1      -5.859  12.385  21.954  0.00  0.00    +0.000 NA
ATOM     18  O   UNL     1      -7.697  12.533  20.505  0.00  0.00    +0.000 OA
ATOM     19  C   UNL     1      -6.650  12.031  19.670  0.00  0.00    +0.000 C 
ATOM     20  C   UNL     1      -6.952  11.691  18.210  0.00  0.00    +0.000 C 
ATOM     21  C   UNL     1      -5.701  10.938  17.769  0.00  0.00    +0.000 C 
ATOM     22  C   UNL     1      -4.576  11.573  17.386  0.00  0.00    +0.000 C 
ATOM     23  C   UNL     1      -3.176  11.015  17.533  0.00  0.00    +0.000 C 
ATOM     24  O   UNL     1      -2.446  12.016  18.247  0.00  0.00    +0.000 OA
ATOM     25  H   UNL     1      -2.149  11.315  21.942  0.00  0.00    +0.000 HD
ATOM     26  H   UNL     1      -3.473  12.496  24.115  0.00  0.00    +0.000 HD
ENDROOT
BRANCH   1  27
ATOM     27  N   UNL     1       1.782  12.616  18.185  0.00  0.00    +0.000 N 
ATOM     28  H   UNL     1       2.344  13.340  18.632  0.00  0.00    +0.000 HD
ATOM     29  H   UNL     1       1.801  12.777  17.177  0.00  0.00    +0.000 HD
ENDBRANCH   1  27
TORSDOF 1
ENDMDL
MODEL 3
REMARK VINA RESULT:      -6.8      9.157     11.298
REMARK  Name = 
REMARK  1 active torsions:
REMARK  status: ('A' for Active; 'I' for Inactive)
REMARK    1  A    between atoms: N_1  and  C_2
REMARK                            x       y       z     vdW  Elec       q    Type
REMARK                         _______ _______ _______ _____ _____    ______ ____
ROOT
ATOM      1  C   UNL     1      10.545  14.057  17.476  0.00  0.00    +0.000 A 
ATOM      2  C   UNL     1       9.365  13.309  17.431  0.00  0.00    +0.000 A 
ATOM      3  C   UNL     1       8.578  13.246  18.585  0.00  0.00    +0.000 A 
ATOM      4  C   UNL     1       9.312  13.220  19.789  0.00  0.00    +0.000 A 
ATOM      5  C   UNL     1      10.399  14.087  19.902  0.00  0.00    +0.000 A 
ATOM      6  C   UNL     1      10.979  14.555  18.724  0.00  0.00    +0.000 A 
ATOM      7 CL   UNL     1      12.333  15.620  18.825  0.00  0.00    +0.000 Cl
ATOM      8  N   UNL     1       9.109  12.196  20.740  0.00  0.00    +0.000 N 
ATOM      9  C   UNL     1       9.012  12.482  22.076  0.00  0.00    +0.000 C 
ATOM     10  O   UNL     1       9.325  13.546  22.595  0.00  0.00    +0.000 OA
ATOM     11  N   UNL     1       8.391  11.466  22.809  0.00  0.00    +0.000 N 
ATOM     12  C   UNL     1       7.418  11.923  23.725  0.00  0.00    +0.000 A 
ATOM     13  C   UNL     1       7.368  11.576  25.062  0.00  0.00    +0.000 A 
ATOM     14  N   UNL     1       6.492  12.149  25.934  0.00  0.00    +0.000 NA
ATOM     15  C   UNL     1       5.652  13.082  25.401  0.00  0.00    +0.000 A 
ATOM     16  C   UNL     1       5.653  13.387  24.061  0.00  0.00    +0.000 A 
ATOM     17  N   UNL     1       6.519  12.784  23.215  0.00  0.00    +0.000 NA
ATOM     18  O   UNL     1       4.769  14.319  23.507  0.00  0.00    +0.000 OA
ATOM     19  C   UNL     1       5.037  14.377  22.103  0.00  0.00    +0.000 C 
ATOM     20  C   UNL     1       4.181  15.277  21.212  0.00  0.00    +0.000 C 
ATOM     21  C   UNL     1       4.578  14.842  19.805  0.00  0.00    +0.000 C 
ATOM     22  C   UNL     1       5.689  15.300  19.196  0.00  0.00    +0.000 C 
ATOM     23  C   UNL     1       6.485  14.535  18.160  0.00  0.00    +0.000 C 
ATOM     24  O   UNL     1       7.827  14.520  18.654  0.00  0.00    +0.000 OA
ATOM     25  H   UNL     1       8.744  11.315  20.422  0.00  0.00    +0.000 HD
ATOM     26  H   UNL     1       9.047  10.788  23.160  0.00  0.00    +0.000 HD
ENDROOT
BRANCH   1  27
ATOM     27  N   UNL     1      11.388  14.072  16.339  0.00  0.00    +0.000 N 
ATOM     28  H   UNL     1      11.601  13.116  16.053  0.00  0.00    +0.000 HD
ATOM     29  H   UNL     1      12.268  14.537  16.569  0.00  0.00    +0.000 HD
ENDBRANCH   1  27
TORSDOF 1
ENDMDL
MODEL 4
REMARK VINA RESULT:      -6.6      2.183      4.083
REMARK  Name = 
REMARK  1 active torsions:
REMARK  status: ('A' for Active; 'I' for Inactive)
REMARK    1  A    between atoms: N_1  and  C_2
REMARK                            x       y       z     vdW  Elec       q    Type
REMARK                         _______ _______ _______ _____ _____    ______ ____
ROOT
ATOM      1  C   UNL     1       0.958  11.197  18.441  0.00  0.00    +0.000 A 
ATOM      2  C   UNL     1       0.014  10.204  18.719  0.00  0.00    +0.000 A 
ATOM      3  C   UNL     1      -1.213  10.592  19.265  0.00  0.00    +0.000 A 
ATOM      4  C   UNL     1      -1.133  11.674  20.165  0.00  0.00    +0.000 A 
ATOM      5  C   UNL     1      -0.315  12.748  19.815  0.00  0.00    +0.000 A 
ATOM      6  C   UNL     1       0.704  12.511  18.893  0.00  0.00    +0.000 A 
ATOM      7 CL   UNL     1       1.744  13.813  18.444  0.00  0.00    +0.000 Cl
ATOM      8  N   UNL     1      -1.661  11.572  21.471  0.00  0.00    +0.000 N 
ATOM      9  C   UNL     1      -2.401  12.588  22.016  0.00  0.00    +0.000 C 
ATOM     10  O   UNL     1      -2.472  13.727  21.571  0.00  0.00    +0.000 OA
ATOM     11  N   UNL     1      -3.194  12.172  23.089  0.00  0.00    +0.000 N 
ATOM     12  C   UNL     1      -4.523  12.652  23.050  0.00  0.00    +0.000 A 
ATOM     13  C   UNL     1      -5.162  13.291  24.095  0.00  0.00    +0.000 A 
ATOM     14  N   UNL     1      -6.395  13.855  23.962  0.00  0.00    +0.000 NA
ATOM     15  C   UNL     1      -6.970  13.737  22.731  0.00  0.00    +0.000 A 
ATOM     16  C   UNL     1      -6.368  13.049  21.705  0.00  0.00    +0.000 A 
ATOM     17  N   UNL     1      -5.153  12.479  21.874  0.00  0.00    +0.000 NA
ATOM     18  O   UNL     1      -6.971  12.898  20.452  0.00  0.00    +0.000 OA
ATOM     19  C   UNL     1      -6.081  12.125  19.642  0.00  0.00    +0.000 C 
ATOM     20  C   UNL     1      -6.499  11.744  18.221  0.00  0.00    +0.000 C 
ATOM     21  C   UNL     1      -5.447  10.714  17.820  0.00  0.00    +0.000 C 
ATOM     22  C   UNL     1      -4.230  11.068  17.365  0.00  0.00    +0.000 C 
ATOM     23  C   UNL     1      -2.972  10.242  17.531  0.00  0.00    +0.000 C 
ATOM     24  O   UNL     1      -2.024  11.120  18.146  0.00  0.00    +0.000 OA
ATOM     25  H   UNL     1      -1.748  10.658  21.881  0.00  0.00    +0.000 HD
ATOM     26  H   UNL     1      -2.720  12.253  23.973  0.00  0.00    +0.000 HD
ENDROOT
BRANCH   1  27
ATOM     27  N   UNL     1       2.231  10.814  17.955  0.00  0.00    +0.000 N 
ATOM     28  H   UNL     1       2.285  10.989  16.952  0.00  0.00    +0.000 HD
ATOM     29  H   UNL     1       2.372   9.815  18.111  0.00  0.00    +0.000 HD
ENDBRANCH   1  27
TORSDOF 1
ENDMDL
MODEL 5
REMARK VINA RESULT:      -6.3      4.249      6.148
REMARK  Name = 
REMARK  1 active torsions:
REMARK  status: ('A' for Active; 'I' for Inactive)
REMARK    1  A    between atoms: N_1  and  C_2
REMARK                            x       y       z     vdW  Elec       q    Type
REMARK                         _______ _______ _______ _____ _____    ______ ____
ROOT
ATOM      1  C   UNL     1      -0.011  16.551  19.579  0.00  0.00    +0.000 A 
ATOM      2  C   UNL     1      -1.065  15.633  19.549  0.00  0.00    +0.000 A 
ATOM      3  C   UNL     1      -0.768  14.279  19.728  0.00  0.00    +0.000 A 
ATOM      4  C   UNL     1       0.456  13.872  19.161  0.00  0.00    +0.000 A 
ATOM      5  C   UNL     1       1.558  14.711  19.329  0.00  0.00    +0.000 A 
ATOM      6  C   UNL     1       1.311  16.056  19.603  0.00  0.00    +0.000 A 
ATOM      7 CL   UNL     1       2.650  17.126  19.805  0.00  0.00    +0.000 Cl
ATOM      8  N   UNL     1       0.512  12.789  18.256  0.00  0.00    +0.000 N 
ATOM      9  C   UNL     1       1.490  11.835  18.355  0.00  0.00    +0.000 C 
ATOM     10  O   UNL     1       2.510  11.937  19.026  0.00  0.00    +0.000 OA
ATOM     11  N   UNL     1       1.161  10.644  17.702  0.00  0.00    +0.000 N 
ATOM     12  C   UNL     1       1.429   9.477  18.452  0.00  0.00    +0.000 A 
ATOM     13  C   UNL     1       2.145   8.389  17.989  0.00  0.00    +0.000 A 
ATOM     14  N   UNL     1       2.492   7.347  18.794  0.00  0.00    +0.000 NA
ATOM     15  C   UNL     1       2.075   7.436  20.090  0.00  0.00    +0.000 A 
ATOM     16  C   UNL     1       1.310   8.484  20.543  0.00  0.00    +0.000 A 
ATOM     17  N   UNL     1       0.961   9.494  19.712  0.00  0.00    +0.000 NA
ATOM     18  O   UNL     1       0.854   8.561  21.862  0.00  0.00    +0.000 OA
ATOM     19  C   UNL     1       0.086   9.762  21.978  0.00  0.00    +0.000 C 
ATOM     20  C   UNL     1      -0.597  10.092  23.305  0.00  0.00    +0.000 C 
ATOM     21  C   UNL     1      -1.518  11.251  22.938  0.00  0.00    +0.000 C 
ATOM     22  C   UNL     1      -1.078  12.521  22.851  0.00  0.00    +0.000 C 
ATOM     23  C   UNL     1      -1.671  13.581  21.947  0.00  0.00    +0.000 C 
ATOM     24  O   UNL     1      -0.570  14.080  21.181  0.00  0.00    +0.000 OA
ATOM     25  H   UNL     1      -0.318  12.556  17.739  0.00  0.00    +0.000 HD
ATOM     26  H   UNL     1       1.466  10.634  16.742  0.00  0.00    +0.000 HD
ENDROOT
BRANCH   1  27
ATOM     27  N   UNL     1      -0.286  17.917  19.328  0.00  0.00    +0.000 N 
ATOM     28  H   UNL     1      -0.767  18.014  18.434  0.00  0.00    +0.000 HD
ATOM     29  H   UNL     1       0.589  18.440  19.276  0.00  0.00    +0.000 HD
ENDBRANCH   1  27
TORSDOF 1
ENDMDL
MODEL 6
REMARK VINA RESULT:      -6.3     11.234     13.505
REMARK  Name = 
REMARK  1 active torsions:
REMARK  status: ('A' for Active; 'I' for Inactive)
REMARK    1  A    between atoms: N_1  and  C_2
REMARK                            x       y       z     vdW  Elec       q    Type
REMARK                         _______ _______ _______ _____ _____    ______ ____
ROOT
ATOM      1  C   UNL     1       7.555  12.320  24.364  0.00  0.00    +0.000 A 
ATOM      2  C   UNL     1       7.194  11.954  23.063  0.00  0.00    +0.000 A 
ATOM      3  C   UNL     1       7.778  12.643  21.996  0.00  0.00    +0.000 A 
ATOM      4  C   UNL     1       8.001  14.013  22.241  0.00  0.00    +0.000 A 
ATOM      5  C   UNL     1       8.519  14.373  23.485  0.00  0.00    +0.000 A 
ATOM      6  C   UNL     1       8.342  13.480  24.541  0.00  0.00    +0.000 A 
ATOM      7 CL   UNL     1       8.959  13.896  26.099  0.00  0.00    +0.000 Cl
ATOM      8  N   UNL     1       7.497  14.998  21.362  0.00  0.00    +0.000 N 
ATOM      9  C   UNL     1       8.271  16.058  20.971  0.00  0.00    +0.000 C 
ATOM     10  O   UNL     1       9.324  16.397  21.497  0.00  0.00    +0.000 OA
ATOM     11  N   UNL     1       7.807  16.673  19.804  0.00  0.00    +0.000 N 
ATOM     12  C   UNL     1       8.816  16.953  18.855  0.00  0.00    +0.000 A 
ATOM     13  C   UNL     1       9.015  18.182  18.255  0.00  0.00    +0.000 A 
ATOM     14  N   UNL     1      10.084  18.437  17.450  0.00  0.00    +0.000 NA
ATOM     15  C   UNL     1      10.943  17.396  17.259  0.00  0.00    +0.000 A 
ATOM     16  C   UNL     1      10.720  16.153  17.802  0.00  0.00    +0.000 A 
ATOM     17  N   UNL     1       9.636  15.923  18.579  0.00  0.00    +0.000 NA
ATOM     18  O   UNL     1      11.582  15.075  17.581  0.00  0.00    +0.000 OA
ATOM     19  C   UNL     1      11.042  13.948  18.277  0.00  0.00    +0.000 C 
ATOM     20  C   UNL     1      11.745  12.594  18.173  0.00  0.00    +0.000 C 
ATOM     21  C   UNL     1      10.731  11.634  18.787  0.00  0.00    +0.000 C 
ATOM     22  C   UNL     1      10.612  11.468  20.119  0.00  0.00    +0.000 C 
ATOM     23  C   UNL     1       9.334  11.079  20.830  0.00  0.00    +0.000 C 
ATOM     24  O   UNL     1       9.139  12.086  21.828  0.00  0.00    +0.000 OA
ATOM     25  H   UNL     1       6.695  14.771  20.800  0.00  0.00    +0.000 HD
ATOM     26  H   UNL     1       7.157  17.417  19.992  0.00  0.00    +0.000 HD
ENDROOT
BRANCH   1  27
ATOM     27  N   UNL     1       6.920  11.682  25.455  0.00  0.00    +0.000 N 
ATOM     28  H   UNL     1       7.476  11.809  26.301  0.00  0.00    +0.000 HD
ATOM     29  H   UNL     1       6.848  10.680  25.272  0.00  0.00    +0.000 HD
ENDBRANCH   1  27
TORSDOF 1
ENDMDL
MODEL 7
REMARK VINA RESULT:      -6.3      3.007      6.976
REMARK  Name = 
REMARK  1 active torsions:
REMARK  status: ('A' for Active; 'I' for Inactive)
REMARK    1  A    between atoms: N_1  and  C_2
REMARK                            x       y       z     vdW  Elec       q    Type
REMARK                         _______ _______ _______ _____ _____    ______ ____
ROOT
ATOM      1  C   UNL     1      -5.306  14.155  23.260  0.00  0.00    +0.000 A 
ATOM      2  C   UNL     1      -5.079  14.649  21.972  0.00  0.00    +0.000 A 
ATOM      3  C   UNL     1      -4.258  13.911  21.116  0.00  0.00    +0.000 A 
ATOM      4  C   UNL     1      -3.181  13.264  21.756  0.00  0.00    +0.000 A 
ATOM      5  C   UNL     1      -3.440  12.625  22.969  0.00  0.00    +0.000 A 
ATOM      6  C   UNL     1      -4.555  13.040  23.694  0.00  0.00    +0.000 A 
ATOM      7 CL   UNL     1      -4.900  12.280  25.205  0.00  0.00    +0.000 Cl
ATOM      8  N   UNL     1      -1.852  13.461  21.319  0.00  0.00    +0.000 N 
ATOM      9  C   UNL     1      -0.988  12.406  21.190  0.00  0.00    +0.000 C 
ATOM     10  O   UNL     1      -1.167  11.285  21.650  0.00  0.00    +0.000 OA
ATOM     11  N   UNL     1       0.099  12.688  20.356  0.00  0.00    +0.000 N 
ATOM     12  C   UNL     1       0.393  11.670  19.422  0.00  0.00    +0.000 A 
ATOM     13  C   UNL     1       1.644  11.115  19.229  0.00  0.00    +0.000 A 
ATOM     14  N   UNL     1       1.850  10.043  18.413  0.00  0.00    +0.000 NA
ATOM     15  C   UNL     1       0.742   9.557  17.784  0.00  0.00    +0.000 A 
ATOM     16  C   UNL     1      -0.494  10.142  17.922  0.00  0.00    +0.000 A 
ATOM     17  N   UNL     1      -0.663  11.221  18.721  0.00  0.00    +0.000 NA
ATOM     18  O   UNL     1      -1.625   9.666  17.251  0.00  0.00    +0.000 OA
ATOM     19  C   UNL     1      -2.721  10.510  17.613  0.00  0.00    +0.000 C 
ATOM     20  C   UNL     1      -4.094  10.269  16.984  0.00  0.00    +0.000 C 
ATOM     21  C   UNL     1      -4.878  11.514  17.387  0.00  0.00    +0.000 C 
ATOM     22  C   UNL     1      -5.457  11.640  18.597  0.00  0.00    +0.000 C 
ATOM     23  C   UNL     1      -5.690  12.955  19.310  0.00  0.00    +0.000 C 
ATOM     24  O   UNL     1      -5.082  12.797  20.596  0.00  0.00    +0.000 OA
ATOM     25  H   UNL     1      -1.633  14.309  20.826  0.00  0.00    +0.000 HD
ATOM     26  H   UNL     1       0.883  13.068  20.860  0.00  0.00    +0.000 HD
ENDROOT
BRANCH   1  27
ATOM     27  N   UNL     1      -6.077  14.926  24.162  0.00  0.00    +0.000 N 
ATOM     28  H   UNL     1      -6.874  15.335  23.675  0.00  0.00    +0.000 HD
ATOM     29  H   UNL     1      -5.509  15.688  24.536  0.00  0.00    +0.000 HD
ENDBRANCH   1  27
TORSDOF 1
ENDMDL
MODEL 8
REMARK VINA RESULT:      -6.2      3.288      5.765
REMARK  Name = 
REMARK  1 active torsions:
REMARK  status: ('A' for Active; 'I' for Inactive)
REMARK    1  A    between atoms: N_1  and  C_2
REMARK                            x       y       z     vdW  Elec       q    Type
REMARK                         _______ _______ _______ _____ _____    ______ ____
ROOT
ATOM      1  C   UNL     1      -3.210  14.153  24.539  0.00  0.00    +0.000 A 
ATOM      2  C   UNL     1      -3.342  12.767  24.407  0.00  0.00    +0.000 A 
ATOM      3  C   UNL     1      -3.146  12.202  23.143  0.00  0.00    +0.000 A 
ATOM      4  C   UNL     1      -3.603  12.998  22.073  0.00  0.00    +0.000 A 
ATOM      5  C   UNL     1      -3.329  14.365  22.120  0.00  0.00    +0.000 A 
ATOM      6  C   UNL     1      -3.070  14.930  23.368  0.00  0.00    +0.000 A 
ATOM      7 CL   UNL     1      -2.738  16.621  23.468  0.00  0.00    +0.000 Cl
ATOM      8  N   UNL     1      -4.506  12.481  21.118  0.00  0.00    +0.000 N 
ATOM      9  C   UNL     1      -4.325  12.706  19.779  0.00  0.00    +0.000 C 
ATOM     10  O   UNL     1      -3.564  13.537  19.300  0.00  0.00    +0.000 OA
ATOM     11  N   UNL     1      -5.014  11.796  18.973  0.00  0.00    +0.000 N 
ATOM     12  C   UNL     1      -4.251  11.272  17.905  0.00  0.00    +0.000 A 
ATOM     13  C   UNL     1      -4.654  11.250  16.583  0.00  0.00    +0.000 A 
ATOM     14  N   UNL     1      -3.828  10.859  15.574  0.00  0.00    +0.000 NA
ATOM     15  C   UNL     1      -2.575  10.473  15.951  0.00  0.00    +0.000 A 
ATOM     16  C   UNL     1      -2.187  10.433  17.268  0.00  0.00    +0.000 A 
ATOM     17  N   UNL     1      -3.038  10.805  18.251  0.00  0.00    +0.000 NA
ATOM     18  O   UNL     1      -0.914  10.006  17.660  0.00  0.00    +0.000 OA
ATOM     19  C   UNL     1      -0.860  10.079  19.087  0.00  0.00    +0.000 C 
ATOM     20  C   UNL     1       0.402   9.616  19.815  0.00  0.00    +0.000 C 
ATOM     21  C   UNL     1      -0.040   9.577  21.274  0.00  0.00    +0.000 C 
ATOM     22  C   UNL     1      -0.077  10.681  22.045  0.00  0.00    +0.000 C 
ATOM     23  C   UNL     1      -1.024  10.892  23.207  0.00  0.00    +0.000 C 
ATOM     24  O   UNL     1      -1.683  12.132  22.935  0.00  0.00    +0.000 OA
ATOM     25  H   UNL     1      -5.099  11.715  21.388  0.00  0.00    +0.000 HD
ATOM     26  H   UNL     1      -5.942  12.111  18.742  0.00  0.00    +0.000 HD
ENDROOT
BRANCH   1  27
ATOM     27  N   UNL     1      -3.475  14.748  25.796  0.00  0.00    +0.000 N 
ATOM     28  H   UNL     1      -2.936  15.608  25.892  0.00  0.00    +0.000 HD
ATOM     29  H   UNL     1      -3.193  14.112  26.544  0.00  0.00    +0.000 HD
ENDBRANCH   1  27
TORSDOF 1
ENDMDL
MODEL 9
REMARK VINA RESULT:      -6.1      2.712      4.337
REMARK  Name = 
REMARK  1 active torsions:
REMARK  status: ('A' for Active; 'I' for Inactive)
REMARK    1  A    between atoms: N_1  and  C_2
REMARK                            x       y       z     vdW  Elec       q    Type
REMARK                         _______ _______ _______ _____ _____    ______ ____
ROOT
ATOM      1  C   UNL     1       0.756  14.201  19.103  0.00  0.00    +0.000 A 
ATOM      2  C   UNL     1       0.394  12.879  19.379  0.00  0.00    +0.000 A 
ATOM      3  C   UNL     1      -0.928  12.619  19.750  0.00  0.00    +0.000 A 
ATOM      4  C   UNL     1      -1.520  13.627  20.538  0.00  0.00    +0.000 A 
ATOM      5  C   UNL     1      -1.296  14.953  20.168  0.00  0.00    +0.000 A 
ATOM      6  C   UNL     1      -0.173  15.226  19.389  0.00  0.00    +0.000 A 
ATOM      7 CL   UNL     1       0.143  16.857  18.922  0.00  0.00    +0.000 Cl
ATOM      8  N   UNL     1      -2.110  13.320  21.785  0.00  0.00    +0.000 N 
ATOM      9  C   UNL     1      -3.323  13.847  22.141  0.00  0.00    +0.000 C 
ATOM     10  O   UNL     1      -3.881  14.780  21.578  0.00  0.00    +0.000 OA
ATOM     11  N   UNL     1      -3.953  13.128  23.162  0.00  0.00    +0.000 N 
ATOM     12  C   UNL     1      -5.324  12.876  22.933  0.00  0.00    +0.000 A 
ATOM     13  C   UNL     1      -6.337  13.145  23.834  0.00  0.00    +0.000 A 
ATOM     14  N   UNL     1      -7.654  13.010  23.514  0.00  0.00    +0.000 NA
ATOM     15  C   UNL     1      -7.914  12.576  22.248  0.00  0.00    +0.000 A 
ATOM     16  C   UNL     1      -6.913  12.246  21.367  0.00  0.00    +0.000 A 
ATOM     17  N   UNL     1      -5.613  12.368  21.721  0.00  0.00    +0.000 NA
ATOM     18  O   UNL     1      -7.177  11.768  20.079  0.00  0.00    +0.000 OA
ATOM     19  C   UNL     1      -5.917  11.517  19.451  0.00  0.00    +0.000 C 
ATOM     20  C   UNL     1      -5.886  10.928  18.041  0.00  0.00    +0.000 C 
ATOM     21  C   UNL     1      -4.419  10.551  17.860  0.00  0.00    +0.000 C 
ATOM     22  C   UNL     1      -3.482  11.450  17.503  0.00  0.00    +0.000 C 
ATOM     23  C   UNL     1      -2.019  11.373  17.885  0.00  0.00    +0.000 C 
ATOM     24  O   UNL     1      -1.725  12.629  18.503  0.00  0.00    +0.000 OA
ATOM     25  H   UNL     1      -1.793  12.501  22.274  0.00  0.00    +0.000 HD
ATOM     26  H   UNL     1      -3.711  13.468  24.078  0.00  0.00    +0.000 HD
ENDROOT
BRANCH   1  27
ATOM     27  N   UNL     1       2.107  14.491  18.796  0.00  0.00    +0.000 N 
ATOM     28  H   UNL     1       2.467  13.802  18.136  0.00  0.00    +0.000 HD
ATOM     29  H   UNL     1       2.671  14.440  19.646  0.00  0.00    +0.000 HD
ENDBRANCH   1  27
TORSDOF 1
ENDMDL
