MODEL 1
REMARK VINA RESULT:      -7.8      0.000      0.000
REMARK  Name = 
REMARK  5 active torsions:
REMARK  status: ('A' for Active; 'I' for Inactive)
REMARK    1  A    between atoms: C_2  and  C_24
REMARK    2  A    between atoms: N_3  and  C_4
REMARK    3  A    between atoms: C_7  and  C_8
REMARK    4  A    between atoms: C_8  and  N_9
REMARK    5  A    between atoms: C_10  and  C_12
REMARK                            x       y       z     vdW  Elec       q    Type
REMARK                         _______ _______ _______ _____ _____    ______ ____
ROOT
ATOM      1  C   UNL     1       2.955   7.070  18.187  0.00  0.00    +0.000 A 
ATOM      2  C   UNL     1       2.455   8.299  17.753  0.00  0.00    +0.000 A 
ATOM      3  C   UNL     1       1.682   9.105  18.596  0.00  0.00    +0.000 A 
ATOM      4  C   UNL     1       1.395   8.703  19.901  0.00  0.00    +0.000 A 
ATOM      5  C   UNL     1       1.872   7.459  20.336  0.00  0.00    +0.000 A 
ATOM      6  C   UNL     1       2.639   6.644  19.483  0.00  0.00    +0.000 A 
ENDROOT
BRANCH   1   9
ATOM      7  O   UNL     1       5.695   7.505  17.312  0.00  0.00    +0.000 OA
ATOM      8  C   UNL     1       5.049   6.529  16.944  0.00  0.00    +0.000 C 
ATOM      9  N   UNL     1       3.757   6.236  17.370  0.00  0.00    +0.000 N 
ATOM     10  H   UNL     1       3.414   5.317  17.137  0.00  0.00    +0.000 HD
BRANCH   8  11
ATOM     11  C   UNL     1       5.637   5.564  16.033  0.00  0.00    +0.000 A 
ATOM     12  C   UNL     1       5.188   4.303  15.693  0.00  0.00    +0.000 A 
ATOM     13  C   UNL     1       6.145   3.743  14.817  0.00  0.00    +0.000 A 
ATOM     14  C   UNL     1       7.121   4.701  14.670  0.00  0.00    +0.000 A 
ATOM     15  O   UNL     1       6.820   5.817  15.385  0.00  0.00    +0.000 OA
ENDBRANCH   8  11
ENDBRANCH   1   9
BRANCH   4  16
ATOM     16  C   UNL     1       0.631   9.619  20.817  0.00  0.00    +0.000 C 
BRANCH  16  17
ATOM     17  N   UNL     1      -0.616  10.106  20.265  0.00  0.00    +0.000 N 
ATOM     18  C   UNL     1      -0.759  11.464  20.089  0.00  0.00    +0.000 C 
ATOM     19  O   UNL     1       0.131  12.245  20.435  0.00  0.00    +0.000 OA
ATOM     20  H   UNL     1      -1.289   9.461  19.866  0.00  0.00    +0.000 HD
BRANCH  18  21
ATOM     21  C   UNL     1      -2.002  11.972  19.333  0.00  0.00    +0.000 C 
ATOM     22  C   UNL     1      -3.029  12.420  20.384  0.00  0.00    +0.000 C 
ATOM     23  C   UNL     1      -4.217  12.467  19.509  0.00  0.00    +0.000 A 
ATOM     24  C   UNL     1      -5.423  13.115  19.702  0.00  0.00    +0.000 A 
ATOM     25  C   UNL     1      -6.408  12.945  18.733  0.00  0.00    +0.000 A 
ATOM     26 CL   UNL     1      -7.916  13.759  18.909  0.00  0.00    +0.000 Cl
ATOM     27  C   UNL     1      -6.185  12.125  17.612  0.00  0.00    +0.000 A 
ATOM     28  C   UNL     1      -4.954  11.469  17.444  0.00  0.00    +0.000 A 
ATOM     29  C   UNL     1      -3.978  11.665  18.400  0.00  0.00    +0.000 A 
ATOM     30  O   UNL     1      -2.702  11.129  18.394  0.00  0.00    +0.000 OA
ENDBRANCH  18  21
ENDBRANCH  16  17
ENDBRANCH   4  16
TORSDOF 5
ENDMDL
MODEL 2
REMARK VINA RESULT:      -7.6      3.176      3.872
REMARK  Name = 
REMARK  5 active torsions:
REMARK  status: ('A' for Active; 'I' for Inactive)
REMARK    1  A    between atoms: C_2  and  C_24
REMARK    2  A    between atoms: N_3  and  C_4
REMARK    3  A    between atoms: C_7  and  C_8
REMARK    4  A    between atoms: C_8  and  N_9
REMARK    5  A    between atoms: C_10  and  C_12
REMARK                            x       y       z     vdW  Elec       q    Type
REMARK                         _______ _______ _______ _____ _____    ______ ____
ROOT
ATOM      1  C   UNL     1       3.779   5.839  17.592  0.00  0.00    +0.000 A 
ATOM      2  C   UNL     1       3.604   5.141  18.788  0.00  0.00    +0.000 A 
ATOM      3  C   UNL     1       2.901   5.704  19.859  0.00  0.00    +0.000 A 
ATOM      4  C   UNL     1       2.346   6.981  19.756  0.00  0.00    +0.000 A 
ATOM      5  C   UNL     1       2.539   7.697  18.567  0.00  0.00    +0.000 A 
ATOM      6  C   UNL     1       3.258   7.135  17.496  0.00  0.00    +0.000 A 
ENDROOT
BRANCH   1   9
ATOM      7  O   UNL     1       6.327   6.677  16.465  0.00  0.00    +0.000 OA
ATOM      8  C   UNL     1       5.663   5.777  15.958  0.00  0.00    +0.000 C 
ATOM      9  N   UNL     1       4.467   5.294  16.480  0.00  0.00    +0.000 N 
ATOM     10  H   UNL     1       4.123   4.439  16.072  0.00  0.00    +0.000 HD
BRANCH   8  11
ATOM     11  C   UNL     1       6.129   5.115  14.754  0.00  0.00    +0.000 A 
ATOM     12  C   UNL     1       5.560   4.061  14.065  0.00  0.00    +0.000 A 
ATOM     13  C   UNL     1       6.429   3.744  12.998  0.00  0.00    +0.000 A 
ATOM     14  C   UNL     1       7.478   4.630  13.096  0.00  0.00    +0.000 A 
ATOM     15  O   UNL     1       7.303   5.477  14.143  0.00  0.00    +0.000 OA
ENDBRANCH   8  11
ENDBRANCH   1   9
BRANCH   4  16
ATOM     16  C   UNL     1       1.526   7.536  20.887  0.00  0.00    +0.000 C 
BRANCH  16  17
ATOM     17  N   UNL     1       1.103   8.908  20.697  0.00  0.00    +0.000 N 
ATOM     18  C   UNL     1      -0.068   9.312  21.296  0.00  0.00    +0.000 C 
ATOM     19  O   UNL     1      -0.761   8.517  21.935  0.00  0.00    +0.000 OA
ATOM     20  H   UNL     1       1.731   9.587  20.283  0.00  0.00    +0.000 HD
BRANCH  18  21
ATOM     21  C   UNL     1      -0.426  10.810  21.253  0.00  0.00    +0.000 C 
ATOM     22  C   UNL     1      -0.259  11.283  19.801  0.00  0.00    +0.000 C 
ATOM     23  C   UNL     1      -0.243  12.737  20.054  0.00  0.00    +0.000 A 
ATOM     24  C   UNL     1      -0.462  13.783  19.177  0.00  0.00    +0.000 A 
ATOM     25  C   UNL     1      -0.328  15.078  19.671  0.00  0.00    +0.000 A 
ATOM     26 CL   UNL     1      -0.624  16.416  18.627  0.00  0.00    +0.000 Cl
ATOM     27  C   UNL     1       0.040  15.306  21.010  0.00  0.00    +0.000 A 
ATOM     28  C   UNL     1       0.268  14.226  21.879  0.00  0.00    +0.000 A 
ATOM     29  C   UNL     1       0.108  12.948  21.382  0.00  0.00    +0.000 A 
ATOM     30  O   UNL     1       0.260  11.767  22.088  0.00  0.00    +0.000 OA
ENDBRANCH  18  21
ENDBRANCH  16  17
ENDBRANCH   4  16
TORSDOF 5
ENDMDL
MODEL 3
REMARK VINA RESULT:      -7.6      3.656      4.104
REMARK  Name = 
REMARK  5 active torsions:
REMARK  status: ('A' for Active; 'I' for Inactive)
REMARK    1  A    between atoms: C_2  and  C_24
REMARK    2  A    between atoms: N_3  and  C_4
REMARK    3  A    between atoms: C_7  and  C_8
REMARK    4  A    between atoms: C_8  and  N_9
REMARK    5  A    between atoms: C_10  and  C_12
REMARK                            x       y       z     vdW  Elec       q    Type
REMARK                         _______ _______ _______ _____ _____    ______ ____
ROOT
ATOM      1  C   UNL     1       3.970   5.565  17.184  0.00  0.00    +0.000 A 
ATOM      2  C   UNL     1       3.715   6.886  17.558  0.00  0.00    +0.000 A 
ATOM      3  C   UNL     1       2.996   7.184  18.721  0.00  0.00    +0.000 A 
ATOM      4  C   UNL     1       2.518   6.164  19.545  0.00  0.00    +0.000 A 
ATOM      5  C   UNL     1       2.749   4.835  19.164  0.00  0.00    +0.000 A 
ATOM      6  C   UNL     1       3.461   4.537  17.987  0.00  0.00    +0.000 A 
ENDROOT
BRANCH   1   9
ATOM      7  O   UNL     1       6.857   5.348  16.894  0.00  0.00    +0.000 OA
ATOM      8  C   UNL     1       6.099   5.189  15.941  0.00  0.00    +0.000 C 
ATOM      9  N   UNL     1       4.712   5.225  16.026  0.00  0.00    +0.000 N 
ATOM     10  H   UNL     1       4.212   4.899  15.214  0.00  0.00    +0.000 HD
BRANCH   8  11
ATOM     11  C   UNL     1       6.634   4.906  14.622  0.00  0.00    +0.000 A 
ATOM     12  C   UNL     1       6.227   3.959  13.702  0.00  0.00    +0.000 A 
ATOM     13  C   UNL     1       7.107   4.043  12.601  0.00  0.00    +0.000 A 
ATOM     14  C   UNL     1       7.998   5.044  12.911  0.00  0.00    +0.000 A 
ATOM     15  O   UNL     1       7.715   5.589  14.124  0.00  0.00    +0.000 OA
ENDBRANCH   8  11
ENDBRANCH   1   9
BRANCH   4  16
ATOM     16  C   UNL     1       1.817   6.505  20.831  0.00  0.00    +0.000 C 
BRANCH  16  17
ATOM     17  N   UNL     1       1.802   7.919  21.142  0.00  0.00    +0.000 N 
ATOM     18  C   UNL     1       0.581   8.525  21.339  0.00  0.00    +0.000 C 
ATOM     19  O   UNL     1      -0.469   7.891  21.208  0.00  0.00    +0.000 OA
ATOM     20  H   UNL     1       2.661   8.404  21.373  0.00  0.00    +0.000 HD
BRANCH  18  21
ATOM     21  C   UNL     1       0.566   9.978  21.851  0.00  0.00    +0.000 C 
ATOM     22  C   UNL     1      -0.768  10.195  22.583  0.00  0.00    +0.000 C 
ATOM     23  C   UNL     1      -0.751  11.671  22.617  0.00  0.00    +0.000 A 
ATOM     24  C   UNL     1      -1.467  12.538  23.421  0.00  0.00    +0.000 A 
ATOM     25  C   UNL     1      -1.302  13.904  23.203  0.00  0.00    +0.000 A 
ATOM     26 CL   UNL     1      -2.146  15.026  24.201  0.00  0.00    +0.000 Cl
ATOM     27  C   UNL     1      -0.452  14.375  22.186  0.00  0.00    +0.000 A 
ATOM     28  C   UNL     1       0.257  13.474  21.375  0.00  0.00    +0.000 A 
ATOM     29  C   UNL     1       0.102  12.123  21.618  0.00  0.00    +0.000 A 
ATOM     30  O   UNL     1       0.734  11.090  20.947  0.00  0.00    +0.000 OA
ENDBRANCH  18  21
ENDBRANCH  16  17
ENDBRANCH   4  16
TORSDOF 5
ENDMDL
MODEL 4
REMARK VINA RESULT:      -7.5      2.116      2.652
REMARK  Name = 
REMARK  5 active torsions:
REMARK  status: ('A' for Active; 'I' for Inactive)
REMARK    1  A    between atoms: C_2  and  C_24
REMARK    2  A    between atoms: N_3  and  C_4
REMARK    3  A    between atoms: C_7  and  C_8
REMARK    4  A    between atoms: C_8  and  N_9
REMARK    5  A    between atoms: C_10  and  C_12
REMARK                            x       y       z     vdW  Elec       q    Type
REMARK                         _______ _______ _______ _____ _____    ______ ____
ROOT
ATOM      1  C   UNL     1       3.103   6.344  18.293  0.00  0.00    +0.000 A 
ATOM      2  C   UNL     1       2.696   7.679  18.307  0.00  0.00    +0.000 A 
ATOM      3  C   UNL     1       1.990   8.210  19.392  0.00  0.00    +0.000 A 
ATOM      4  C   UNL     1       1.679   7.416  20.497  0.00  0.00    +0.000 A 
ATOM      5  C   UNL     1       2.062   6.068  20.480  0.00  0.00    +0.000 A 
ATOM      6  C   UNL     1       2.761   5.533  19.382  0.00  0.00    +0.000 A 
ENDROOT
BRANCH   1   9
ATOM      7  O   UNL     1       5.990   6.121  18.005  0.00  0.00    +0.000 OA
ATOM      8  C   UNL     1       5.223   5.747  17.122  0.00  0.00    +0.000 C 
ATOM      9  N   UNL     1       3.836   5.776  17.221  0.00  0.00    +0.000 N 
ATOM     10  H   UNL     1       3.333   5.274  16.507  0.00  0.00    +0.000 HD
BRANCH   8  11
ATOM     11  C   UNL     1       5.746   5.197  15.885  0.00  0.00    +0.000 A 
ATOM     12  C   UNL     1       5.294   4.117  15.152  0.00  0.00    +0.000 A 
ATOM     13  C   UNL     1       6.180   3.950  14.065  0.00  0.00    +0.000 A 
ATOM     14  C   UNL     1       7.120   4.946  14.195  0.00  0.00    +0.000 A 
ATOM     15  O   UNL     1       6.863   5.720  15.282  0.00  0.00    +0.000 OA
ENDBRANCH   8  11
ENDBRANCH   1   9
BRANCH   4  16
ATOM     16  C   UNL     1       0.991   8.026  21.688  0.00  0.00    +0.000 C 
BRANCH  16  17
ATOM     17  N   UNL     1       0.196   9.196  21.379  0.00  0.00    +0.000 N 
ATOM     18  C   UNL     1      -0.128  10.048  22.411  0.00  0.00    +0.000 C 
ATOM     19  O   UNL     1       0.208   9.795  23.571  0.00  0.00    +0.000 OA
ATOM     20  H   UNL     1       0.031   9.467  20.417  0.00  0.00    +0.000 HD
BRANCH  18  21
ATOM     21  C   UNL     1      -0.810  11.385  22.063  0.00  0.00    +0.000 C 
ATOM     22  C   UNL     1      -1.671  11.791  23.269  0.00  0.00    +0.000 C 
ATOM     23  C   UNL     1      -2.505  12.808  22.598  0.00  0.00    +0.000 A 
ATOM     24  C   UNL     1      -3.264  13.823  23.150  0.00  0.00    +0.000 A 
ATOM     25  C   UNL     1      -4.011  14.615  22.282  0.00  0.00    +0.000 A 
ATOM     26 CL   UNL     1      -4.946  15.915  22.917  0.00  0.00    +0.000 Cl
ATOM     27  C   UNL     1      -4.006  14.371  20.896  0.00  0.00    +0.000 A 
ATOM     28  C   UNL     1      -3.235  13.326  20.361  0.00  0.00    +0.000 A 
ATOM     29  C   UNL     1      -2.480  12.564  21.231  0.00  0.00    +0.000 A 
ATOM     30  O   UNL     1      -1.642  11.516  20.890  0.00  0.00    +0.000 OA
ENDBRANCH  18  21
ENDBRANCH  16  17
ENDBRANCH   4  16
TORSDOF 5
ENDMDL
MODEL 5
REMARK VINA RESULT:      -7.5      4.592     11.284
REMARK  Name = 
REMARK  5 active torsions:
REMARK  status: ('A' for Active; 'I' for Inactive)
REMARK    1  A    between atoms: C_2  and  C_24
REMARK    2  A    between atoms: N_3  and  C_4
REMARK    3  A    between atoms: C_7  and  C_8
REMARK    4  A    between atoms: C_8  and  N_9
REMARK    5  A    between atoms: C_10  and  C_12
REMARK                            x       y       z     vdW  Elec       q    Type
REMARK                         _______ _______ _______ _____ _____    ______ ____
ROOT
ATOM      1  C   UNL     1      -0.730  11.391  21.794  0.00  0.00    +0.000 A 
ATOM      2  C   UNL     1      -0.625  10.529  22.886  0.00  0.00    +0.000 A 
ATOM      3  C   UNL     1      -0.144   9.223  22.736  0.00  0.00    +0.000 A 
ATOM      4  C   UNL     1       0.253   8.750  21.484  0.00  0.00    +0.000 A 
ATOM      5  C   UNL     1       0.128   9.602  20.378  0.00  0.00    +0.000 A 
ATOM      6  C   UNL     1      -0.369  10.909  20.530  0.00  0.00    +0.000 A 
ENDROOT
BRANCH   1   9
ATOM      7  O   UNL     1      -3.374  12.316  22.581  0.00  0.00    +0.000 OA
ATOM      8  C   UNL     1      -2.491  13.099  22.243  0.00  0.00    +0.000 C 
ATOM      9  N   UNL     1      -1.194  12.725  21.910  0.00  0.00    +0.000 N 
ATOM     10  H   UNL     1      -0.525  13.475  21.831  0.00  0.00    +0.000 HD
BRANCH   8  11
ATOM     11  C   UNL     1      -2.755  14.526  22.206  0.00  0.00    +0.000 A 
ATOM     12  C   UNL     1      -2.819  15.371  21.116  0.00  0.00    +0.000 A 
ATOM     13  C   UNL     1      -3.041  16.675  21.612  0.00  0.00    +0.000 A 
ATOM     14  C   UNL     1      -3.106  16.547  22.980  0.00  0.00    +0.000 A 
ATOM     15  O   UNL     1      -2.952  15.250  23.356  0.00  0.00    +0.000 OA
ENDBRANCH   8  11
ENDBRANCH   1   9
BRANCH   4  16
ATOM     16  C   UNL     1       0.843   7.372  21.357  0.00  0.00    +0.000 C 
BRANCH  16  17
ATOM     17  N   UNL     1       2.035   7.310  20.536  0.00  0.00    +0.000 N 
ATOM     18  C   UNL     1       2.440   6.078  20.076  0.00  0.00    +0.000 C 
ATOM     19  O   UNL     1       1.832   5.052  20.393  0.00  0.00    +0.000 OA
ATOM     20  H   UNL     1       2.455   8.159  20.174  0.00  0.00    +0.000 HD
BRANCH  18  21
ATOM     21  C   UNL     1       3.592   6.026  19.055  0.00  0.00    +0.000 C 
ATOM     22  C   UNL     1       3.096   5.227  17.839  0.00  0.00    +0.000 C 
ATOM     23  C   UNL     1       4.407   4.959  17.215  0.00  0.00    +0.000 A 
ATOM     24  C   UNL     1       4.699   4.584  15.917  0.00  0.00    +0.000 A 
ATOM     25  C   UNL     1       6.034   4.336  15.603  0.00  0.00    +0.000 A 
ATOM     26 CL   UNL     1       6.455   3.899  13.992  0.00  0.00    +0.000 Cl
ATOM     27  C   UNL     1       7.038   4.445  16.582  0.00  0.00    +0.000 A 
ATOM     28  C   UNL     1       6.714   4.819  17.897  0.00  0.00    +0.000 A 
ATOM     29  C   UNL     1       5.390   5.084  18.188  0.00  0.00    +0.000 A 
ATOM     30  O   UNL     1       4.883   5.489  19.411  0.00  0.00    +0.000 OA
ENDBRANCH  18  21
ENDBRANCH  16  17
ENDBRANCH   4  16
TORSDOF 5
ENDMDL
MODEL 6
REMARK VINA RESULT:      -7.5      4.517     11.217
REMARK  Name = 
REMARK  5 active torsions:
REMARK  status: ('A' for Active; 'I' for Inactive)
REMARK    1  A    between atoms: C_2  and  C_24
REMARK    2  A    between atoms: N_3  and  C_4
REMARK    3  A    between atoms: C_7  and  C_8
REMARK    4  A    between atoms: C_8  and  N_9
REMARK    5  A    between atoms: C_10  and  C_12
REMARK                            x       y       z     vdW  Elec       q    Type
REMARK                         _______ _______ _______ _____ _____    ______ ____
ROOT
ATOM      1  C   UNL     1      -0.505  11.431  21.997  0.00  0.00    +0.000 A 
ATOM      2  C   UNL     1       0.266  11.108  20.879  0.00  0.00    +0.000 A 
ATOM      3  C   UNL     1       0.745   9.809  20.678  0.00  0.00    +0.000 A 
ATOM      4  C   UNL     1       0.456   8.794  21.593  0.00  0.00    +0.000 A 
ATOM      5  C   UNL     1      -0.297   9.115  22.730  0.00  0.00    +0.000 A 
ATOM      6  C   UNL     1      -0.766  10.426  22.936  0.00  0.00    +0.000 A 
ENDROOT
BRANCH   1   9
ATOM      7  O   UNL     1      -2.859  12.662  20.810  0.00  0.00    +0.000 OA
ATOM      8  C   UNL     1      -2.129  13.278  21.581  0.00  0.00    +0.000 C 
ATOM      9  N   UNL     1      -1.023  12.730  22.223  0.00  0.00    +0.000 N 
ATOM     10  H   UNL     1      -0.624  13.285  22.963  0.00  0.00    +0.000 HD
BRANCH   8  11
ATOM     11  C   UNL     1      -2.414  14.663  21.908  0.00  0.00    +0.000 A 
ATOM     12  C   UNL     1      -1.741  15.805  21.519  0.00  0.00    +0.000 A 
ATOM     13  C   UNL     1      -2.375  16.897  22.152  0.00  0.00    +0.000 A 
ATOM     14  C   UNL     1      -3.404  16.356  22.887  0.00  0.00    +0.000 A 
ATOM     15  O   UNL     1      -3.452  15.006  22.737  0.00  0.00    +0.000 OA
ENDBRANCH   8  11
ENDBRANCH   1   9
BRANCH   4  16
ATOM     16  C   UNL     1       0.911   7.387  21.319  0.00  0.00    +0.000 C 
BRANCH  16  17
ATOM     17  N   UNL     1       2.121   7.297  20.529  0.00  0.00    +0.000 N 
ATOM     18  C   UNL     1       2.418   6.090  19.935  0.00  0.00    +0.000 C 
ATOM     19  O   UNL     1       1.699   5.104  20.112  0.00  0.00    +0.000 OA
ATOM     20  H   UNL     1       2.637   8.133  20.282  0.00  0.00    +0.000 HD
BRANCH  18  21
ATOM     21  C   UNL     1       3.598   6.038  18.946  0.00  0.00    +0.000 C 
ATOM     22  C   UNL     1       3.143   5.219  17.729  0.00  0.00    +0.000 C 
ATOM     23  C   UNL     1       4.472   4.957  17.143  0.00  0.00    +0.000 A 
ATOM     24  C   UNL     1       4.804   4.568  15.859  0.00  0.00    +0.000 A 
ATOM     25  C   UNL     1       6.149   4.331  15.584  0.00  0.00    +0.000 A 
ATOM     26 CL   UNL     1       6.618   3.878  13.990  0.00  0.00    +0.000 Cl
ATOM     27  C   UNL     1       7.125   4.463  16.588  0.00  0.00    +0.000 A 
ATOM     28  C   UNL     1       6.761   4.849  17.889  0.00  0.00    +0.000 A 
ATOM     29  C   UNL     1       5.428   5.104  18.141  0.00  0.00    +0.000 A 
ATOM     30  O   UNL     1       4.884   5.520  19.345  0.00  0.00    +0.000 OA
ENDBRANCH  18  21
ENDBRANCH  16  17
ENDBRANCH   4  16
TORSDOF 5
ENDMDL
MODEL 7
REMARK VINA RESULT:      -7.5      4.460     11.245
REMARK  Name = 
REMARK  5 active torsions:
REMARK  status: ('A' for Active; 'I' for Inactive)
REMARK    1  A    between atoms: C_2  and  C_24
REMARK    2  A    between atoms: N_3  and  C_4
REMARK    3  A    between atoms: C_7  and  C_8
REMARK    4  A    between atoms: C_8  and  N_9
REMARK    5  A    between atoms: C_10  and  C_12
REMARK                            x       y       z     vdW  Elec       q    Type
REMARK                         _______ _______ _______ _____ _____    ______ ____
ROOT
ATOM      1  C   UNL     1      -2.656  12.462  21.417  0.00  0.00    +0.000 A 
ATOM      2  C   UNL     1      -2.545  12.672  20.042  0.00  0.00    +0.000 A 
ATOM      3  C   UNL     1      -1.430  12.220  19.327  0.00  0.00    +0.000 A 
ATOM      4  C   UNL     1      -0.397  11.539  19.974  0.00  0.00    +0.000 A 
ATOM      5  C   UNL     1      -0.490  11.346  21.359  0.00  0.00    +0.000 A 
ATOM      6  C   UNL     1      -1.606  11.811  22.077  0.00  0.00    +0.000 A 
ENDROOT
BRANCH   1   9
ATOM      7  O   UNL     1      -5.470  11.907  20.923  0.00  0.00    +0.000 OA
ATOM      8  C   UNL     1      -5.107  12.628  21.849  0.00  0.00    +0.000 C 
ATOM      9  N   UNL     1      -3.779  12.886  22.170  0.00  0.00    +0.000 N 
ATOM     10  H   UNL     1      -3.620  13.340  23.056  0.00  0.00    +0.000 HD
BRANCH   8  11
ATOM     11  C   UNL     1      -6.089  13.248  22.720  0.00  0.00    +0.000 A 
ATOM     12  C   UNL     1      -6.511  14.563  22.759  0.00  0.00    +0.000 A 
ATOM     13  C   UNL     1      -7.432  14.673  23.824  0.00  0.00    +0.000 A 
ATOM     14  C   UNL     1      -7.524  13.413  24.369  0.00  0.00    +0.000 A 
ATOM     15  O   UNL     1      -6.730  12.535  23.702  0.00  0.00    +0.000 OA
ENDBRANCH   8  11
ENDBRANCH   1   9
BRANCH   4  16
ATOM     16  C   UNL     1       0.755  10.992  19.176  0.00  0.00    +0.000 C 
BRANCH  16  17
ATOM     17  N   UNL     1       1.153   9.651  19.551  0.00  0.00    +0.000 N 
ATOM     18  C   UNL     1       1.823   8.891  18.619  0.00  0.00    +0.000 C 
ATOM     19  O   UNL     1       2.035   9.323  17.483  0.00  0.00    +0.000 OA
ATOM     20  H   UNL     1       1.092   9.347  20.516  0.00  0.00    +0.000 HD
BRANCH  18  21
ATOM     21  C   UNL     1       2.410   7.540  19.070  0.00  0.00    +0.000 C 
ATOM     22  C   UNL     1       2.303   6.571  17.882  0.00  0.00    +0.000 C 
ATOM     23  C   UNL     1       2.518   5.310  18.620  0.00  0.00    +0.000 A 
ATOM     24  C   UNL     1       2.889   4.067  18.143  0.00  0.00    +0.000 A 
ATOM     25  C   UNL     1       2.964   3.021  19.059  0.00  0.00    +0.000 A 
ATOM     26 CL   UNL     1       3.455   1.460  18.521  0.00  0.00    +0.000 Cl
ATOM     27  C   UNL     1       2.651   3.225  20.416  0.00  0.00    +0.000 A 
ATOM     28  C   UNL     1       2.267   4.496  20.874  0.00  0.00    +0.000 A 
ATOM     29  C   UNL     1       2.219   5.529  19.959  0.00  0.00    +0.000 A 
ATOM     30  O   UNL     1       1.891   6.848  20.225  0.00  0.00    +0.000 OA
ENDBRANCH  18  21
ENDBRANCH  16  17
ENDBRANCH   4  16
TORSDOF 5
ENDMDL
MODEL 8
REMARK VINA RESULT:      -7.5      4.713     11.165
REMARK  Name = 
REMARK  5 active torsions:
REMARK  status: ('A' for Active; 'I' for Inactive)
REMARK    1  A    between atoms: C_2  and  C_24
REMARK    2  A    between atoms: N_3  and  C_4
REMARK    3  A    between atoms: C_7  and  C_8
REMARK    4  A    between atoms: C_8  and  N_9
REMARK    5  A    between atoms: C_10  and  C_12
REMARK                            x       y       z     vdW  Elec       q    Type
REMARK                         _______ _______ _______ _____ _____    ______ ____
ROOT
ATOM      1  C   UNL     1      -0.643  11.076  21.470  0.00  0.00    +0.000 A 
ATOM      2  C   UNL     1      -0.003  10.705  20.287  0.00  0.00    +0.000 A 
ATOM      3  C   UNL     1       0.667   9.481  20.178  0.00  0.00    +0.000 A 
ATOM      4  C   UNL     1       0.705   8.592  21.253  0.00  0.00    +0.000 A 
ATOM      5  C   UNL     1       0.085   8.967  22.453  0.00  0.00    +0.000 A 
ATOM      6  C   UNL     1      -0.576  10.204  22.564  0.00  0.00    +0.000 A 
ENDROOT
BRANCH   1   9
ATOM      7  O   UNL     1       0.393  13.670  22.285  0.00  0.00    +0.000 OA
ATOM      8  C   UNL     1      -0.800  13.495  22.057  0.00  0.00    +0.000 C 
ATOM      9  N   UNL     1      -1.348  12.297  21.612  0.00  0.00    +0.000 N 
ATOM     10  H   UNL     1      -2.302  12.342  21.290  0.00  0.00    +0.000 HD
BRANCH   8  11
ATOM     11  C   UNL     1      -1.741  14.590  22.212  0.00  0.00    +0.000 A 
ATOM     12  C   UNL     1      -2.927  14.624  22.920  0.00  0.00    +0.000 A 
ATOM     13  C   UNL     1      -3.502  15.896  22.706  0.00  0.00    +0.000 A 
ATOM     14  C   UNL     1      -2.628  16.567  21.883  0.00  0.00    +0.000 A 
ATOM     15  O   UNL     1      -1.548  15.796  21.588  0.00  0.00    +0.000 OA
ENDBRANCH   8  11
ENDBRANCH   1   9
BRANCH   4  16
ATOM     16  C   UNL     1       1.361   7.248  21.091  0.00  0.00    +0.000 C 
BRANCH  16  17
ATOM     17  N   UNL     1       2.449   7.229  20.136  0.00  0.00    +0.000 N 
ATOM     18  C   UNL     1       3.062   6.024  19.877  0.00  0.00    +0.000 C 
ATOM     19  O   UNL     1       2.725   5.000  20.476  0.00  0.00    +0.000 OA
ATOM     20  H   UNL     1       2.638   8.038  19.555  0.00  0.00    +0.000 HD
BRANCH  18  21
ATOM     21  C   UNL     1       4.090   5.963  18.731  0.00  0.00    +0.000 C 
ATOM     22  C   UNL     1       3.485   5.096  17.615  0.00  0.00    +0.000 C 
ATOM     23  C   UNL     1       4.724   4.842  16.853  0.00  0.00    +0.000 A 
ATOM     24  C   UNL     1       4.878   4.418  15.546  0.00  0.00    +0.000 A 
ATOM     25  C   UNL     1       6.175   4.198  15.089  0.00  0.00    +0.000 A 
ATOM     26 CL   UNL     1       6.423   3.704  13.458  0.00  0.00    +0.000 Cl
ATOM     27  C   UNL     1       7.282   4.382  15.938  0.00  0.00    +0.000 A 
ATOM     28  C   UNL     1       7.098   4.802  17.266  0.00  0.00    +0.000 A 
ATOM     29  C   UNL     1       5.808   5.039  17.699  0.00  0.00    +0.000 A 
ATOM     30  O   UNL     1       5.432   5.482  18.956  0.00  0.00    +0.000 OA
ENDBRANCH  18  21
ENDBRANCH  16  17
ENDBRANCH   4  16
TORSDOF 5
ENDMDL
MODEL 9
REMARK VINA RESULT:      -7.4      3.767      4.319
REMARK  Name = 
REMARK  5 active torsions:
REMARK  status: ('A' for Active; 'I' for Inactive)
REMARK    1  A    between atoms: C_2  and  C_24
REMARK    2  A    between atoms: N_3  and  C_4
REMARK    3  A    between atoms: C_7  and  C_8
REMARK    4  A    between atoms: C_8  and  N_9
REMARK    5  A    between atoms: C_10  and  C_12
REMARK                            x       y       z     vdW  Elec       q    Type
REMARK                         _______ _______ _______ _____ _____    ______ ____
ROOT
ATOM      1  C   UNL     1       4.106   4.742  17.287  0.00  0.00    +0.000 A 
ATOM      2  C   UNL     1       2.711   4.793  17.300  0.00  0.00    +0.000 A 
ATOM      3  C   UNL     1       2.009   5.138  18.461  0.00  0.00    +0.000 A 
ATOM      4  C   UNL     1       2.689   5.447  19.640  0.00  0.00    +0.000 A 
ATOM      5  C   UNL     1       4.089   5.374  19.642  0.00  0.00    +0.000 A 
ATOM      6  C   UNL     1       4.792   5.015  18.477  0.00  0.00    +0.000 A 
ENDROOT
BRANCH   1   9
ATOM      7  O   UNL     1       5.565   6.538  15.523  0.00  0.00    +0.000 OA
ATOM      8  C   UNL     1       5.486   5.334  15.295  0.00  0.00    +0.000 C 
ATOM      9  N   UNL     1       4.852   4.417  16.127  0.00  0.00    +0.000 N 
ATOM     10  H   UNL     1       5.017   3.445  15.918  0.00  0.00    +0.000 HD
BRANCH   8  11
ATOM     11  C   UNL     1       6.108   4.772  14.111  0.00  0.00    +0.000 A 
ATOM     12  C   UNL     1       5.697   3.707  13.334  0.00  0.00    +0.000 A 
ATOM     13  C   UNL     1       6.677   3.518  12.335  0.00  0.00    +0.000 A 
ATOM     14  C   UNL     1       7.629   4.486  12.558  0.00  0.00    +0.000 A 
ATOM     15  O   UNL     1       7.291   5.265  13.619  0.00  0.00    +0.000 OA
ENDBRANCH   8  11
ENDBRANCH   1   9
BRANCH   4  16
ATOM     16  C   UNL     1       1.921   5.893  20.854  0.00  0.00    +0.000 C 
BRANCH  16  17
ATOM     17  N   UNL     1       1.959   7.321  21.090  0.00  0.00    +0.000 N 
ATOM     18  C   UNL     1       0.762   7.995  21.171  0.00  0.00    +0.000 C 
ATOM     19  O   UNL     1      -0.309   7.407  21.001  0.00  0.00    +0.000 OA
ATOM     20  H   UNL     1       2.825   7.775  21.354  0.00  0.00    +0.000 HD
BRANCH  18  21
ATOM     21  C   UNL     1       0.788   9.473  21.605  0.00  0.00    +0.000 C 
ATOM     22  C   UNL     1      -0.530   9.762  22.338  0.00  0.00    +0.000 C 
ATOM     23  C   UNL     1      -0.477  11.237  22.294  0.00  0.00    +0.000 A 
ATOM     24  C   UNL     1      -1.162  12.163  23.058  0.00  0.00    +0.000 A 
ATOM     25  C   UNL     1      -0.966  13.511  22.767  0.00  0.00    +0.000 A 
ATOM     26 CL   UNL     1      -1.769  14.705  23.712  0.00  0.00    +0.000 Cl
ATOM     27  C   UNL     1      -0.117  13.906  21.717  0.00  0.00    +0.000 A 
ATOM     28  C   UNL     1       0.560  12.946  20.948  0.00  0.00    +0.000 A 
ATOM     29  C   UNL     1       0.375  11.614  21.263  0.00  0.00    +0.000 A 
ATOM     30  O   UNL     1       0.974  10.531  20.641  0.00  0.00    +0.000 OA
ENDBRANCH  18  21
ENDBRANCH  16  17
ENDBRANCH   4  16
TORSDOF 5
ENDMDL
