MODEL 1
REMARK VINA RESULT:      -6.0      0.000      0.000
REMARK  Name = 
REMARK  10 active torsions:
REMARK  status: ('A' for Active; 'I' for Inactive)
REMARK    1  A    between atoms: C_1  and  C_2
REMARK    2  A    between atoms: C_2  and  C_3
REMARK    3  A    between atoms: C_2  and  C_4
REMARK    4  A    between atoms: C_4  and  C_5
REMARK    5  A    between atoms: C_5  and  C_6
REMARK    6  A    between atoms: C_6  and  C_7
REMARK    7  A    between atoms: C_7  and  C_8
REMARK    8  A    between atoms: C_8  and  C_9
REMARK    9  A    between atoms: C_9  and  C_10
REMARK   10  A    between atoms: C_10  and  C_12
REMARK                            x       y       z     vdW  Elec       q    Type
REMARK                         _______ _______ _______ _____ _____    ______ ____
ROOT
ATOM      1  C   UNL     1       4.696   5.358  19.354  0.00  0.00    +0.000 C 
ENDROOT
BRANCH   1   2
ATOM      2  C   UNL     1       6.191   5.339  19.093  0.00  0.00    +0.000 C 
ATOM      3  O   UNL     1       7.014   5.314  20.012  0.00  0.00    +0.000 OA
BRANCH   2   4
ATOM      4  C   UNL     1       6.630   5.348  17.701  0.00  0.00    +0.000 A 
ATOM      5  C   UNL     1       7.180   6.426  17.039  0.00  0.00    +0.000 A 
ATOM      6  N   UNL     1       7.430   5.989  15.772  0.00  0.00    +0.000 N 
ATOM      7  C   UNL     1       7.028   4.685  15.698  0.00  0.00    +0.000 A 
ATOM      8  N   UNL     1       6.549   4.263  16.847  0.00  0.00    +0.000 NA
ATOM      9  H   UNL     1       7.834   6.530  15.017  0.00  0.00    +0.000 HD
ENDBRANCH   2   4
ENDBRANCH   1   2
BRANCH   1  10
ATOM     10  C   UNL     1       3.946   5.930  18.155  0.00  0.00    +0.000 C 
BRANCH  10  11
ATOM     11  C   UNL     1       2.672   5.154  17.860  0.00  0.00    +0.000 C 
BRANCH  11  12
ATOM     12  C   UNL     1       3.004   3.787  17.263  0.00  0.00    +0.000 C 
BRANCH  12  13
ATOM     13  C   UNL     1       2.132   2.712  17.897  0.00  0.00    +0.000 C 
BRANCH  13  14
ATOM     14  C   UNL     1       2.709   2.226  19.226  0.00  0.00    +0.000 C 
BRANCH  14  16
ATOM     15  C   UNL     1       2.515   2.885  21.639  0.00  0.00    +0.000 C 
ATOM     16  C   UNL     1       1.739   2.432  20.401  0.00  0.00    +0.000 C 
ATOM     17  C   UNL     1       0.641   3.448  20.079  0.00  0.00    +0.000 C 
ENDBRANCH  14  16
ENDBRANCH  13  14
ENDBRANCH  12  13
ENDBRANCH  11  12
ENDBRANCH  10  11
ENDBRANCH   1  10
TORSDOF 8
ENDMDL
MODEL 2
REMARK VINA RESULT:      -6.0      1.938      2.523
REMARK  Name = 
REMARK  10 active torsions:
REMARK  status: ('A' for Active; 'I' for Inactive)
REMARK    1  A    between atoms: C_1  and  C_2
REMARK    2  A    between atoms: C_2  and  C_3
REMARK    3  A    between atoms: C_2  and  C_4
REMARK    4  A    between atoms: C_4  and  C_5
REMARK    5  A    between atoms: C_5  and  C_6
REMARK    6  A    between atoms: C_6  and  C_7
REMARK    7  A    between atoms: C_7  and  C_8
REMARK    8  A    between atoms: C_8  and  C_9
REMARK    9  A    between atoms: C_9  and  C_10
REMARK   10  A    between atoms: C_10  and  C_12
REMARK                            x       y       z     vdW  Elec       q    Type
REMARK                         _______ _______ _______ _____ _____    ______ ____
ROOT
ATOM      1  C   UNL     1       4.916   4.249  16.117  0.00  0.00    +0.000 C 
ENDROOT
BRANCH   1   2
ATOM      2  C   UNL     1       6.343   4.701  15.873  0.00  0.00    +0.000 C 
ATOM      3  O   UNL     1       7.001   4.299  14.908  0.00  0.00    +0.000 OA
BRANCH   2   4
ATOM      4  C   UNL     1       6.922   5.644  16.825  0.00  0.00    +0.000 A 
ATOM      5  C   UNL     1       7.531   5.310  18.017  0.00  0.00    +0.000 A 
ATOM      6  N   UNL     1       7.911   6.493  18.578  0.00  0.00    +0.000 N 
ATOM      7  C   UNL     1       7.525   7.493  17.733  0.00  0.00    +0.000 A 
ATOM      8  N   UNL     1       6.934   7.017  16.661  0.00  0.00    +0.000 NA
ATOM      9  H   UNL     1       8.387   6.613  19.464  0.00  0.00    +0.000 HD
ENDBRANCH   2   4
ENDBRANCH   1   2
BRANCH   1  10
ATOM     10  C   UNL     1       4.542   4.412  17.587  0.00  0.00    +0.000 C 
BRANCH  10  11
ATOM     11  C   UNL     1       3.875   3.164  18.144  0.00  0.00    +0.000 C 
BRANCH  11  12
ATOM     12  C   UNL     1       2.532   2.923  17.457  0.00  0.00    +0.000 C 
BRANCH  12  13
ATOM     13  C   UNL     1       1.430   3.688  18.179  0.00  0.00    +0.000 C 
BRANCH  13  14
ATOM     14  C   UNL     1       0.877   2.898  19.364  0.00  0.00    +0.000 C 
BRANCH  14  16
ATOM     15  C   UNL     1       2.106   2.783  21.548  0.00  0.00    +0.000 C 
ATOM     16  C   UNL     1       1.124   3.601  20.709  0.00  0.00    +0.000 C 
ATOM     17  C   UNL     1       1.656   5.025  20.532  0.00  0.00    +0.000 C 
ENDBRANCH  14  16
ENDBRANCH  13  14
ENDBRANCH  12  13
ENDBRANCH  11  12
ENDBRANCH  10  11
ENDBRANCH   1  10
TORSDOF 8
ENDMDL
MODEL 3
REMARK VINA RESULT:      -6.0      2.685      5.739
REMARK  Name = 
REMARK  10 active torsions:
REMARK  status: ('A' for Active; 'I' for Inactive)
REMARK    1  A    between atoms: C_1  and  C_2
REMARK    2  A    between atoms: C_2  and  C_3
REMARK    3  A    between atoms: C_2  and  C_4
REMARK    4  A    between atoms: C_4  and  C_5
REMARK    5  A    between atoms: C_5  and  C_6
REMARK    6  A    between atoms: C_6  and  C_7
REMARK    7  A    between atoms: C_7  and  C_8
REMARK    8  A    between atoms: C_8  and  C_9
REMARK    9  A    between atoms: C_9  and  C_10
REMARK   10  A    between atoms: C_10  and  C_12
REMARK                            x       y       z     vdW  Elec       q    Type
REMARK                         _______ _______ _______ _____ _____    ______ ____
ROOT
ATOM      1  C   UNL     1       4.933   3.907  19.076  0.00  0.00    +0.000 C 
ENDROOT
BRANCH   1   2
ATOM      2  C   UNL     1       4.244   2.782  19.824  0.00  0.00    +0.000 C 
ATOM      3  O   UNL     1       4.879   1.927  20.450  0.00  0.00    +0.000 OA
BRANCH   2   4
ATOM      4  C   UNL     1       2.785   2.743  19.786  0.00  0.00    +0.000 A 
ATOM      5  C   UNL     1       1.948   2.928  20.867  0.00  0.00    +0.000 A 
ATOM      6  N   UNL     1       0.683   2.800  20.375  0.00  0.00    +0.000 N 
ATOM      7  C   UNL     1       0.784   2.541  19.038  0.00  0.00    +0.000 A 
ATOM      8  N   UNL     1       2.037   2.509  18.647  0.00  0.00    +0.000 NA
ATOM      9  H   UNL     1      -0.178   2.877  20.903  0.00  0.00    +0.000 HD
ENDBRANCH   2   4
ENDBRANCH   1   2
BRANCH   1  10
ATOM     10  C   UNL     1       4.240   5.239  19.347  0.00  0.00    +0.000 C 
BRANCH  10  11
ATOM     11  C   UNL     1       3.961   6.005  18.063  0.00  0.00    +0.000 C 
BRANCH  11  12
ATOM     12  C   UNL     1       4.549   5.267  16.861  0.00  0.00    +0.000 C 
BRANCH  12  13
ATOM     13  C   UNL     1       5.517   6.173  16.112  0.00  0.00    +0.000 C 
BRANCH  13  14
ATOM     14  C   UNL     1       6.943   6.041  16.644  0.00  0.00    +0.000 C 
BRANCH  14  16
ATOM     15  C   UNL     1       7.914   6.050  18.957  0.00  0.00    +0.000 C 
ATOM     16  C   UNL     1       7.184   6.886  17.905  0.00  0.00    +0.000 C 
ATOM     17  C   UNL     1       7.982   8.158  17.610  0.00  0.00    +0.000 C 
ENDBRANCH  14  16
ENDBRANCH  13  14
ENDBRANCH  12  13
ENDBRANCH  11  12
ENDBRANCH  10  11
ENDBRANCH   1  10
TORSDOF 8
ENDMDL
MODEL 4
REMARK VINA RESULT:      -6.0      1.181      1.894
REMARK  Name = 
REMARK  10 active torsions:
REMARK  status: ('A' for Active; 'I' for Inactive)
REMARK    1  A    between atoms: C_1  and  C_2
REMARK    2  A    between atoms: C_2  and  C_3
REMARK    3  A    between atoms: C_2  and  C_4
REMARK    4  A    between atoms: C_4  and  C_5
REMARK    5  A    between atoms: C_5  and  C_6
REMARK    6  A    between atoms: C_6  and  C_7
REMARK    7  A    between atoms: C_7  and  C_8
REMARK    8  A    between atoms: C_8  and  C_9
REMARK    9  A    between atoms: C_9  and  C_10
REMARK   10  A    between atoms: C_10  and  C_12
REMARK                            x       y       z     vdW  Elec       q    Type
REMARK                         _______ _______ _______ _____ _____    ______ ____
ROOT
ATOM      1  C   UNL     1       4.665   5.860  18.896  0.00  0.00    +0.000 C 
ENDROOT
BRANCH   1   2
ATOM      2  C   UNL     1       5.574   4.721  18.471  0.00  0.00    +0.000 C 
ATOM      3  O   UNL     1       5.794   3.752  19.203  0.00  0.00    +0.000 OA
BRANCH   2   4
ATOM      4  C   UNL     1       6.186   4.808  17.149  0.00  0.00    +0.000 A 
ATOM      5  C   UNL     1       7.118   5.747  16.755  0.00  0.00    +0.000 A 
ATOM      6  N   UNL     1       7.402   5.456  15.454  0.00  0.00    +0.000 N 
ATOM      7  C   UNL     1       6.647   4.375  15.098  0.00  0.00    +0.000 A 
ATOM      8  N   UNL     1       5.910   3.952  16.099  0.00  0.00    +0.000 NA
ATOM      9  H   UNL     1       8.048   5.953  14.853  0.00  0.00    +0.000 HD
ENDBRANCH   2   4
ENDBRANCH   1   2
BRANCH   1  10
ATOM     10  C   UNL     1       3.565   6.085  17.864  0.00  0.00    +0.000 C 
BRANCH  10  11
ATOM     11  C   UNL     1       2.206   5.631  18.374  0.00  0.00    +0.000 C 
BRANCH  11  12
ATOM     12  C   UNL     1       2.206   5.557  19.901  0.00  0.00    +0.000 C 
BRANCH  12  13
ATOM     13  C   UNL     1       1.528   4.274  20.363  0.00  0.00    +0.000 C 
BRANCH  13  14
ATOM     14  C   UNL     1       2.481   3.081  20.311  0.00  0.00    +0.000 C 
BRANCH  14  16
ATOM     15  C   UNL     1       0.636   2.322  18.789  0.00  0.00    +0.000 C 
ATOM     16  C   UNL     1       2.061   2.034  19.266  0.00  0.00    +0.000 C 
ATOM     17  C   UNL     1       3.010   1.996  18.066  0.00  0.00    +0.000 C 
ENDBRANCH  14  16
ENDBRANCH  13  14
ENDBRANCH  12  13
ENDBRANCH  11  12
ENDBRANCH  10  11
ENDBRANCH   1  10
TORSDOF 8
ENDMDL
MODEL 5
REMARK VINA RESULT:      -5.9      1.834      2.620
REMARK  Name = 
REMARK  10 active torsions:
REMARK  status: ('A' for Active; 'I' for Inactive)
REMARK    1  A    between atoms: C_1  and  C_2
REMARK    2  A    between atoms: C_2  and  C_3
REMARK    3  A    between atoms: C_2  and  C_4
REMARK    4  A    between atoms: C_4  and  C_5
REMARK    5  A    between atoms: C_5  and  C_6
REMARK    6  A    between atoms: C_6  and  C_7
REMARK    7  A    between atoms: C_7  and  C_8
REMARK    8  A    between atoms: C_8  and  C_9
REMARK    9  A    between atoms: C_9  and  C_10
REMARK   10  A    between atoms: C_10  and  C_12
REMARK                            x       y       z     vdW  Elec       q    Type
REMARK                         _______ _______ _______ _____ _____    ______ ____
ROOT
ATOM      1  C   UNL     1       4.136   4.278  17.416  0.00  0.00    +0.000 C 
ENDROOT
BRANCH   1   2
ATOM      2  C   UNL     1       5.580   4.326  16.952  0.00  0.00    +0.000 C 
ATOM      3  O   UNL     1       5.964   3.719  15.948  0.00  0.00    +0.000 OA
BRANCH   2   4
ATOM      4  C   UNL     1       6.513   5.126  17.739  0.00  0.00    +0.000 A 
ATOM      5  C   UNL     1       7.177   6.252  17.297  0.00  0.00    +0.000 A 
ATOM      6  N   UNL     1       7.939   6.665  18.349  0.00  0.00    +0.000 N 
ATOM      7  C   UNL     1       7.725   5.794  19.380  0.00  0.00    +0.000 A 
ATOM      8  N   UNL     1       6.864   4.859  19.050  0.00  0.00    +0.000 NA
ATOM      9  H   UNL     1       8.557   7.467  18.367  0.00  0.00    +0.000 HD
ENDBRANCH   2   4
ENDBRANCH   1   2
BRANCH   1  10
ATOM     10  C   UNL     1       3.592   5.688  17.631  0.00  0.00    +0.000 C 
BRANCH  10  11
ATOM     11  C   UNL     1       2.235   5.674  18.318  0.00  0.00    +0.000 C 
BRANCH  11  12
ATOM     12  C   UNL     1       2.337   6.282  19.716  0.00  0.00    +0.000 C 
BRANCH  12  13
ATOM     13  C   UNL     1       1.977   5.241  20.768  0.00  0.00    +0.000 C 
BRANCH  13  14
ATOM     14  C   UNL     1       0.925   4.260  20.256  0.00  0.00    +0.000 C 
BRANCH  14  16
ATOM     15  C   UNL     1       1.600   2.045  19.289  0.00  0.00    +0.000 C 
ATOM     16  C   UNL     1       1.273   2.798  20.580  0.00  0.00    +0.000 C 
ATOM     17  C   UNL     1       2.446   2.681  21.556  0.00  0.00    +0.000 C 
ENDBRANCH  14  16
ENDBRANCH  13  14
ENDBRANCH  12  13
ENDBRANCH  11  12
ENDBRANCH  10  11
ENDBRANCH   1  10
TORSDOF 8
ENDMDL
MODEL 6
REMARK VINA RESULT:      -5.9      1.923      2.448
REMARK  Name = 
REMARK  10 active torsions:
REMARK  status: ('A' for Active; 'I' for Inactive)
REMARK    1  A    between atoms: C_1  and  C_2
REMARK    2  A    between atoms: C_2  and  C_3
REMARK    3  A    between atoms: C_2  and  C_4
REMARK    4  A    between atoms: C_4  and  C_5
REMARK    5  A    between atoms: C_5  and  C_6
REMARK    6  A    between atoms: C_6  and  C_7
REMARK    7  A    between atoms: C_7  and  C_8
REMARK    8  A    between atoms: C_8  and  C_9
REMARK    9  A    between atoms: C_9  and  C_10
REMARK   10  A    between atoms: C_10  and  C_12
REMARK                            x       y       z     vdW  Elec       q    Type
REMARK                         _______ _______ _______ _____ _____    ______ ____
ROOT
ATOM      1  C   UNL     1       4.876   4.313  17.122  0.00  0.00    +0.000 C 
ENDROOT
BRANCH   1   2
ATOM      2  C   UNL     1       4.908   5.796  17.443  0.00  0.00    +0.000 C 
ATOM      3  O   UNL     1       3.889   6.492  17.419  0.00  0.00    +0.000 OA
BRANCH   2   4
ATOM      4  C   UNL     1       6.200   6.380  17.792  0.00  0.00    +0.000 A 
ATOM      5  C   UNL     1       7.040   5.934  18.791  0.00  0.00    +0.000 A 
ATOM      6  N   UNL     1       8.115   6.771  18.765  0.00  0.00    +0.000 N 
ATOM      7  C   UNL     1       7.902   7.688  17.775  0.00  0.00    +0.000 A 
ATOM      8  N   UNL     1       6.760   7.476  17.161  0.00  0.00    +0.000 NA
ATOM      9  H   UNL     1       8.925   6.729  19.372  0.00  0.00    +0.000 HD
ENDBRANCH   2   4
ENDBRANCH   1   2
BRANCH   1  10
ATOM     10  C   UNL     1       4.536   3.499  18.366  0.00  0.00    +0.000 C 
BRANCH  10  11
ATOM     11  C   UNL     1       3.630   2.321  18.043  0.00  0.00    +0.000 C 
BRANCH  11  12
ATOM     12  C   UNL     1       2.381   2.795  17.301  0.00  0.00    +0.000 C 
BRANCH  12  13
ATOM     13  C   UNL     1       1.557   3.714  18.194  0.00  0.00    +0.000 C 
BRANCH  13  14
ATOM     14  C   UNL     1       0.934   2.954  19.364  0.00  0.00    +0.000 C 
BRANCH  14  16
ATOM     15  C   UNL     1       2.006   2.828  21.629  0.00  0.00    +0.000 C 
ATOM     16  C   UNL     1       1.129   3.677  20.708  0.00  0.00    +0.000 C 
ATOM     17  C   UNL     1       1.750   5.065  20.538  0.00  0.00    +0.000 C 
ENDBRANCH  14  16
ENDBRANCH  13  14
ENDBRANCH  12  13
ENDBRANCH  11  12
ENDBRANCH  10  11
ENDBRANCH   1  10
TORSDOF 8
ENDMDL
MODEL 7
REMARK VINA RESULT:      -5.9      2.008      2.570
REMARK  Name = 
REMARK  10 active torsions:
REMARK  status: ('A' for Active; 'I' for Inactive)
REMARK    1  A    between atoms: C_1  and  C_2
REMARK    2  A    between atoms: C_2  and  C_3
REMARK    3  A    between atoms: C_2  and  C_4
REMARK    4  A    between atoms: C_4  and  C_5
REMARK    5  A    between atoms: C_5  and  C_6
REMARK    6  A    between atoms: C_6  and  C_7
REMARK    7  A    between atoms: C_7  and  C_8
REMARK    8  A    between atoms: C_8  and  C_9
REMARK    9  A    between atoms: C_9  and  C_10
REMARK   10  A    between atoms: C_10  and  C_12
REMARK                            x       y       z     vdW  Elec       q    Type
REMARK                         _______ _______ _______ _____ _____    ______ ____
ROOT
ATOM      1  C   UNL     1       5.333   5.277  15.656  0.00  0.00    +0.000 C 
ENDROOT
BRANCH   1   2
ATOM      2  C   UNL     1       6.836   5.366  15.844  0.00  0.00    +0.000 C 
ATOM      3  O   UNL     1       7.623   5.199  14.908  0.00  0.00    +0.000 OA
BRANCH   2   4
ATOM      4  C   UNL     1       7.330   5.664  17.185  0.00  0.00    +0.000 A 
ATOM      5  C   UNL     1       7.575   6.925  17.689  0.00  0.00    +0.000 A 
ATOM      6  N   UNL     1       8.026   6.729  18.960  0.00  0.00    +0.000 N 
ATOM      7  C   UNL     1       8.048   5.383  19.188  0.00  0.00    +0.000 A 
ATOM      8  N   UNL     1       7.625   4.710  18.142  0.00  0.00    +0.000 NA
ATOM      9  H   UNL     1       8.302   7.448  19.618  0.00  0.00    +0.000 HD
ENDBRANCH   2   4
ENDBRANCH   1   2
BRANCH   1  10
ATOM     10  C   UNL     1       4.639   5.006  16.988  0.00  0.00    +0.000 C 
BRANCH  10  11
ATOM     11  C   UNL     1       4.115   3.580  17.074  0.00  0.00    +0.000 C 
BRANCH  11  12
ATOM     12  C   UNL     1       3.912   3.173  18.533  0.00  0.00    +0.000 C 
BRANCH  12  13
ATOM     13  C   UNL     1       2.533   2.554  18.718  0.00  0.00    +0.000 C 
BRANCH  13  14
ATOM     14  C   UNL     1       1.436   3.617  18.745  0.00  0.00    +0.000 C 
BRANCH  14  16
ATOM     15  C   UNL     1       1.347   2.843  21.130  0.00  0.00    +0.000 C 
ATOM     16  C   UNL     1       1.009   3.988  20.175  0.00  0.00    +0.000 C 
ATOM     17  C   UNL     1       1.669   5.280  20.663  0.00  0.00    +0.000 C 
ENDBRANCH  14  16
ENDBRANCH  13  14
ENDBRANCH  12  13
ENDBRANCH  11  12
ENDBRANCH  10  11
ENDBRANCH   1  10
TORSDOF 8
ENDMDL
MODEL 8
REMARK VINA RESULT:      -5.8      1.427      1.900
REMARK  Name = 
REMARK  10 active torsions:
REMARK  status: ('A' for Active; 'I' for Inactive)
REMARK    1  A    between atoms: C_1  and  C_2
REMARK    2  A    between atoms: C_2  and  C_3
REMARK    3  A    between atoms: C_2  and  C_4
REMARK    4  A    between atoms: C_4  and  C_5
REMARK    5  A    between atoms: C_5  and  C_6
REMARK    6  A    between atoms: C_6  and  C_7
REMARK    7  A    between atoms: C_7  and  C_8
REMARK    8  A    between atoms: C_8  and  C_9
REMARK    9  A    between atoms: C_9  and  C_10
REMARK   10  A    between atoms: C_10  and  C_12
REMARK                            x       y       z     vdW  Elec       q    Type
REMARK                         _______ _______ _______ _____ _____    ______ ____
ROOT
ATOM      1  C   UNL     1       5.257   4.700  18.124  0.00  0.00    +0.000 C 
ENDROOT
BRANCH   1   2
ATOM      2  C   UNL     1       6.638   4.611  17.504  0.00  0.00    +0.000 C 
ATOM      3  O   UNL     1       7.665   4.632  18.189  0.00  0.00    +0.000 OA
BRANCH   2   4
ATOM      4  C   UNL     1       6.716   4.492  16.051  0.00  0.00    +0.000 A 
ATOM      5  C   UNL     1       6.033   3.572  15.282  0.00  0.00    +0.000 A 
ATOM      6  N   UNL     1       6.409   3.820  13.995  0.00  0.00    +0.000 N 
ATOM      7  C   UNL     1       7.297   4.858  14.017  0.00  0.00    +0.000 A 
ATOM      8  N   UNL     1       7.498   5.294  15.239  0.00  0.00    +0.000 NA
ATOM      9  H   UNL     1       6.096   3.323  13.171  0.00  0.00    +0.000 HD
ENDBRANCH   2   4
ENDBRANCH   1   2
BRANCH   1  10
ATOM     10  C   UNL     1       4.642   6.075  17.877  0.00  0.00    +0.000 C 
BRANCH  10  11
ATOM     11  C   UNL     1       3.125   6.044  17.979  0.00  0.00    +0.000 C 
BRANCH  11  12
ATOM     12  C   UNL     1       2.591   4.664  17.601  0.00  0.00    +0.000 C 
BRANCH  12  13
ATOM     13  C   UNL     1       1.620   4.168  18.664  0.00  0.00    +0.000 C 
BRANCH  13  14
ATOM     14  C   UNL     1       2.159   2.938  19.392  0.00  0.00    +0.000 C 
BRANCH  14  16
ATOM     15  C   UNL     1       2.324   4.695  21.176  0.00  0.00    +0.000 C 
ATOM     16  C   UNL     1       2.392   3.194  20.891  0.00  0.00    +0.000 C 
ATOM     17  C   UNL     1       1.382   2.454  21.771  0.00  0.00    +0.000 C 
ENDBRANCH  14  16
ENDBRANCH  13  14
ENDBRANCH  12  13
ENDBRANCH  11  12
ENDBRANCH  10  11
ENDBRANCH   1  10
TORSDOF 8
ENDMDL
MODEL 9
REMARK VINA RESULT:      -5.7      1.507      2.425
REMARK  Name = 
REMARK  10 active torsions:
REMARK  status: ('A' for Active; 'I' for Inactive)
REMARK    1  A    between atoms: C_1  and  C_2
REMARK    2  A    between atoms: C_2  and  C_3
REMARK    3  A    between atoms: C_2  and  C_4
REMARK    4  A    between atoms: C_4  and  C_5
REMARK    5  A    between atoms: C_5  and  C_6
REMARK    6  A    between atoms: C_6  and  C_7
REMARK    7  A    between atoms: C_7  and  C_8
REMARK    8  A    between atoms: C_8  and  C_9
REMARK    9  A    between atoms: C_9  and  C_10
REMARK   10  A    between atoms: C_10  and  C_12
REMARK                            x       y       z     vdW  Elec       q    Type
REMARK                         _______ _______ _______ _____ _____    ______ ____
ROOT
ATOM      1  C   UNL     1       5.573   4.266  18.424  0.00  0.00    +0.000 C 
ENDROOT
BRANCH   1   2
ATOM      2  C   UNL     1       6.865   4.451  17.650  0.00  0.00    +0.000 C 
ATOM      3  O   UNL     1       7.955   4.572  18.216  0.00  0.00    +0.000 OA
BRANCH   2   4
ATOM      4  C   UNL     1       6.777   4.476  16.193  0.00  0.00    +0.000 A 
ATOM      5  C   UNL     1       5.943   3.689  15.425  0.00  0.00    +0.000 A 
ATOM      6  N   UNL     1       6.199   4.040  14.132  0.00  0.00    +0.000 N 
ATOM      7  C   UNL     1       7.165   5.006  14.149  0.00  0.00    +0.000 A 
ATOM      8  N   UNL     1       7.530   5.300  15.376  0.00  0.00    +0.000 NA
ATOM      9  H   UNL     1       5.760   3.653  13.306  0.00  0.00    +0.000 HD
ENDBRANCH   2   4
ENDBRANCH   1   2
BRANCH   1  10
ATOM     10  C   UNL     1       5.014   5.613  18.870  0.00  0.00    +0.000 C 
BRANCH  10  11
ATOM     11  C   UNL     1       3.674   5.915  18.218  0.00  0.00    +0.000 C 
BRANCH  11  12
ATOM     12  C   UNL     1       2.764   6.669  19.187  0.00  0.00    +0.000 C 
BRANCH  12  13
ATOM     13  C   UNL     1       1.655   5.752  19.685  0.00  0.00    +0.000 C 
BRANCH  13  14
ATOM     14  C   UNL     1       2.064   5.009  20.956  0.00  0.00    +0.000 C 
BRANCH  14  16
ATOM     15  C   UNL     1       1.009   3.151  19.640  0.00  0.00    +0.000 C 
ATOM     16  C   UNL     1       1.466   3.594  21.031  0.00  0.00    +0.000 C 
ATOM     17  C   UNL     1       2.455   2.573  21.599  0.00  0.00    +0.000 C 
ENDBRANCH  14  16
ENDBRANCH  13  14
ENDBRANCH  12  13
ENDBRANCH  11  12
ENDBRANCH  10  11
ENDBRANCH   1  10
TORSDOF 8
ENDMDL
