MODEL 1
REMARK VINA RESULT:      -7.1      0.000      0.000
REMARK  Name = 
REMARK  4 active torsions:
REMARK  status: ('A' for Active; 'I' for Inactive)
REMARK    1  A    between atoms: C_1  and  N_2
REMARK    2  A    between atoms: C_4  and  C_5
REMARK    3  A    between atoms: C_6  and  C_7
REMARK    4  A    between atoms: C_6  and  C_9
REMARK                            x       y       z     vdW  Elec       q    Type
REMARK                         _______ _______ _______ _____ _____    ______ ____
ROOT
ATOM      1  C   UNL     1       3.611   1.991  17.526  0.00  0.00    +0.000 C 
ATOM      2  N   UNL     1       3.710   3.452  17.638  0.00  0.00    +0.000 N 
ATOM      3  C   UNL     1       4.600   4.251  16.878  0.00  0.00    +0.000 C 
ATOM      4  C   UNL     1       5.501   3.774  15.985  0.00  0.00    +0.000 C 
ATOM      5  C   UNL     1       4.509   5.703  17.073  0.00  0.00    +0.000 C 
ATOM      6  C   UNL     1       3.774   6.271  18.032  0.00  0.00    +0.000 C 
ATOM      7  C   UNL     1       2.956   5.431  18.896  0.00  0.00    +0.000 A 
ATOM      8  C   UNL     1       2.199   6.044  19.907  0.00  0.00    +0.000 A 
ATOM      9  C   UNL     1       1.350   5.284  20.702  0.00  0.00    +0.000 A 
ATOM     10  C   UNL     1       1.262   3.913  20.491  0.00  0.00    +0.000 A 
ATOM     11  C   UNL     1       2.028   3.296  19.493  0.00  0.00    +0.000 A 
ATOM     12  C   UNL     1       2.899   4.036  18.670  0.00  0.00    +0.000 A 
ENDROOT
BRANCH   4  13
ATOM     13  C   UNL     1       6.514   4.543  15.271  0.00  0.00    +0.000 C 
ATOM     14  C   UNL     1       6.762   4.514  13.949  0.00  0.00    +0.000 C 
BRANCH  14  15
ATOM     15  C   UNL     1       5.987   3.747  13.037  0.00  0.00    +0.000 C 
ATOM     16  N   UNL     1       5.359   3.115  12.292  0.00  0.00    +0.000 NA
ENDBRANCH  14  15
BRANCH  14  17
ATOM     17  C   UNL     1       7.823   5.306  13.428  0.00  0.00    +0.000 C 
ATOM     18  N   UNL     1       8.690   5.937  12.983  0.00  0.00    +0.000 NA
ENDBRANCH  14  17
ENDBRANCH   4  13
TORSDOF 3
ENDMDL
MODEL 2
REMARK VINA RESULT:      -6.9      2.672      3.655
REMARK  Name = 
REMARK  4 active torsions:
REMARK  status: ('A' for Active; 'I' for Inactive)
REMARK    1  A    between atoms: C_1  and  N_2
REMARK    2  A    between atoms: C_4  and  C_5
REMARK    3  A    between atoms: C_6  and  C_7
REMARK    4  A    between atoms: C_6  and  C_9
REMARK                            x       y       z     vdW  Elec       q    Type
REMARK                         _______ _______ _______ _____ _____    ______ ____
ROOT
ATOM      1  C   UNL     1       4.208   3.201  16.377  0.00  0.00    +0.000 C 
ATOM      2  N   UNL     1       3.829   4.243  17.340  0.00  0.00    +0.000 N 
ATOM      3  C   UNL     1       4.505   5.481  17.481  0.00  0.00    +0.000 C 
ATOM      4  C   UNL     1       5.607   5.847  16.783  0.00  0.00    +0.000 C 
ATOM      5  C   UNL     1       3.941   6.430  18.448  0.00  0.00    +0.000 C 
ATOM      6  C   UNL     1       2.959   6.118  19.297  0.00  0.00    +0.000 C 
ATOM      7  C   UNL     1       2.352   4.796  19.233  0.00  0.00    +0.000 A 
ATOM      8  C   UNL     1       1.330   4.481  20.141  0.00  0.00    +0.000 A 
ATOM      9  C   UNL     1       0.676   3.257  20.061  0.00  0.00    +0.000 A 
ATOM     10  C   UNL     1       1.048   2.347  19.078  0.00  0.00    +0.000 A 
ATOM     11  C   UNL     1       2.079   2.653  18.179  0.00  0.00    +0.000 A 
ATOM     12  C   UNL     1       2.763   3.883  18.232  0.00  0.00    +0.000 A 
ENDROOT
BRANCH   4  13
ATOM     13  C   UNL     1       6.402   7.054  16.978  0.00  0.00    +0.000 C 
ATOM     14  C   UNL     1       7.376   7.238  17.888  0.00  0.00    +0.000 C 
BRANCH  14  15
ATOM     15  C   UNL     1       7.814   6.208  18.765  0.00  0.00    +0.000 C 
ATOM     16  N   UNL     1       8.172   5.362  19.476  0.00  0.00    +0.000 NA
ENDBRANCH  14  15
BRANCH  14  17
ATOM     17  C   UNL     1       8.022   8.503  17.962  0.00  0.00    +0.000 C 
ATOM     18  N   UNL     1       8.530   9.545  18.037  0.00  0.00    +0.000 NA
ENDBRANCH  14  17
ENDBRANCH   4  13
TORSDOF 3
ENDMDL
MODEL 3
REMARK VINA RESULT:      -6.9      1.517      2.776
REMARK  Name = 
REMARK  4 active torsions:
REMARK  status: ('A' for Active; 'I' for Inactive)
REMARK    1  A    between atoms: C_1  and  N_2
REMARK    2  A    between atoms: C_4  and  C_5
REMARK    3  A    between atoms: C_6  and  C_7
REMARK    4  A    between atoms: C_6  and  C_9
REMARK                            x       y       z     vdW  Elec       q    Type
REMARK                         _______ _______ _______ _____ _____    ______ ____
ROOT
ATOM      1  C   UNL     1       3.209   6.858  18.915  0.00  0.00    +0.000 C 
ATOM      2  N   UNL     1       3.351   5.480  18.431  0.00  0.00    +0.000 N 
ATOM      3  C   UNL     1       4.097   5.110  17.284  0.00  0.00    +0.000 C 
ATOM      4  C   UNL     1       4.737   5.978  16.463  0.00  0.00    +0.000 C 
ATOM      5  C   UNL     1       4.186   3.675  16.992  0.00  0.00    +0.000 C 
ATOM      6  C   UNL     1       3.472   2.748  17.636  0.00  0.00    +0.000 C 
ATOM      7  C   UNL     1       2.607   3.150  18.736  0.00  0.00    +0.000 A 
ATOM      8  C   UNL     1       1.855   2.165  19.394  0.00  0.00    +0.000 A 
ATOM      9  C   UNL     1       1.076   2.500  20.495  0.00  0.00    +0.000 A 
ATOM     10  C   UNL     1       1.044   3.817  20.935  0.00  0.00    +0.000 A 
ATOM     11  C   UNL     1       1.782   4.807  20.270  0.00  0.00    +0.000 A 
ATOM     12  C   UNL     1       2.581   4.503  19.151  0.00  0.00    +0.000 A 
ENDROOT
BRANCH   4  13
ATOM     13  C   UNL     1       5.413   5.658  15.211  0.00  0.00    +0.000 C 
ATOM     14  C   UNL     1       6.626   5.091  15.074  0.00  0.00    +0.000 C 
BRANCH  14  15
ATOM     15  C   UNL     1       7.401   4.654  16.183  0.00  0.00    +0.000 C 
ATOM     16  N   UNL     1       8.034   4.304  17.091  0.00  0.00    +0.000 NA
ENDBRANCH  14  15
BRANCH  14  17
ATOM     17  C   UNL     1       7.149   4.889  13.766  0.00  0.00    +0.000 C 
ATOM     18  N   UNL     1       7.554   4.733  12.689  0.00  0.00    +0.000 NA
ENDBRANCH  14  17
ENDBRANCH   4  13
TORSDOF 3
ENDMDL
MODEL 4
REMARK VINA RESULT:      -6.7      1.065      2.649
REMARK  Name = 
REMARK  4 active torsions:
REMARK  status: ('A' for Active; 'I' for Inactive)
REMARK    1  A    between atoms: C_1  and  N_2
REMARK    2  A    between atoms: C_4  and  C_5
REMARK    3  A    between atoms: C_6  and  C_7
REMARK    4  A    between atoms: C_6  and  C_9
REMARK                            x       y       z     vdW  Elec       q    Type
REMARK                         _______ _______ _______ _____ _____    ______ ____
ROOT
ATOM      1  C   UNL     1       4.844   6.848  17.642  0.00  0.00    +0.000 C 
ATOM      2  N   UNL     1       4.197   5.533  17.559  0.00  0.00    +0.000 N 
ATOM      3  C   UNL     1       4.428   4.596  16.522  0.00  0.00    +0.000 C 
ATOM      4  C   UNL     1       5.236   4.803  15.454  0.00  0.00    +0.000 C 
ATOM      5  C   UNL     1       3.745   3.302  16.641  0.00  0.00    +0.000 C 
ATOM      6  C   UNL     1       2.811   3.047  17.560  0.00  0.00    +0.000 C 
ATOM      7  C   UNL     1       2.485   4.065  18.550  0.00  0.00    +0.000 A 
ATOM      8  C   UNL     1       1.492   3.784  19.501  0.00  0.00    +0.000 A 
ATOM      9  C   UNL     1       1.207   4.701  20.505  0.00  0.00    +0.000 A 
ATOM     10  C   UNL     1       1.910   5.898  20.557  0.00  0.00    +0.000 A 
ATOM     11  C   UNL     1       2.892   6.188  19.599  0.00  0.00    +0.000 A 
ATOM     12  C   UNL     1       3.205   5.283  18.567  0.00  0.00    +0.000 A 
ENDROOT
BRANCH   4  13
ATOM     13  C   UNL     1       5.411   3.920  14.306  0.00  0.00    +0.000 C 
ATOM     14  C   UNL     1       6.384   3.990  13.379  0.00  0.00    +0.000 C 
BRANCH  14  15
ATOM     15  C   UNL     1       7.444   4.934  13.445  0.00  0.00    +0.000 C 
ATOM     16  N   UNL     1       8.315   5.702  13.495  0.00  0.00    +0.000 NA
ENDBRANCH  14  15
BRANCH  14  17
ATOM     17  C   UNL     1       6.374   3.064  12.299  0.00  0.00    +0.000 C 
ATOM     18  N   UNL     1       6.381   2.292  11.431  0.00  0.00    +0.000 NA
ENDBRANCH  14  17
ENDBRANCH   4  13
TORSDOF 3
ENDMDL
MODEL 5
REMARK VINA RESULT:      -6.7      2.638      3.976
REMARK  Name = 
REMARK  4 active torsions:
REMARK  status: ('A' for Active; 'I' for Inactive)
REMARK    1  A    between atoms: C_1  and  N_2
REMARK    2  A    between atoms: C_4  and  C_5
REMARK    3  A    between atoms: C_6  and  C_7
REMARK    4  A    between atoms: C_6  and  C_9
REMARK                            x       y       z     vdW  Elec       q    Type
REMARK                         _______ _______ _______ _____ _____    ______ ____
ROOT
ATOM      1  C   UNL     1       2.449   5.262  20.583  0.00  0.00    +0.000 C 
ATOM      2  N   UNL     1       2.473   6.345  19.591  0.00  0.00    +0.000 N 
ATOM      3  C   UNL     1       3.207   6.301  18.381  0.00  0.00    +0.000 C 
ATOM      4  C   UNL     1       4.014   5.282  17.999  0.00  0.00    +0.000 C 
ATOM      5  C   UNL     1       3.055   7.448  17.477  0.00  0.00    +0.000 C 
ATOM      6  C   UNL     1       2.416   8.570  17.816  0.00  0.00    +0.000 C 
ATOM      7  C   UNL     1       1.767   8.658  19.118  0.00  0.00    +0.000 A 
ATOM      8  C   UNL     1       1.110   9.849  19.462  0.00  0.00    +0.000 A 
ATOM      9  C   UNL     1       0.418   9.943  20.664  0.00  0.00    +0.000 A 
ATOM     10  C   UNL     1       0.386   8.850  21.521  0.00  0.00    +0.000 A 
ATOM     11  C   UNL     1       1.055   7.664  21.187  0.00  0.00    +0.000 A 
ATOM     12  C   UNL     1       1.766   7.535  19.979  0.00  0.00    +0.000 A 
ENDROOT
BRANCH   4  13
ATOM     13  C   UNL     1       4.879   5.244  16.825  0.00  0.00    +0.000 C 
ATOM     14  C   UNL     1       6.223   5.183  16.818  0.00  0.00    +0.000 C 
BRANCH  14  15
ATOM     15  C   UNL     1       6.995   5.073  18.007  0.00  0.00    +0.000 C 
ATOM     16  N   UNL     1       7.622   4.979  18.980  0.00  0.00    +0.000 NA
ENDBRANCH  14  15
BRANCH  14  17
ATOM     17  C   UNL     1       6.907   5.196  15.571  0.00  0.00    +0.000 C 
ATOM     18  N   UNL     1       7.489   5.209  14.565  0.00  0.00    +0.000 NA
ENDBRANCH  14  17
ENDBRANCH   4  13
TORSDOF 3
ENDMDL
MODEL 6
REMARK VINA RESULT:      -6.6      3.736      7.544
REMARK  Name = 
REMARK  4 active torsions:
REMARK  status: ('A' for Active; 'I' for Inactive)
REMARK    1  A    between atoms: C_1  and  N_2
REMARK    2  A    between atoms: C_4  and  C_5
REMARK    3  A    between atoms: C_6  and  C_7
REMARK    4  A    between atoms: C_6  and  C_9
REMARK                            x       y       z     vdW  Elec       q    Type
REMARK                         _______ _______ _______ _____ _____    ______ ____
ROOT
ATOM      1  C   UNL     1       3.575   6.657  17.758  0.00  0.00    +0.000 C 
ATOM      2  N   UNL     1       2.830   5.874  18.751  0.00  0.00    +0.000 N 
ATOM      3  C   UNL     1       2.097   6.439  19.825  0.00  0.00    +0.000 C 
ATOM      4  C   UNL     1       2.024   7.763  20.102  0.00  0.00    +0.000 C 
ATOM      5  C   UNL     1       1.355   5.504  20.678  0.00  0.00    +0.000 C 
ATOM      6  C   UNL     1       1.479   4.177  20.595  0.00  0.00    +0.000 C 
ATOM      7  C   UNL     1       2.336   3.602  19.567  0.00  0.00    +0.000 A 
ATOM      8  C   UNL     1       2.464   2.206  19.502  0.00  0.00    +0.000 A 
ATOM      9  C   UNL     1       3.213   1.619  18.489  0.00  0.00    +0.000 A 
ATOM     10  C   UNL     1       3.837   2.427  17.546  0.00  0.00    +0.000 A 
ATOM     11  C   UNL     1       3.723   3.822  17.617  0.00  0.00    +0.000 A 
ATOM     12  C   UNL     1       2.973   4.450  18.630  0.00  0.00    +0.000 A 
ENDROOT
BRANCH   4  13
ATOM     13  C   UNL     1       1.384   8.379  21.258  0.00  0.00    +0.000 C 
ATOM     14  C   UNL     1       0.470   9.366  21.241  0.00  0.00    +0.000 C 
BRANCH  14  15
ATOM     15  C   UNL     1      -0.058   9.906  20.036  0.00  0.00    +0.000 C 
ATOM     16  N   UNL     1      -0.485  10.352  19.053  0.00  0.00    +0.000 NA
ENDBRANCH  14  15
BRANCH  14  17
ATOM     17  C   UNL     1      -0.018   9.876  22.476  0.00  0.00    +0.000 C 
ATOM     18  N   UNL     1      -0.436  10.275  23.484  0.00  0.00    +0.000 NA
ENDBRANCH  14  17
ENDBRANCH   4  13
TORSDOF 3
ENDMDL
MODEL 7
REMARK VINA RESULT:      -6.5      1.219      1.793
REMARK  Name = 
REMARK  4 active torsions:
REMARK  status: ('A' for Active; 'I' for Inactive)
REMARK    1  A    between atoms: C_1  and  N_2
REMARK    2  A    between atoms: C_4  and  C_5
REMARK    3  A    between atoms: C_6  and  C_7
REMARK    4  A    between atoms: C_6  and  C_9
REMARK                            x       y       z     vdW  Elec       q    Type
REMARK                         _______ _______ _______ _____ _____    ______ ____
ROOT
ATOM      1  C   UNL     1       2.949   2.129  17.697  0.00  0.00    +0.000 C 
ATOM      2  N   UNL     1       3.211   3.573  17.681  0.00  0.00    +0.000 N 
ATOM      3  C   UNL     1       4.052   4.220  16.743  0.00  0.00    +0.000 C 
ATOM      4  C   UNL     1       4.756   3.593  15.769  0.00  0.00    +0.000 C 
ATOM      5  C   UNL     1       4.140   5.682  16.837  0.00  0.00    +0.000 C 
ATOM      6  C   UNL     1       3.619   6.386  17.845  0.00  0.00    +0.000 C 
ATOM      7  C   UNL     1       2.859   5.697  18.879  0.00  0.00    +0.000 A 
ATOM      8  C   UNL     1       2.329   6.450  19.938  0.00  0.00    +0.000 A 
ATOM      9  C   UNL     1       1.537   5.839  20.903  0.00  0.00    +0.000 A 
ATOM     10  C   UNL     1       1.279   4.477  20.812  0.00  0.00    +0.000 A 
ATOM     11  C   UNL     1       1.820   3.719  19.764  0.00  0.00    +0.000 A 
ATOM     12  C   UNL     1       2.628   4.305  18.771  0.00  0.00    +0.000 A 
ENDROOT
BRANCH   4  13
ATOM     13  C   UNL     1       5.723   4.199  14.861  0.00  0.00    +0.000 C 
ATOM     14  C   UNL     1       6.943   4.667  15.181  0.00  0.00    +0.000 C 
BRANCH  14  15
ATOM     15  C   UNL     1       7.490   4.562  16.489  0.00  0.00    +0.000 C 
ATOM     16  N   UNL     1       7.932   4.481  17.560  0.00  0.00    +0.000 NA
ENDBRANCH  14  15
BRANCH  14  17
ATOM     17  C   UNL     1       7.739   5.268  14.167  0.00  0.00    +0.000 C 
ATOM     18  N   UNL     1       8.372   5.751  13.321  0.00  0.00    +0.000 NA
ENDBRANCH  14  17
ENDBRANCH   4  13
TORSDOF 3
ENDMDL
MODEL 8
REMARK VINA RESULT:      -6.4      4.886      7.524
REMARK  Name = 
REMARK  4 active torsions:
REMARK  status: ('A' for Active; 'I' for Inactive)
REMARK    1  A    between atoms: C_1  and  N_2
REMARK    2  A    between atoms: C_4  and  C_5
REMARK    3  A    between atoms: C_6  and  C_7
REMARK    4  A    between atoms: C_6  and  C_9
REMARK                            x       y       z     vdW  Elec       q    Type
REMARK                         _______ _______ _______ _____ _____    ______ ____
ROOT
ATOM      1  C   UNL     1       2.104   9.068  17.887  0.00  0.00    +0.000 C 
ATOM      2  N   UNL     1       1.525   9.075  19.235  0.00  0.00    +0.000 N 
ATOM      3  C   UNL     1       1.566   7.974  20.126  0.00  0.00    +0.000 C 
ATOM      4  C   UNL     1       2.101   6.763  19.838  0.00  0.00    +0.000 C 
ATOM      5  C   UNL     1       0.996   8.187  21.462  0.00  0.00    +0.000 C 
ATOM      6  C   UNL     1       0.306   9.279  21.800  0.00  0.00    +0.000 C 
ATOM      7  C   UNL     1       0.159  10.359  20.834  0.00  0.00    +0.000 A 
ATOM      8  C   UNL     1      -0.579  11.494  21.202  0.00  0.00    +0.000 A 
ATOM      9  C   UNL     1      -0.679  12.575  20.335  0.00  0.00    +0.000 A 
ATOM     10  C   UNL     1      -0.046  12.520  19.099  0.00  0.00    +0.000 A 
ATOM     11  C   UNL     1       0.679  11.381  18.722  0.00  0.00    +0.000 A 
ATOM     12  C   UNL     1       0.799  10.268  19.576  0.00  0.00    +0.000 A 
ENDROOT
BRANCH   4  13
ATOM     13  C   UNL     1       2.060   5.569  20.675  0.00  0.00    +0.000 C 
ATOM     14  C   UNL     1       1.750   4.320  20.280  0.00  0.00    +0.000 C 
BRANCH  14  15
ATOM     15  C   UNL     1       1.477   3.987  18.925  0.00  0.00    +0.000 C 
ATOM     16  N   UNL     1       1.252   3.709  17.819  0.00  0.00    +0.000 NA
ENDBRANCH  14  15
BRANCH  14  17
ATOM     17  C   UNL     1       1.720   3.278  21.247  0.00  0.00    +0.000 C 
ATOM     18  N   UNL     1       1.720   2.421  22.031  0.00  0.00    +0.000 NA
ENDBRANCH  14  17
ENDBRANCH   4  13
TORSDOF 3
ENDMDL
MODEL 9
REMARK VINA RESULT:      -6.4      1.819      2.763
REMARK  Name = 
REMARK  4 active torsions:
REMARK  status: ('A' for Active; 'I' for Inactive)
REMARK    1  A    between atoms: C_1  and  N_2
REMARK    2  A    between atoms: C_4  and  C_5
REMARK    3  A    between atoms: C_6  and  C_7
REMARK    4  A    between atoms: C_6  and  C_9
REMARK                            x       y       z     vdW  Elec       q    Type
REMARK                         _______ _______ _______ _____ _____    ______ ____
ROOT
ATOM      1  C   UNL     1       2.765   3.794  19.378  0.00  0.00    +0.000 C 
ATOM      2  N   UNL     1       2.905   5.121  18.766  0.00  0.00    +0.000 N 
ATOM      3  C   UNL     1       3.667   5.385  17.601  0.00  0.00    +0.000 C 
ATOM      4  C   UNL     1       4.398   4.465  16.926  0.00  0.00    +0.000 C 
ATOM      5  C   UNL     1       3.634   6.762  17.092  0.00  0.00    +0.000 C 
ATOM      6  C   UNL     1       3.080   7.778  17.758  0.00  0.00    +0.000 C 
ATOM      7  C   UNL     1       2.405   7.520  19.023  0.00  0.00    +0.000 A 
ATOM      8  C   UNL     1       1.838   8.601  19.715  0.00  0.00    +0.000 A 
ATOM      9  C   UNL     1       1.123   8.384  20.886  0.00  0.00    +0.000 A 
ATOM     10  C   UNL     1       0.978   7.088  21.368  0.00  0.00    +0.000 A 
ATOM     11  C   UNL     1       1.557   6.008  20.687  0.00  0.00    +0.000 A 
ATOM     12  C   UNL     1       2.288   6.192  19.498  0.00  0.00    +0.000 A 
ENDROOT
BRANCH   4  13
ATOM     13  C   UNL     1       5.289   4.713  15.798  0.00  0.00    +0.000 C 
ATOM     14  C   UNL     1       6.630   4.813  15.839  0.00  0.00    +0.000 C 
BRANCH  14  15
ATOM     15  C   UNL     1       7.381   4.612  17.030  0.00  0.00    +0.000 C 
ATOM     16  N   UNL     1       7.998   4.453  18.001  0.00  0.00    +0.000 NA
ENDBRANCH  14  15
BRANCH  14  17
ATOM     17  C   UNL     1       7.337   5.100  14.639  0.00  0.00    +0.000 C 
ATOM     18  N   UNL     1       7.893   5.344  13.649  0.00  0.00    +0.000 NA
ENDBRANCH  14  17
ENDBRANCH   4  13
TORSDOF 3
ENDMDL
