MODEL 1
REMARK VINA RESULT:      -7.3      0.000      0.000
REMARK  Name = 
REMARK  12 active torsions:
REMARK  status: ('A' for Active; 'I' for Inactive)
REMARK    1  A    between atoms: C_1  and  O_2
REMARK    2  A    between atoms: O_2  and  C_3
REMARK    3  A    between atoms: C_7  and  C_8
REMARK    4  A    between atoms: C_11  and  C_12
REMARK    5  A    between atoms: C_12  and  C_13
REMARK    6  A    between atoms: C_12  and  C_14
REMARK    7  A    between atoms: C_17  and  C_18
REMARK    8  A    between atoms: C_20  and  C_21
REMARK    9  A    between atoms: C_22  and  C_23
REMARK   10  A    between atoms: C_25  and  C_26
REMARK   11  A    between atoms: C_30  and  O_31
REMARK   12  A    between atoms: O_31  and  C_32
REMARK                            x       y       z     vdW  Elec       q    Type
REMARK                         _______ _______ _______ _____ _____    ______ ____
ROOT
ATOM      1  C   UNL     1       1.604   7.770  20.931  0.00  0.00    +0.000 C 
ATOM      2  C   UNL     1       0.772   8.795  20.647  0.00  0.00    +0.000 C 
ATOM      3  C   UNL     1      -0.101   8.841  19.421  0.00  0.00    +0.000 C 
ATOM      4  C   UNL     1      -0.516  10.255  18.996  0.00  0.00    +0.000 C 
ATOM      5  C   UNL     1      -1.174  10.925  20.206  0.00  0.00    +0.000 C 
ATOM      6  C   UNL     1      -0.316  10.965  21.441  0.00  0.00    +0.000 C 
ATOM      7  C   UNL     1      -0.457  11.886  22.423  0.00  0.00    +0.000 C 
ATOM      8  C   UNL     1       0.767   9.948  21.608  0.00  0.00    +0.000 C 
ATOM      9  O   UNL     1       1.612  10.052  22.494  0.00  0.00    +0.000 OA
ENDROOT
BRANCH   7  10
ATOM     10  C   UNL     1      -1.537  12.889  22.502  0.00  0.00    +0.000 A 
ATOM     11  N   UNL     1      -2.623  12.513  23.222  0.00  0.00    +0.000 NA
ATOM     12  C   UNL     1      -3.648  13.392  23.339  0.00  0.00    +0.000 A 
ATOM     13  C   UNL     1      -4.851  12.890  24.076  0.00  0.00    +0.000 C 
ATOM     14  C   UNL     1      -3.573  14.666  22.780  0.00  0.00    +0.000 A 
ATOM     15  C   UNL     1      -4.652  15.693  22.931  0.00  0.00    +0.000 C 
ATOM     16  N   UNL     1      -2.485  15.054  22.065  0.00  0.00    +0.000 NA
ATOM     17  C   UNL     1      -1.474  14.155  21.920  0.00  0.00    +0.000 A 
ATOM     18  C   UNL     1      -0.317  14.601  21.080  0.00  0.00    +0.000 C 
ENDBRANCH   7  10
BRANCH   1  23
ATOM     19  C   UNL     1       1.848   4.330  18.363  0.00  0.00    +0.000 A 
ATOM     20  C   UNL     1       2.274   5.586  17.909  0.00  0.00    +0.000 A 
ATOM     21  C   UNL     1       2.247   6.705  18.749  0.00  0.00    +0.000 A 
ATOM     22 BR   UNL     1       2.856   8.356  18.026  0.00  0.00    +0.000 Br
ATOM     23  C   UNL     1       1.763   6.598  20.056  0.00  0.00    +0.000 A 
ATOM     24  C   UNL     1       1.341   5.340  20.510  0.00  0.00    +0.000 A 
ATOM     25  C   UNL     1       1.378   4.204  19.682  0.00  0.00    +0.000 A 
BRANCH  19  27
ATOM     26  C   UNL     1       2.947   2.360  17.602  0.00  0.00    +0.000 C 
ATOM     27  O   UNL     1       1.826   3.235  17.540  0.00  0.00    +0.000 OA
ENDBRANCH  19  27
BRANCH  25  28
ATOM     28  O   UNL     1       0.919   3.082  20.322  0.00  0.00    +0.000 OA
ATOM     29  C   UNL     1       1.523   2.688  21.546  0.00  0.00    +0.000 C 
ENDBRANCH  25  28
ENDBRANCH   1  23
BRANCH   4  30
ATOM     30  C   UNL     1      -1.487  10.240  17.772  0.00  0.00    +0.000 C 
ATOM     31  C   UNL     1      -2.800   9.502  18.076  0.00  0.00    +0.000 C 
ATOM     32  C   UNL     1      -1.832  11.648  17.273  0.00  0.00    +0.000 C 
ENDBRANCH   4  30
TORSDOF 5
ENDMDL
MODEL 2
REMARK VINA RESULT:      -7.3      1.129      1.187
REMARK  Name = 
REMARK  12 active torsions:
REMARK  status: ('A' for Active; 'I' for Inactive)
REMARK    1  A    between atoms: C_1  and  O_2
REMARK    2  A    between atoms: O_2  and  C_3
REMARK    3  A    between atoms: C_7  and  C_8
REMARK    4  A    between atoms: C_11  and  C_12
REMARK    5  A    between atoms: C_12  and  C_13
REMARK    6  A    between atoms: C_12  and  C_14
REMARK    7  A    between atoms: C_17  and  C_18
REMARK    8  A    between atoms: C_20  and  C_21
REMARK    9  A    between atoms: C_22  and  C_23
REMARK   10  A    between atoms: C_25  and  C_26
REMARK   11  A    between atoms: C_30  and  O_31
REMARK   12  A    between atoms: O_31  and  C_32
REMARK                            x       y       z     vdW  Elec       q    Type
REMARK                         _______ _______ _______ _____ _____    ______ ____
ROOT
ATOM      1  C   UNL     1       1.484   8.671  20.635  0.00  0.00    +0.000 C 
ATOM      2  C   UNL     1       0.506   9.500  20.209  0.00  0.00    +0.000 C 
ATOM      3  C   UNL     1      -0.411   9.179  19.058  0.00  0.00    +0.000 C 
ATOM      4  C   UNL     1      -1.036  10.411  18.391  0.00  0.00    +0.000 C 
ATOM      5  C   UNL     1      -1.735  11.224  19.486  0.00  0.00    +0.000 C 
ATOM      6  C   UNL     1      -0.845  11.626  20.629  0.00  0.00    +0.000 C 
ATOM      7  C   UNL     1      -1.076  12.702  21.416  0.00  0.00    +0.000 C 
ATOM      8  C   UNL     1       0.376  10.814  20.922  0.00  0.00    +0.000 C 
ATOM      9  O   UNL     1       1.231  11.206  21.712  0.00  0.00    +0.000 OA
ENDROOT
BRANCH   7  10
ATOM     10  C   UNL     1      -2.282  13.552  21.367  0.00  0.00    +0.000 A 
ATOM     11  N   UNL     1      -3.386  13.023  21.952  0.00  0.00    +0.000 NA
ATOM     12  C   UNL     1      -4.525  13.756  21.947  0.00  0.00    +0.000 A 
ATOM     13  C   UNL     1      -5.728  13.087  22.535  0.00  0.00    +0.000 C 
ATOM     14  C   UNL     1      -4.556  15.038  21.401  0.00  0.00    +0.000 A 
ATOM     15  C   UNL     1      -5.773  15.910  21.422  0.00  0.00    +0.000 C 
ATOM     16  N   UNL     1      -3.453  15.578  20.821  0.00  0.00    +0.000 NA
ATOM     17  C   UNL     1      -2.320  14.823  20.796  0.00  0.00    +0.000 A 
ATOM     18  C   UNL     1      -1.143  15.433  20.100  0.00  0.00    +0.000 C 
ENDBRANCH   7  10
BRANCH   1  23
ATOM     19  C   UNL     1       2.109   4.849  18.764  0.00  0.00    +0.000 A 
ATOM     20  C   UNL     1       2.461   6.032  18.098  0.00  0.00    +0.000 A 
ATOM     21  C   UNL     1       2.310   7.280  18.713  0.00  0.00    +0.000 A 
ATOM     22 BR   UNL     1       2.827   8.815  17.715  0.00  0.00    +0.000 Br
ATOM     23  C   UNL     1       1.772   7.375  20.000  0.00  0.00    +0.000 A 
ATOM     24  C   UNL     1       1.424   6.192  20.667  0.00  0.00    +0.000 A 
ATOM     25  C   UNL     1       1.585   4.930  20.067  0.00  0.00    +0.000 A 
BRANCH  19  27
ATOM     26  C   UNL     1       3.331   3.415  17.310  0.00  0.00    +0.000 C 
ATOM     27  O   UNL     1       2.208   3.624  18.160  0.00  0.00    +0.000 OA
ENDBRANCH  19  27
BRANCH  25  28
ATOM     28  O   UNL     1       1.182   3.910  20.889  0.00  0.00    +0.000 OA
ATOM     29  C   UNL     1       2.147   3.244  21.691  0.00  0.00    +0.000 C 
ENDBRANCH  25  28
ENDBRANCH   1  23
BRANCH   4  30
ATOM     30  C   UNL     1      -2.042  10.019  17.260  0.00  0.00    +0.000 C 
ATOM     31  C   UNL     1      -3.365   9.474  17.818  0.00  0.00    +0.000 C 
ATOM     32  C   UNL     1      -2.362  11.190  16.323  0.00  0.00    +0.000 C 
ENDBRANCH   4  30
TORSDOF 5
ENDMDL
MODEL 3
REMARK VINA RESULT:      -7.3      3.638      9.209
REMARK  Name = 
REMARK  12 active torsions:
REMARK  status: ('A' for Active; 'I' for Inactive)
REMARK    1  A    between atoms: C_1  and  O_2
REMARK    2  A    between atoms: O_2  and  C_3
REMARK    3  A    between atoms: C_7  and  C_8
REMARK    4  A    between atoms: C_11  and  C_12
REMARK    5  A    between atoms: C_12  and  C_13
REMARK    6  A    between atoms: C_12  and  C_14
REMARK    7  A    between atoms: C_17  and  C_18
REMARK    8  A    between atoms: C_20  and  C_21
REMARK    9  A    between atoms: C_22  and  C_23
REMARK   10  A    between atoms: C_25  and  C_26
REMARK   11  A    between atoms: C_30  and  O_31
REMARK   12  A    between atoms: O_31  and  C_32
REMARK                            x       y       z     vdW  Elec       q    Type
REMARK                         _______ _______ _______ _____ _____    ______ ____
ROOT
ATOM      1  C   UNL     1       0.425  12.950  20.870  0.00  0.00    +0.000 C 
ATOM      2  C   UNL     1       0.228  11.763  20.257  0.00  0.00    +0.000 C 
ATOM      3  C   UNL     1      -0.626  11.595  19.028  0.00  0.00    +0.000 C 
ATOM      4  C   UNL     1      -1.169  10.175  18.828  0.00  0.00    +0.000 C 
ATOM      5  C   UNL     1       0.028   9.218  18.842  0.00  0.00    +0.000 C 
ATOM      6  C   UNL     1       0.878   9.299  20.080  0.00  0.00    +0.000 C 
ATOM      7  C   UNL     1       1.643   8.279  20.533  0.00  0.00    +0.000 C 
ATOM      8  C   UNL     1       0.883  10.564  20.878  0.00  0.00    +0.000 C 
ATOM      9  O   UNL     1       1.403  10.617  21.990  0.00  0.00    +0.000 OA
ENDROOT
BRANCH   7  10
ATOM     10  C   UNL     1       1.866   7.002  19.826  0.00  0.00    +0.000 A 
ATOM     11  N   UNL     1       1.411   5.898  20.470  0.00  0.00    +0.000 NA
ATOM     12  C   UNL     1       1.579   4.695  19.872  0.00  0.00    +0.000 A 
ATOM     13  C   UNL     1       1.129   3.508  20.667  0.00  0.00    +0.000 C 
ATOM     14  C   UNL     1       2.158   4.591  18.609  0.00  0.00    +0.000 A 
ATOM     15  C   UNL     1       2.313   3.292  17.882  0.00  0.00    +0.000 C 
ATOM     16  N   UNL     1       2.609   5.692  17.953  0.00  0.00    +0.000 NA
ATOM     17  C   UNL     1       2.470   6.896  18.574  0.00  0.00    +0.000 A 
ATOM     18  C   UNL     1       3.029   8.077  17.842  0.00  0.00    +0.000 C 
ENDBRANCH   7  10
BRANCH   1  23
ATOM     19  C   UNL     1      -1.364  16.694  19.742  0.00  0.00    +0.000 A 
ATOM     20  C   UNL     1      -0.123  16.311  19.213  0.00  0.00    +0.000 A 
ATOM     21  C   UNL     1       0.449  15.075  19.532  0.00  0.00    +0.000 A 
ATOM     22 BR   UNL     1       2.133  14.662  18.749  0.00  0.00    +0.000 Br
ATOM     23  C   UNL     1      -0.196  14.203  20.415  0.00  0.00    +0.000 A 
ATOM     24  C   UNL     1      -1.438  14.584  20.940  0.00  0.00    +0.000 A 
ATOM     25  C   UNL     1      -2.032  15.818  20.615  0.00  0.00    +0.000 A 
BRANCH  19  27
ATOM     26  C   UNL     1      -1.663  18.472  18.187  0.00  0.00    +0.000 C 
ATOM     27  O   UNL     1      -1.915  17.919  19.476  0.00  0.00    +0.000 OA
ENDBRANCH  19  27
BRANCH  25  28
ATOM     28  O   UNL     1      -3.241  15.990  21.238  0.00  0.00    +0.000 OA
ATOM     29  C   UNL     1      -3.289  16.030  22.658  0.00  0.00    +0.000 C 
ENDBRANCH  25  28
ENDBRANCH   1  23
BRANCH   4  30
ATOM     30  C   UNL     1      -1.977  10.036  17.498  0.00  0.00    +0.000 C 
ATOM     31  C   UNL     1      -3.370   9.429  17.721  0.00  0.00    +0.000 C 
ATOM     32  C   UNL     1      -2.147  11.373  16.767  0.00  0.00    +0.000 C 
ENDBRANCH   4  30
TORSDOF 5
ENDMDL
MODEL 4
REMARK VINA RESULT:      -7.2      1.129      1.813
REMARK  Name = 
REMARK  12 active torsions:
REMARK  status: ('A' for Active; 'I' for Inactive)
REMARK    1  A    between atoms: C_1  and  O_2
REMARK    2  A    between atoms: O_2  and  C_3
REMARK    3  A    between atoms: C_7  and  C_8
REMARK    4  A    between atoms: C_11  and  C_12
REMARK    5  A    between atoms: C_12  and  C_13
REMARK    6  A    between atoms: C_12  and  C_14
REMARK    7  A    between atoms: C_17  and  C_18
REMARK    8  A    between atoms: C_20  and  C_21
REMARK    9  A    between atoms: C_22  and  C_23
REMARK   10  A    between atoms: C_25  and  C_26
REMARK   11  A    between atoms: C_30  and  O_31
REMARK   12  A    between atoms: O_31  and  C_32
REMARK                            x       y       z     vdW  Elec       q    Type
REMARK                         _______ _______ _______ _____ _____    ______ ____
ROOT
ATOM      1  C   UNL     1       1.675   8.471  20.643  0.00  0.00    +0.000 C 
ATOM      2  C   UNL     1       0.744   9.373  20.264  0.00  0.00    +0.000 C 
ATOM      3  C   UNL     1      -0.241   9.131  19.151  0.00  0.00    +0.000 C 
ATOM      4  C   UNL     1      -0.801  10.411  18.518  0.00  0.00    +0.000 C 
ATOM      5  C   UNL     1      -1.392  11.264  19.646  0.00  0.00    +0.000 C 
ATOM      6  C   UNL     1      -0.428  11.589  20.752  0.00  0.00    +0.000 C 
ATOM      7  C   UNL     1      -0.546  12.672  21.555  0.00  0.00    +0.000 C 
ATOM      8  C   UNL     1       0.741  10.687  20.989  0.00  0.00    +0.000 C 
ATOM      9  O   UNL     1       1.655  11.008  21.745  0.00  0.00    +0.000 OA
ENDROOT
BRANCH   7  10
ATOM     10  C   UNL     1      -1.686  13.609  21.561  0.00  0.00    +0.000 A 
ATOM     11  N   UNL     1      -1.529  14.716  20.794  0.00  0.00    +0.000 NA
ATOM     12  C   UNL     1      -2.543  15.614  20.751  0.00  0.00    +0.000 A 
ATOM     13  C   UNL     1      -2.277  16.853  19.953  0.00  0.00    +0.000 C 
ATOM     14  C   UNL     1      -3.736  15.387  21.434  0.00  0.00    +0.000 A 
ATOM     15  C   UNL     1      -4.906  16.319  21.371  0.00  0.00    +0.000 C 
ATOM     16  N   UNL     1      -3.906  14.277  22.197  0.00  0.00    +0.000 NA
ATOM     17  C   UNL     1      -2.870  13.396  22.266  0.00  0.00    +0.000 A 
ATOM     18  C   UNL     1      -3.077  12.213  23.161  0.00  0.00    +0.000 C 
ENDBRANCH   7  10
BRANCH   1  23
ATOM     19  C   UNL     1       1.938   4.631  18.726  0.00  0.00    +0.000 A 
ATOM     20  C   UNL     1       2.351   5.790  18.054  0.00  0.00    +0.000 A 
ATOM     21  C   UNL     1       2.318   7.040  18.681  0.00  0.00    +0.000 A 
ATOM     22 BR   UNL     1       2.909   8.541  17.673  0.00  0.00    +0.000 Br
ATOM     23  C   UNL     1       1.840   7.163  19.990  0.00  0.00    +0.000 A 
ATOM     24  C   UNL     1       1.431   6.003  20.662  0.00  0.00    +0.000 A 
ATOM     25  C   UNL     1       1.474   4.738  20.049  0.00  0.00    +0.000 A 
BRANCH  19  27
ATOM     26  C   UNL     1       3.157   2.703  18.045  0.00  0.00    +0.000 C 
ATOM     27  O   UNL     1       1.921   3.407  18.110  0.00  0.00    +0.000 OA
ENDBRANCH  19  27
BRANCH  25  28
ATOM     28  O   UNL     1       1.028   3.744  20.880  0.00  0.00    +0.000 OA
ATOM     29  C   UNL     1       1.970   3.012  21.652  0.00  0.00    +0.000 C 
ENDBRANCH  25  28
ENDBRANCH   1  23
BRANCH   4  30
ATOM     30  C   UNL     1      -1.879  10.105  17.429  0.00  0.00    +0.000 C 
ATOM     31  C   UNL     1      -3.166   9.519  18.029  0.00  0.00    +0.000 C 
ATOM     32  C   UNL     1      -2.254  11.341  16.603  0.00  0.00    +0.000 C 
ENDBRANCH   4  30
TORSDOF 5
ENDMDL
MODEL 5
REMARK VINA RESULT:      -7.1      1.879      2.906
REMARK  Name = 
REMARK  12 active torsions:
REMARK  status: ('A' for Active; 'I' for Inactive)
REMARK    1  A    between atoms: C_1  and  O_2
REMARK    2  A    between atoms: O_2  and  C_3
REMARK    3  A    between atoms: C_7  and  C_8
REMARK    4  A    between atoms: C_11  and  C_12
REMARK    5  A    between atoms: C_12  and  C_13
REMARK    6  A    between atoms: C_12  and  C_14
REMARK    7  A    between atoms: C_17  and  C_18
REMARK    8  A    between atoms: C_20  and  C_21
REMARK    9  A    between atoms: C_22  and  C_23
REMARK   10  A    between atoms: C_25  and  C_26
REMARK   11  A    between atoms: C_30  and  O_31
REMARK   12  A    between atoms: O_31  and  C_32
REMARK                            x       y       z     vdW  Elec       q    Type
REMARK                         _______ _______ _______ _____ _____    ______ ____
ROOT
ATOM      1  C   UNL     1       0.860  10.044  20.920  0.00  0.00    +0.000 C 
ATOM      2  C   UNL     1      -0.261  10.690  20.534  0.00  0.00    +0.000 C 
ATOM      3  C   UNL     1      -1.045  10.327  19.300  0.00  0.00    +0.000 C 
ATOM      4  C   UNL     1      -1.902  11.469  18.741  0.00  0.00    +0.000 C 
ATOM      5  C   UNL     1      -2.801  11.970  19.877  0.00  0.00    +0.000 C 
ATOM      6  C   UNL     1      -2.061  12.408  21.111  0.00  0.00    +0.000 C 
ATOM      7  C   UNL     1      -2.550  13.302  22.001  0.00  0.00    +0.000 C 
ATOM      8  C   UNL     1      -0.702  11.846  21.383  0.00  0.00    +0.000 C 
ATOM      9  O   UNL     1       0.018  12.311  22.264  0.00  0.00    +0.000 OA
ENDROOT
BRANCH   7  10
ATOM     10  C   UNL     1      -3.911  13.873  21.975  0.00  0.00    +0.000 A 
ATOM     11  N   UNL     1      -4.164  14.718  20.945  0.00  0.00    +0.000 NA
ATOM     12  C   UNL     1      -5.398  15.271  20.860  0.00  0.00    +0.000 A 
ATOM     13  C   UNL     1      -5.590  16.256  19.749  0.00  0.00    +0.000 C 
ATOM     14  C   UNL     1      -6.398  14.947  21.774  0.00  0.00    +0.000 A 
ATOM     15  C   UNL     1      -7.793  15.486  21.689  0.00  0.00    +0.000 C 
ATOM     16  N   UNL     1      -6.157  14.095  22.803  0.00  0.00    +0.000 NA
ATOM     17  C   UNL     1      -4.905  13.570  22.906  0.00  0.00    +0.000 A 
ATOM     18  C   UNL     1      -4.664  12.678  24.085  0.00  0.00    +0.000 C 
ENDBRANCH   7  10
BRANCH   1  23
ATOM     19  C   UNL     1       2.379   6.697  18.689  0.00  0.00    +0.000 A 
ATOM     20  C   UNL     1       2.358   7.979  18.121  0.00  0.00    +0.000 A 
ATOM     21  C   UNL     1       1.914   9.086  18.851  0.00  0.00    +0.000 A 
ATOM     22 BR   UNL     1       1.937  10.776  17.979  0.00  0.00    +0.000 Br
ATOM     23  C   UNL     1       1.448   8.930  20.161  0.00  0.00    +0.000 A 
ATOM     24  C   UNL     1       1.472   7.648  20.729  0.00  0.00    +0.000 A 
ATOM     25  C   UNL     1       1.932   6.529  20.011  0.00  0.00    +0.000 A 
BRANCH  19  27
ATOM     26  C   UNL     1       4.158   5.474  17.684  0.00  0.00    +0.000 C 
ATOM     27  O   UNL     1       2.768   5.596  17.972  0.00  0.00    +0.000 OA
ENDBRANCH  19  27
BRANCH  25  28
ATOM     28  O   UNL     1       1.868   5.378  20.752  0.00  0.00    +0.000 OA
ATOM     29  C   UNL     1       0.954   4.359  20.370  0.00  0.00    +0.000 C 
ENDBRANCH  25  28
ENDBRANCH   1  23
BRANCH   4  30
ATOM     30  C   UNL     1      -2.758  11.016  17.514  0.00  0.00    +0.000 C 
ATOM     31  C   UNL     1      -2.134   9.821  16.777  0.00  0.00    +0.000 C 
ATOM     32  C   UNL     1      -4.195  10.645  17.899  0.00  0.00    +0.000 C 
ENDBRANCH   4  30
TORSDOF 5
ENDMDL
MODEL 6
REMARK VINA RESULT:      -7.1      1.853      2.153
REMARK  Name = 
REMARK  12 active torsions:
REMARK  status: ('A' for Active; 'I' for Inactive)
REMARK    1  A    between atoms: C_1  and  O_2
REMARK    2  A    between atoms: O_2  and  C_3
REMARK    3  A    between atoms: C_7  and  C_8
REMARK    4  A    between atoms: C_11  and  C_12
REMARK    5  A    between atoms: C_12  and  C_13
REMARK    6  A    between atoms: C_12  and  C_14
REMARK    7  A    between atoms: C_17  and  C_18
REMARK    8  A    between atoms: C_20  and  C_21
REMARK    9  A    between atoms: C_22  and  C_23
REMARK   10  A    between atoms: C_25  and  C_26
REMARK   11  A    between atoms: C_30  and  O_31
REMARK   12  A    between atoms: O_31  and  C_32
REMARK                            x       y       z     vdW  Elec       q    Type
REMARK                         _______ _______ _______ _____ _____    ______ ____
ROOT
ATOM      1  C   UNL     1       1.062   9.456  20.757  0.00  0.00    +0.000 C 
ATOM      2  C   UNL     1      -0.017  10.107  20.271  0.00  0.00    +0.000 C 
ATOM      3  C   UNL     1      -0.761   9.672  19.035  0.00  0.00    +0.000 C 
ATOM      4  C   UNL     1      -1.551  10.794  18.350  0.00  0.00    +0.000 C 
ATOM      5  C   UNL     1      -2.477  11.415  19.401  0.00  0.00    +0.000 C 
ATOM      6  C   UNL     1      -1.774  11.925  20.629  0.00  0.00    +0.000 C 
ATOM      7  C   UNL     1      -2.267  12.904  21.423  0.00  0.00    +0.000 C 
ATOM      8  C   UNL     1      -0.450  11.342  21.005  0.00  0.00    +0.000 C 
ATOM      9  O   UNL     1       0.249  11.851  21.878  0.00  0.00    +0.000 OA
ENDROOT
BRANCH   7  10
ATOM     10  C   UNL     1      -3.604  13.516  21.291  0.00  0.00    +0.000 A 
ATOM     11  N   UNL     1      -4.648  12.670  21.478  0.00  0.00    +0.000 NA
ATOM     12  C   UNL     1      -5.903  13.172  21.378  0.00  0.00    +0.000 A 
ATOM     13  C   UNL     1      -7.011  12.175  21.514  0.00  0.00    +0.000 C 
ATOM     14  C   UNL     1      -6.121  14.527  21.138  0.00  0.00    +0.000 A 
ATOM     15  C   UNL     1      -7.486  15.140  21.075  0.00  0.00    +0.000 C 
ATOM     16  N   UNL     1      -5.082  15.382  20.958  0.00  0.00    +0.000 NA
ATOM     17  C   UNL     1      -3.823  14.867  21.024  0.00  0.00    +0.000 A 
ATOM     18  C   UNL     1      -2.707  15.832  20.766  0.00  0.00    +0.000 C 
ENDBRANCH   7  10
BRANCH   1  23
ATOM     19  C   UNL     1       2.548   5.892  18.865  0.00  0.00    +0.000 A 
ATOM     20  C   UNL     1       2.607   7.126  18.202  0.00  0.00    +0.000 A 
ATOM     21  C   UNL     1       2.174   8.302  18.823  0.00  0.00    +0.000 A 
ATOM     22 BR   UNL     1       2.309   9.918  17.828  0.00  0.00    +0.000 Br
ATOM     23  C   UNL     1       1.640   8.266  20.115  0.00  0.00    +0.000 A 
ATOM     24  C   UNL     1       1.584   7.032  20.779  0.00  0.00    +0.000 A 
ATOM     25  C   UNL     1       2.031   5.844  20.172  0.00  0.00    +0.000 A 
BRANCH  19  27
ATOM     26  C   UNL     1       4.308   4.387  18.313  0.00  0.00    +0.000 C 
ATOM     27  O   UNL     1       2.925   4.725  18.255  0.00  0.00    +0.000 OA
ENDBRANCH  19  27
BRANCH  25  28
ATOM     28  O   UNL     1       1.885   4.757  20.993  0.00  0.00    +0.000 OA
ATOM     29  C   UNL     1       1.004   3.711  20.606  0.00  0.00    +0.000 C 
ENDBRANCH  25  28
ENDBRANCH   1  23
BRANCH   4  30
ATOM     30  C   UNL     1      -2.370  10.273  17.125  0.00  0.00    +0.000 C 
ATOM     31  C   UNL     1      -3.703   9.634  17.543  0.00  0.00    +0.000 C 
ATOM     32  C   UNL     1      -2.665  11.373  16.100  0.00  0.00    +0.000 C 
ENDBRANCH   4  30
TORSDOF 5
ENDMDL
MODEL 7
REMARK VINA RESULT:      -7.1      2.712      3.894
REMARK  Name = 
REMARK  12 active torsions:
REMARK  status: ('A' for Active; 'I' for Inactive)
REMARK    1  A    between atoms: C_1  and  O_2
REMARK    2  A    between atoms: O_2  and  C_3
REMARK    3  A    between atoms: C_7  and  C_8
REMARK    4  A    between atoms: C_11  and  C_12
REMARK    5  A    between atoms: C_12  and  C_13
REMARK    6  A    between atoms: C_12  and  C_14
REMARK    7  A    between atoms: C_17  and  C_18
REMARK    8  A    between atoms: C_20  and  C_21
REMARK    9  A    between atoms: C_22  and  C_23
REMARK   10  A    between atoms: C_25  and  C_26
REMARK   11  A    between atoms: C_30  and  O_31
REMARK   12  A    between atoms: O_31  and  C_32
REMARK                            x       y       z     vdW  Elec       q    Type
REMARK                         _______ _______ _______ _____ _____    ______ ____
ROOT
ATOM      1  C   UNL     1       2.549   7.548  18.142  0.00  0.00    +0.000 C 
ATOM      2  C   UNL     1       1.963   8.465  18.943  0.00  0.00    +0.000 C 
ATOM      3  C   UNL     1       1.683   8.233  20.404  0.00  0.00    +0.000 C 
ATOM      4  C   UNL     1       0.559   9.105  20.975  0.00  0.00    +0.000 C 
ATOM      5  C   UNL     1       0.909  10.566  20.673  0.00  0.00    +0.000 C 
ATOM      6  C   UNL     1       1.134  10.865  19.217  0.00  0.00    +0.000 C 
ATOM      7  C   UNL     1       0.969  12.091  18.669  0.00  0.00    +0.000 C 
ATOM      8  C   UNL     1       1.553   9.758  18.302  0.00  0.00    +0.000 C 
ATOM      9  O   UNL     1       1.563   9.905  17.082  0.00  0.00    +0.000 OA
ENDROOT
BRANCH   7  10
ATOM     10  C   UNL     1       0.680  13.329  19.419  0.00  0.00    +0.000 A 
ATOM     11  N   UNL     1       1.758  14.110  19.682  0.00  0.00    +0.000 NA
ATOM     12  C   UNL     1       1.560  15.265  20.362  0.00  0.00    +0.000 A 
ATOM     13  C   UNL     1       2.796  16.042  20.692  0.00  0.00    +0.000 C 
ATOM     14  C   UNL     1       0.281  15.668  20.741  0.00  0.00    +0.000 A 
ATOM     15  C   UNL     1       0.004  16.962  21.443  0.00  0.00    +0.000 C 
ATOM     16  N   UNL     1      -0.804  14.897  20.475  0.00  0.00    +0.000 NA
ATOM     17  C   UNL     1      -0.596  13.720  19.823  0.00  0.00    +0.000 A 
ATOM     18  C   UNL     1      -1.810  12.874  19.596  0.00  0.00    +0.000 C 
ENDBRANCH   7  10
BRANCH   1  23
ATOM     19  C   UNL     1       3.591   3.559  19.366  0.00  0.00    +0.000 A 
ATOM     20  C   UNL     1       4.527   4.367  18.704  0.00  0.00    +0.000 A 
ATOM     21  C   UNL     1       4.220   5.683  18.344  0.00  0.00    +0.000 A 
ATOM     22 BR   UNL     1       5.571   6.686  17.456  0.00  0.00    +0.000 Br
ATOM     23  C   UNL     1       2.953   6.213  18.611  0.00  0.00    +0.000 A 
ATOM     24  C   UNL     1       2.019   5.407  19.276  0.00  0.00    +0.000 A 
ATOM     25  C   UNL     1       2.321   4.087  19.658  0.00  0.00    +0.000 A 
BRANCH  19  27
ATOM     26  C   UNL     1       3.693   1.292  18.648  0.00  0.00    +0.000 C 
ATOM     27  O   UNL     1       3.861   2.254  19.684  0.00  0.00    +0.000 OA
ENDBRANCH  19  27
BRANCH  25  28
ATOM     28  O   UNL     1       1.269   3.478  20.291  0.00  0.00    +0.000 OA
ATOM     29  C   UNL     1       1.454   2.960  21.601  0.00  0.00    +0.000 C 
ENDBRANCH  25  28
ENDBRANCH   1  23
BRANCH   4  30
ATOM     30  C   UNL     1       0.366   8.886  22.511  0.00  0.00    +0.000 C 
ATOM     31  C   UNL     1       1.656   9.143  23.304  0.00  0.00    +0.000 C 
ATOM     32  C   UNL     1      -0.743   9.765  23.100  0.00  0.00    +0.000 C 
ENDBRANCH   4  30
TORSDOF 5
ENDMDL
MODEL 8
REMARK VINA RESULT:      -7.1      3.988      9.264
REMARK  Name = 
REMARK  12 active torsions:
REMARK  status: ('A' for Active; 'I' for Inactive)
REMARK    1  A    between atoms: C_1  and  O_2
REMARK    2  A    between atoms: O_2  and  C_3
REMARK    3  A    between atoms: C_7  and  C_8
REMARK    4  A    between atoms: C_11  and  C_12
REMARK    5  A    between atoms: C_12  and  C_13
REMARK    6  A    between atoms: C_12  and  C_14
REMARK    7  A    between atoms: C_17  and  C_18
REMARK    8  A    between atoms: C_20  and  C_21
REMARK    9  A    between atoms: C_22  and  C_23
REMARK   10  A    between atoms: C_25  and  C_26
REMARK   11  A    between atoms: C_30  and  O_31
REMARK   12  A    between atoms: O_31  and  C_32
REMARK                            x       y       z     vdW  Elec       q    Type
REMARK                         _______ _______ _______ _____ _____    ______ ____
ROOT
ATOM      1  C   UNL     1      -0.395  10.987  18.304  0.00  0.00    +0.000 C 
ATOM      2  C   UNL     1       0.270  10.055  19.019  0.00  0.00    +0.000 C 
ATOM      3  C   UNL     1       0.059   9.833  20.494  0.00  0.00    +0.000 C 
ATOM      4  C   UNL     1       1.246   9.172  21.206  0.00  0.00    +0.000 C 
ATOM      5  C   UNL     1       1.566   7.873  20.460  0.00  0.00    +0.000 C 
ATOM      6  C   UNL     1       1.850   8.048  18.994  0.00  0.00    +0.000 C 
ATOM      7  C   UNL     1       2.603   7.190  18.268  0.00  0.00    +0.000 C 
ATOM      8  C   UNL     1       1.290   9.237  18.281  0.00  0.00    +0.000 C 
ATOM      9  O   UNL     1       1.647   9.527  17.142  0.00  0.00    +0.000 OA
ENDROOT
BRANCH   7  10
ATOM     10  C   UNL     1       3.140   5.904  18.756  0.00  0.00    +0.000 A 
ATOM     11  N   UNL     1       2.267   5.147  19.468  0.00  0.00    +0.000 NA
ATOM     12  C   UNL     1       2.696   3.951  19.938  0.00  0.00    +0.000 A 
ATOM     13  C   UNL     1       1.715   3.199  20.784  0.00  0.00    +0.000 C 
ATOM     14  C   UNL     1       3.979   3.484  19.661  0.00  0.00    +0.000 A 
ATOM     15  C   UNL     1       4.479   2.145  20.109  0.00  0.00    +0.000 C 
ATOM     16  N   UNL     1       4.855   4.231  18.942  0.00  0.00    +0.000 NA
ATOM     17  C   UNL     1       4.432   5.448  18.501  0.00  0.00    +0.000 A 
ATOM     18  C   UNL     1       5.446   6.263  17.759  0.00  0.00    +0.000 C 
ENDBRANCH   7  10
BRANCH   1  23
ATOM     19  C   UNL     1      -3.328  13.507  20.186  0.00  0.00    +0.000 A 
ATOM     20  C   UNL     1      -1.964  13.825  20.262  0.00  0.00    +0.000 A 
ATOM     21  C   UNL     1      -1.002  13.043  19.613  0.00  0.00    +0.000 A 
ATOM     22 BR   UNL     1       0.817  13.574  19.781  0.00  0.00    +0.000 Br
ATOM     23  C   UNL     1      -1.382  11.903  18.897  0.00  0.00    +0.000 A 
ATOM     24  C   UNL     1      -2.745  11.587  18.819  0.00  0.00    +0.000 A 
ATOM     25  C   UNL     1      -3.724  12.374  19.453  0.00  0.00    +0.000 A 
BRANCH  19  27
ATOM     26  C   UNL     1      -4.523  13.883  22.210  0.00  0.00    +0.000 C 
ATOM     27  O   UNL     1      -4.277  14.236  20.853  0.00  0.00    +0.000 OA
ENDBRANCH  19  27
BRANCH  25  28
ATOM     28  O   UNL     1      -4.990  11.888  19.251  0.00  0.00    +0.000 OA
ATOM     29  C   UNL     1      -5.273  11.170  18.058  0.00  0.00    +0.000 C 
ENDBRANCH  25  28
ENDBRANCH   1  23
BRANCH   4  30
ATOM     30  C   UNL     1       0.943   8.889  22.713  0.00  0.00    +0.000 C 
ATOM     31  C   UNL     1       2.118   9.266  23.626  0.00  0.00    +0.000 C 
ATOM     32  C   UNL     1      -0.308   9.621  23.213  0.00  0.00    +0.000 C 
ENDBRANCH   4  30
TORSDOF 5
ENDMDL
MODEL 9
REMARK VINA RESULT:      -7.0      2.525      3.538
REMARK  Name = 
REMARK  12 active torsions:
REMARK  status: ('A' for Active; 'I' for Inactive)
REMARK    1  A    between atoms: C_1  and  O_2
REMARK    2  A    between atoms: O_2  and  C_3
REMARK    3  A    between atoms: C_7  and  C_8
REMARK    4  A    between atoms: C_11  and  C_12
REMARK    5  A    between atoms: C_12  and  C_13
REMARK    6  A    between atoms: C_12  and  C_14
REMARK    7  A    between atoms: C_17  and  C_18
REMARK    8  A    between atoms: C_20  and  C_21
REMARK    9  A    between atoms: C_22  and  C_23
REMARK   10  A    between atoms: C_25  and  C_26
REMARK   11  A    between atoms: C_30  and  O_31
REMARK   12  A    between atoms: O_31  and  C_32
REMARK                            x       y       z     vdW  Elec       q    Type
REMARK                         _______ _______ _______ _____ _____    ______ ____
ROOT
ATOM      1  C   UNL     1       2.509   7.683  18.168  0.00  0.00    +0.000 C 
ATOM      2  C   UNL     1       1.926   8.598  18.972  0.00  0.00    +0.000 C 
ATOM      3  C   UNL     1       1.610   8.346  20.423  0.00  0.00    +0.000 C 
ATOM      4  C   UNL     1       0.492   9.233  20.986  0.00  0.00    +0.000 C 
ATOM      5  C   UNL     1       0.881  10.691  20.718  0.00  0.00    +0.000 C 
ATOM      6  C   UNL     1       1.144  11.011  19.273  0.00  0.00    +0.000 C 
ATOM      7  C   UNL     1       1.016  12.250  18.744  0.00  0.00    +0.000 C 
ATOM      8  C   UNL     1       1.558   9.912  18.347  0.00  0.00    +0.000 C 
ATOM      9  O   UNL     1       1.597  10.080  17.130  0.00  0.00    +0.000 OA
ENDROOT
BRANCH   7  10
ATOM     10  C   UNL     1       0.738  13.480  19.511  0.00  0.00    +0.000 A 
ATOM     11  N   UNL     1      -0.565  13.680  19.830  0.00  0.00    +0.000 NA
ATOM     12  C   UNL     1      -0.887  14.788  20.540  0.00  0.00    +0.000 A 
ATOM     13  C   UNL     1      -2.349  14.994  20.790  0.00  0.00    +0.000 C 
ATOM     14  C   UNL     1       0.095  15.675  20.976  0.00  0.00    +0.000 A 
ATOM     15  C   UNL     1      -0.203  16.882  21.811  0.00  0.00    +0.000 C 
ATOM     16  N   UNL     1       1.403  15.479  20.669  0.00  0.00    +0.000 NA
ATOM     17  C   UNL     1       1.717  14.383  19.924  0.00  0.00    +0.000 A 
ATOM     18  C   UNL     1       3.162  14.231  19.562  0.00  0.00    +0.000 C 
ENDBRANCH   7  10
BRANCH   1  23
ATOM     19  C   UNL     1       3.428   3.652  19.348  0.00  0.00    +0.000 A 
ATOM     20  C   UNL     1       4.374   4.423  18.657  0.00  0.00    +0.000 A 
ATOM     21  C   UNL     1       4.109   5.752  18.310  0.00  0.00    +0.000 A 
ATOM     22 BR   UNL     1       5.469   6.702  17.380  0.00  0.00    +0.000 Br
ATOM     23  C   UNL     1       2.874   6.332  18.620  0.00  0.00    +0.000 A 
ATOM     24  C   UNL     1       1.930   5.561  19.313  0.00  0.00    +0.000 A 
ATOM     25  C   UNL     1       2.191   4.229  19.683  0.00  0.00    +0.000 A 
BRANCH  19  27
ATOM     26  C   UNL     1       3.593   1.405  18.579  0.00  0.00    +0.000 C 
ATOM     27  O   UNL     1       3.655   2.336  19.655  0.00  0.00    +0.000 OA
ENDBRANCH  19  27
BRANCH  25  28
ATOM     28  O   UNL     1       1.136   3.661  20.349  0.00  0.00    +0.000 OA
ATOM     29  C   UNL     1       1.375   2.986  21.576  0.00  0.00    +0.000 C 
ENDBRANCH  25  28
ENDBRANCH   1  23
BRANCH   4  30
ATOM     30  C   UNL     1       0.262   8.990  22.513  0.00  0.00    +0.000 C 
ATOM     31  C   UNL     1       1.553   9.145  23.330  0.00  0.00    +0.000 C 
ATOM     32  C   UNL     1      -0.798   9.925  23.107  0.00  0.00    +0.000 C 
ENDBRANCH   4  30
TORSDOF 5
ENDMDL
