MODEL 1
REMARK VINA RESULT:      -7.7      0.000      0.000
REMARK  Name = 
REMARK  6 active torsions:
REMARK  status: ('A' for Active; 'I' for Inactive)
REMARK    1  A    between atoms: C_1  and  C_2
REMARK    2  A    between atoms: C_2  and  C_3
REMARK    3  A    between atoms: C_2  and  N_14
REMARK    4  A    between atoms: C_6  and  O_7
REMARK    5  A    between atoms: O_7  and  C_8
REMARK    6  A    between atoms: C_17  and  N_18
REMARK                            x       y       z     vdW  Elec       q    Type
REMARK                         _______ _______ _______ _____ _____    ______ ____
ROOT
ATOM      1  N   UNL     1       0.171  10.632  18.898  0.00  0.00    +0.000 NA
ATOM      2  C   UNL     1      -1.082   9.869  18.841  0.00  0.00    +0.000 C 
ATOM      3  C   UNL     1      -1.981  10.376  17.726  0.00  0.00    +0.000 C 
ATOM      4  C   UNL     1      -2.348  11.832  17.954  0.00  0.00    +0.000 C 
ATOM      5  C   UNL     1      -1.107  12.696  18.169  0.00  0.00    +0.000 C 
ATOM      6  C   UNL     1      -0.038  12.077  19.064  0.00  0.00    +0.000 C 
ENDROOT
BRANCH   4   7
ATOM      7  N   UNL     1      -3.541  12.014  18.765  0.00  0.00    +0.000 N 
ATOM      8  C   UNL     1      -4.793  11.924  18.104  0.00  0.00    +0.000 A 
ATOM      9  O   UNL     1      -5.017  11.541  16.967  0.00  0.00    +0.000 OA
ATOM     10  N   UNL     1      -5.746  12.412  18.984  0.00  0.00    +0.000 N 
ATOM     11  C   UNL     1      -5.177  12.604  20.219  0.00  0.00    +0.000 A 
ATOM     12  C   UNL     1      -5.830  12.955  21.387  0.00  0.00    +0.000 A 
ATOM     13  C   UNL     1      -5.063  13.042  22.541  0.00  0.00    +0.000 A 
ATOM     14  C   UNL     1      -3.668  12.849  22.462  0.00  0.00    +0.000 A 
ATOM     15  C   UNL     1      -3.021  12.531  21.242  0.00  0.00    +0.000 A 
ATOM     16  C   UNL     1      -3.791  12.379  20.118  0.00  0.00    +0.000 A 
ATOM     17  H   UNL     1      -6.657  12.718  18.680  0.00  0.00    +0.000 HD
ENDBRANCH   4   7
BRANCH   1  19
ATOM     18  C   UNL     1       0.580  10.103  21.340  0.00  0.00    +0.000 C 
ATOM     19  C   UNL     1       1.128  10.082  19.898  0.00  0.00    +0.000 C 
BRANCH  19  20
ATOM     20  C   UNL     1       1.669   8.706  19.472  0.00  0.00    +0.000 A 
ATOM     21  C   UNL     1       2.197   8.457  18.195  0.00  0.00    +0.000 A 
ATOM     22  C   UNL     1       2.712   7.202  17.859  0.00  0.00    +0.000 A 
ATOM     23  C   UNL     1       2.727   6.166  18.789  0.00  0.00    +0.000 A 
ATOM     24  C   UNL     1       2.159   6.376  20.043  0.00  0.00    +0.000 A 
ATOM     25  C   UNL     1       1.647   7.636  20.385  0.00  0.00    +0.000 A 
BRANCH  23  26
ATOM     26  O   UNL     1       3.225   4.985  18.337  0.00  0.00    +0.000 OA
BRANCH  26  27
ATOM     27  C   UNL     1       2.325   4.018  17.811  0.00  0.00    +0.000 C 
ATOM     28  F   UNL     1       1.142   4.513  17.394  0.00  0.00    +0.000 F 
ATOM     29  F   UNL     1       2.917   3.395  16.769  0.00  0.00    +0.000 F 
ATOM     30  F   UNL     1       2.076   3.089  18.763  0.00  0.00    +0.000 F 
ENDBRANCH  26  27
ENDBRANCH  23  26
ENDBRANCH  19  20
ENDBRANCH   1  19
TORSDOF 5
ENDMDL
MODEL 2
REMARK VINA RESULT:      -7.6      0.193      1.164
REMARK  Name = 
REMARK  6 active torsions:
REMARK  status: ('A' for Active; 'I' for Inactive)
REMARK    1  A    between atoms: C_1  and  C_2
REMARK    2  A    between atoms: C_2  and  C_3
REMARK    3  A    between atoms: C_2  and  N_14
REMARK    4  A    between atoms: C_6  and  O_7
REMARK    5  A    between atoms: O_7  and  C_8
REMARK    6  A    between atoms: C_17  and  N_18
REMARK                            x       y       z     vdW  Elec       q    Type
REMARK                         _______ _______ _______ _____ _____    ______ ____
ROOT
ATOM      1  N   UNL     1       0.193  10.540  19.004  0.00  0.00    +0.000 NA
ATOM      2  C   UNL     1      -1.066   9.798  18.870  0.00  0.00    +0.000 C 
ATOM      3  C   UNL     1      -1.896  10.334  17.716  0.00  0.00    +0.000 C 
ATOM      4  C   UNL     1      -2.253  11.792  17.944  0.00  0.00    +0.000 C 
ATOM      5  C   UNL     1      -1.012  12.633  18.238  0.00  0.00    +0.000 C 
ATOM      6  C   UNL     1      -0.003  11.986  19.180  0.00  0.00    +0.000 C 
ENDROOT
BRANCH   4   7
ATOM      7  N   UNL     1      -3.485  11.982  18.693  0.00  0.00    +0.000 N 
ATOM      8  C   UNL     1      -4.703  11.865  17.975  0.00  0.00    +0.000 A 
ATOM      9  O   UNL     1      -4.869  11.453  16.838  0.00  0.00    +0.000 OA
ATOM     10  N   UNL     1      -5.702  12.364  18.796  0.00  0.00    +0.000 N 
ATOM     11  C   UNL     1      -5.194  12.591  20.052  0.00  0.00    +0.000 A 
ATOM     12  C   UNL     1      -5.904  12.962  21.179  0.00  0.00    +0.000 A 
ATOM     13  C   UNL     1      -5.195  13.085  22.366  0.00  0.00    +0.000 A 
ATOM     14  C   UNL     1      -3.796  12.903  22.358  0.00  0.00    +0.000 A 
ATOM     15  C   UNL     1      -3.089  12.562  21.178  0.00  0.00    +0.000 A 
ATOM     16  C   UNL     1      -3.803  12.377  20.023  0.00  0.00    +0.000 A 
ATOM     17  H   UNL     1      -6.599  12.654  18.442  0.00  0.00    +0.000 HD
ENDBRANCH   4   7
BRANCH   1  19
ATOM     18  C   UNL     1       0.459   9.964  21.456  0.00  0.00    +0.000 C 
ATOM     19  C   UNL     1       1.087   9.962  20.046  0.00  0.00    +0.000 C 
BRANCH  19  20
ATOM     20  C   UNL     1       1.636   8.587  19.627  0.00  0.00    +0.000 A 
ATOM     21  C   UNL     1       1.618   7.470  20.478  0.00  0.00    +0.000 A 
ATOM     22  C   UNL     1       2.094   6.228  20.048  0.00  0.00    +0.000 A 
ATOM     23  C   UNL     1       2.587   6.063  18.756  0.00  0.00    +0.000 A 
ATOM     24  C   UNL     1       2.663   7.170  17.916  0.00  0.00    +0.000 A 
ATOM     25  C   UNL     1       2.181   8.416  18.343  0.00  0.00    +0.000 A 
BRANCH  23  26
ATOM     26  O   UNL     1       3.048   4.817  18.464  0.00  0.00    +0.000 OA
BRANCH  26  27
ATOM     27  C   UNL     1       2.151   3.869  17.900  0.00  0.00    +0.000 C 
ATOM     28  F   UNL     1       2.674   3.111  16.915  0.00  0.00    +0.000 F 
ATOM     29  F   UNL     1       1.713   3.050  18.882  0.00  0.00    +0.000 F 
ATOM     30  F   UNL     1       1.080   4.526  17.398  0.00  0.00    +0.000 F 
ENDBRANCH  26  27
ENDBRANCH  23  26
ENDBRANCH  19  20
ENDBRANCH   1  19
TORSDOF 5
ENDMDL
MODEL 3
REMARK VINA RESULT:      -7.5      0.846      1.056
REMARK  Name = 
REMARK  6 active torsions:
REMARK  status: ('A' for Active; 'I' for Inactive)
REMARK    1  A    between atoms: C_1  and  C_2
REMARK    2  A    between atoms: C_2  and  C_3
REMARK    3  A    between atoms: C_2  and  N_14
REMARK    4  A    between atoms: C_6  and  O_7
REMARK    5  A    between atoms: O_7  and  C_8
REMARK    6  A    between atoms: C_17  and  N_18
REMARK                            x       y       z     vdW  Elec       q    Type
REMARK                         _______ _______ _______ _____ _____    ______ ____
ROOT
ATOM      1  N   UNL     1       0.058  10.629  18.981  0.00  0.00    +0.000 NA
ATOM      2  C   UNL     1      -0.990   9.787  18.393  0.00  0.00    +0.000 C 
ATOM      3  C   UNL     1      -1.576  10.431  17.148  0.00  0.00    +0.000 C 
ATOM      4  C   UNL     1      -2.208  11.771  17.483  0.00  0.00    +0.000 C 
ATOM      5  C   UNL     1      -1.233  12.678  18.232  0.00  0.00    +0.000 C 
ATOM      6  C   UNL     1      -0.404  11.986  19.309  0.00  0.00    +0.000 C 
ENDROOT
BRANCH   4   7
ATOM      7  N   UNL     1      -3.603  11.676  17.881  0.00  0.00    +0.000 N 
ATOM      8  C   UNL     1      -4.526  11.233  16.900  0.00  0.00    +0.000 A 
ATOM      9  O   UNL     1      -4.286  10.751  15.804  0.00  0.00    +0.000 OA
ATOM     10  N   UNL     1      -5.794  11.499  17.394  0.00  0.00    +0.000 N 
ATOM     11  C   UNL     1      -5.703  11.890  18.707  0.00  0.00    +0.000 A 
ATOM     12  C   UNL     1      -6.752  12.115  19.580  0.00  0.00    +0.000 A 
ATOM     13  C   UNL     1      -6.429  12.454  20.887  0.00  0.00    +0.000 A 
ATOM     14  C   UNL     1      -5.076  12.625  21.244  0.00  0.00    +0.000 A 
ATOM     15  C   UNL     1      -4.023  12.428  20.316  0.00  0.00    +0.000 A 
ATOM     16  C   UNL     1      -4.343  12.028  19.045  0.00  0.00    +0.000 A 
ATOM     17  H   UNL     1      -6.608  11.543  16.802  0.00  0.00    +0.000 HD
ENDBRANCH   4   7
BRANCH   1  19
ATOM     18  C   UNL     1      -0.178   9.791  21.358  0.00  0.00    +0.000 C 
ATOM     19  C   UNL     1       0.739   9.973  20.131  0.00  0.00    +0.000 C 
BRANCH  19  20
ATOM     20  C   UNL     1       1.451   8.676  19.707  0.00  0.00    +0.000 A 
ATOM     21  C   UNL     1       2.105   8.536  18.472  0.00  0.00    +0.000 A 
ATOM     22  C   UNL     1       2.771   7.353  18.138  0.00  0.00    +0.000 A 
ATOM     23  C   UNL     1       2.816   6.285  19.030  0.00  0.00    +0.000 A 
ATOM     24  C   UNL     1       2.129   6.384  20.237  0.00  0.00    +0.000 A 
ATOM     25  C   UNL     1       1.464   7.572  20.577  0.00  0.00    +0.000 A 
BRANCH  23  26
ATOM     26  O   UNL     1       3.468   5.179  18.582  0.00  0.00    +0.000 OA
BRANCH  26  27
ATOM     27  C   UNL     1       2.732   4.190  17.874  0.00  0.00    +0.000 C 
ATOM     28  F   UNL     1       1.519   4.589  17.440  0.00  0.00    +0.000 F 
ATOM     29  F   UNL     1       3.457   3.793  16.805  0.00  0.00    +0.000 F 
ATOM     30  F   UNL     1       2.557   3.116  18.678  0.00  0.00    +0.000 F 
ENDBRANCH  26  27
ENDBRANCH  23  26
ENDBRANCH  19  20
ENDBRANCH   1  19
TORSDOF 5
ENDMDL
MODEL 4
REMARK VINA RESULT:      -7.5      3.328      5.555
REMARK  Name = 
REMARK  6 active torsions:
REMARK  status: ('A' for Active; 'I' for Inactive)
REMARK    1  A    between atoms: C_1  and  C_2
REMARK    2  A    between atoms: C_2  and  C_3
REMARK    3  A    between atoms: C_2  and  N_14
REMARK    4  A    between atoms: C_6  and  O_7
REMARK    5  A    between atoms: O_7  and  C_8
REMARK    6  A    between atoms: C_17  and  N_18
REMARK                            x       y       z     vdW  Elec       q    Type
REMARK                         _______ _______ _______ _____ _____    ______ ____
ROOT
ATOM      1  N   UNL     1      -4.323  13.997  22.200  0.00  0.00    +0.000 NA
ATOM      2  C   UNL     1      -4.067  14.550  20.865  0.00  0.00    +0.000 C 
ATOM      3  C   UNL     1      -5.329  14.542  20.019  0.00  0.00    +0.000 C 
ATOM      4  C   UNL     1      -5.840  13.124  19.831  0.00  0.00    +0.000 C 
ATOM      5  C   UNL     1      -6.005  12.407  21.170  0.00  0.00    +0.000 C 
ATOM      6  C   UNL     1      -4.876  12.636  22.168  0.00  0.00    +0.000 C 
ENDROOT
BRANCH   4   7
ATOM      7  N   UNL     1      -5.271  12.444  18.680  0.00  0.00    +0.000 N 
ATOM      8  C   UNL     1      -6.107  12.281  17.546  0.00  0.00    +0.000 A 
ATOM      9  O   UNL     1      -7.197  12.789  17.336  0.00  0.00    +0.000 OA
ATOM     10  N   UNL     1      -5.476  11.374  16.709  0.00  0.00    +0.000 N 
ATOM     11  C   UNL     1      -4.206  11.129  17.171  0.00  0.00    +0.000 A 
ATOM     12  C   UNL     1      -3.224  10.385  16.543  0.00  0.00    +0.000 A 
ATOM     13  C   UNL     1      -1.986  10.312  17.166  0.00  0.00    +0.000 A 
ATOM     14  C   UNL     1      -1.806  10.922  18.424  0.00  0.00    +0.000 A 
ATOM     15  C   UNL     1      -2.845  11.645  19.063  0.00  0.00    +0.000 A 
ATOM     16  C   UNL     1      -4.045  11.771  18.413  0.00  0.00    +0.000 A 
ATOM     17  H   UNL     1      -5.966  10.874  15.985  0.00  0.00    +0.000 HD
ENDBRANCH   4   7
BRANCH   1  19
ATOM     18  C   UNL     1      -3.509  14.116  24.595  0.00  0.00    +0.000 C 
ATOM     19  C   UNL     1      -3.139  14.104  23.097  0.00  0.00    +0.000 C 
BRANCH  19  20
ATOM     20  C   UNL     1      -2.061  13.063  22.745  0.00  0.00    +0.000 A 
ATOM     21  C   UNL     1      -1.019  13.323  21.842  0.00  0.00    +0.000 A 
ATOM     22  C   UNL     1      -0.038  12.363  21.576  0.00  0.00    +0.000 A 
ATOM     23  C   UNL     1      -0.063  11.125  22.212  0.00  0.00    +0.000 A 
ATOM     24  C   UNL     1      -1.119  10.827  23.069  0.00  0.00    +0.000 A 
ATOM     25  C   UNL     1      -2.100  11.791  23.343  0.00  0.00    +0.000 A 
BRANCH  23  26
ATOM     26  O   UNL     1       0.925  10.264  21.850  0.00  0.00    +0.000 OA
BRANCH  26  27
ATOM     27  C   UNL     1       0.649   9.281  20.861  0.00  0.00    +0.000 C 
ATOM     28  F   UNL     1      -0.648   8.927  20.761  0.00  0.00    +0.000 F 
ATOM     29  F   UNL     1       1.057   9.747  19.660  0.00  0.00    +0.000 F 
ATOM     30  F   UNL     1       1.367   8.167  21.140  0.00  0.00    +0.000 F 
ENDBRANCH  26  27
ENDBRANCH  23  26
ENDBRANCH  19  20
ENDBRANCH   1  19
TORSDOF 5
ENDMDL
MODEL 5
REMARK VINA RESULT:      -7.4      0.796      1.379
REMARK  Name = 
REMARK  6 active torsions:
REMARK  status: ('A' for Active; 'I' for Inactive)
REMARK    1  A    between atoms: C_1  and  C_2
REMARK    2  A    between atoms: C_2  and  C_3
REMARK    3  A    between atoms: C_2  and  N_14
REMARK    4  A    between atoms: C_6  and  O_7
REMARK    5  A    between atoms: O_7  and  C_8
REMARK    6  A    between atoms: C_17  and  N_18
REMARK                            x       y       z     vdW  Elec       q    Type
REMARK                         _______ _______ _______ _____ _____    ______ ____
ROOT
ATOM      1  N   UNL     1       0.581  10.073  19.447  0.00  0.00    +0.000 NA
ATOM      2  C   UNL     1      -0.750   9.518  19.175  0.00  0.00    +0.000 C 
ATOM      3  C   UNL     1      -1.409  10.228  18.004  0.00  0.00    +0.000 C 
ATOM      4  C   UNL     1      -1.587  11.706  18.303  0.00  0.00    +0.000 C 
ATOM      5  C   UNL     1      -0.273  12.351  18.739  0.00  0.00    +0.000 C 
ATOM      6  C   UNL     1       0.565  11.520  19.704  0.00  0.00    +0.000 C 
ENDROOT
BRANCH   4   7
ATOM      7  N   UNL     1      -2.838  12.020  18.974  0.00  0.00    +0.000 N 
ATOM      8  C   UNL     1      -4.003  12.095  18.168  0.00  0.00    +0.000 A 
ATOM      9  O   UNL     1      -4.133  11.760  17.001  0.00  0.00    +0.000 OA
ATOM     10  N   UNL     1      -4.990  12.682  18.944  0.00  0.00    +0.000 N 
ATOM     11  C   UNL     1      -4.555  12.783  20.243  0.00  0.00    +0.000 A 
ATOM     12  C   UNL     1      -5.296  13.192  21.336  0.00  0.00    +0.000 A 
ATOM     13  C   UNL     1      -4.668  13.166  22.575  0.00  0.00    +0.000 A 
ATOM     14  C   UNL     1      -3.307  12.805  22.654  0.00  0.00    +0.000 A 
ATOM     15  C   UNL     1      -2.561  12.429  21.509  0.00  0.00    +0.000 A 
ATOM     16  C   UNL     1      -3.204  12.391  20.299  0.00  0.00    +0.000 A 
ATOM     17  H   UNL     1      -5.814  13.102  18.545  0.00  0.00    +0.000 HD
ENDBRANCH   4   7
BRANCH   1  19
ATOM     18  C   UNL     1       0.536   9.259  21.845  0.00  0.00    +0.000 C 
ATOM     19  C   UNL     1       1.306   9.320  20.508  0.00  0.00    +0.000 C 
BRANCH  19  20
ATOM     20  C   UNL     1       1.772   7.940  20.012  0.00  0.00    +0.000 A 
ATOM     21  C   UNL     1       1.641   6.772  20.779  0.00  0.00    +0.000 A 
ATOM     22  C   UNL     1       2.045   5.531  20.279  0.00  0.00    +0.000 A 
ATOM     23  C   UNL     1       2.575   5.419  18.996  0.00  0.00    +0.000 A 
ATOM     24  C   UNL     1       2.763   6.572  18.240  0.00  0.00    +0.000 A 
ATOM     25  C   UNL     1       2.354   7.818  18.738  0.00  0.00    +0.000 A 
BRANCH  23  26
ATOM     26  O   UNL     1       2.958   4.166  18.631  0.00  0.00    +0.000 OA
BRANCH  26  27
ATOM     27  C   UNL     1       1.963   3.236  18.227  0.00  0.00    +0.000 C 
ATOM     28  F   UNL     1       1.448   2.488  19.224  0.00  0.00    +0.000 F 
ATOM     29  F   UNL     1       0.952   3.911  17.636  0.00  0.00    +0.000 F 
ATOM     30  F   UNL     1       2.495   2.398  17.307  0.00  0.00    +0.000 F 
ENDBRANCH  26  27
ENDBRANCH  23  26
ENDBRANCH  19  20
ENDBRANCH   1  19
TORSDOF 5
ENDMDL
MODEL 6
REMARK VINA RESULT:      -7.4      1.264      1.477
REMARK  Name = 
REMARK  6 active torsions:
REMARK  status: ('A' for Active; 'I' for Inactive)
REMARK    1  A    between atoms: C_1  and  C_2
REMARK    2  A    between atoms: C_2  and  C_3
REMARK    3  A    between atoms: C_2  and  N_14
REMARK    4  A    between atoms: C_6  and  O_7
REMARK    5  A    between atoms: O_7  and  C_8
REMARK    6  A    between atoms: C_17  and  N_18
REMARK                            x       y       z     vdW  Elec       q    Type
REMARK                         _______ _______ _______ _____ _____    ______ ____
ROOT
ATOM      1  N   UNL     1       0.127  10.391  18.905  0.00  0.00    +0.000 NA
ATOM      2  C   UNL     1      -1.145   9.679  18.736  0.00  0.00    +0.000 C 
ATOM      3  C   UNL     1      -1.927  10.230  17.556  0.00  0.00    +0.000 C 
ATOM      4  C   UNL     1      -2.255  11.698  17.768  0.00  0.00    +0.000 C 
ATOM      5  C   UNL     1      -1.004  12.510  18.096  0.00  0.00    +0.000 C 
ATOM      6  C   UNL     1      -0.039  11.843  19.070  0.00  0.00    +0.000 C 
ENDROOT
BRANCH   4   7
ATOM      7  N   UNL     1      -3.504  11.921  18.479  0.00  0.00    +0.000 N 
ATOM      8  C   UNL     1      -4.703  11.821  17.727  0.00  0.00    +0.000 A 
ATOM      9  O   UNL     1      -4.844  11.401  16.590  0.00  0.00    +0.000 OA
ATOM     10  N   UNL     1      -5.714  12.349  18.514  0.00  0.00    +0.000 N 
ATOM     11  C   UNL     1      -5.239  12.579  19.781  0.00  0.00    +0.000 A 
ATOM     12  C   UNL     1      -5.973  12.976  20.884  0.00  0.00    +0.000 A 
ATOM     13  C   UNL     1      -5.295  13.096  22.089  0.00  0.00    +0.000 A 
ATOM     14  C   UNL     1      -3.901  12.886  22.124  0.00  0.00    +0.000 A 
ATOM     15  C   UNL     1      -3.168  12.518  20.969  0.00  0.00    +0.000 A 
ATOM     16  C   UNL     1      -3.852  12.335  19.795  0.00  0.00    +0.000 A 
ATOM     17  H   UNL     1      -6.595  12.654  18.131  0.00  0.00    +0.000 HD
ENDBRANCH   4   7
BRANCH   1  19
ATOM     18  C   UNL     1       0.223   9.600  21.309  0.00  0.00    +0.000 C 
ATOM     19  C   UNL     1       0.975   9.796  19.976  0.00  0.00    +0.000 C 
BRANCH  19  20
ATOM     20  C   UNL     1       1.696   8.526  19.492  0.00  0.00    +0.000 A 
ATOM     21  C   UNL     1       2.333   8.442  18.243  0.00  0.00    +0.000 A 
ATOM     22  C   UNL     1       3.008   7.281  17.854  0.00  0.00    +0.000 A 
ATOM     23  C   UNL     1       3.079   6.180  18.704  0.00  0.00    +0.000 A 
ATOM     24  C   UNL     1       2.408   6.224  19.922  0.00  0.00    +0.000 A 
ATOM     25  C   UNL     1       1.735   7.389  20.318  0.00  0.00    +0.000 A 
BRANCH  23  26
ATOM     26  O   UNL     1       3.737   5.100  18.204  0.00  0.00    +0.000 OA
BRANCH  26  27
ATOM     27  C   UNL     1       4.886   4.621  18.889  0.00  0.00    +0.000 C 
ATOM     28  F   UNL     1       5.546   5.551  19.608  0.00  0.00    +0.000 F 
ATOM     29  F   UNL     1       4.510   3.625  19.722  0.00  0.00    +0.000 F 
ATOM     30  F   UNL     1       5.749   4.101  17.985  0.00  0.00    +0.000 F 
ENDBRANCH  26  27
ENDBRANCH  23  26
ENDBRANCH  19  20
ENDBRANCH   1  19
TORSDOF 5
ENDMDL
MODEL 7
REMARK VINA RESULT:      -7.3      1.171      1.591
REMARK  Name = 
REMARK  6 active torsions:
REMARK  status: ('A' for Active; 'I' for Inactive)
REMARK    1  A    between atoms: C_1  and  C_2
REMARK    2  A    between atoms: C_2  and  C_3
REMARK    3  A    between atoms: C_2  and  N_14
REMARK    4  A    between atoms: C_6  and  O_7
REMARK    5  A    between atoms: O_7  and  C_8
REMARK    6  A    between atoms: C_17  and  N_18
REMARK                            x       y       z     vdW  Elec       q    Type
REMARK                         _______ _______ _______ _____ _____    ______ ____
ROOT
ATOM      1  N   UNL     1       0.125  10.516  19.012  0.00  0.00    +0.000 NA
ATOM      2  C   UNL     1      -1.124   9.761  18.857  0.00  0.00    +0.000 C 
ATOM      3  C   UNL     1      -1.901  10.235  17.640  0.00  0.00    +0.000 C 
ATOM      4  C   UNL     1      -2.273  11.701  17.778  0.00  0.00    +0.000 C 
ATOM      5  C   UNL     1      -1.049  12.562  18.086  0.00  0.00    +0.000 C 
ATOM      6  C   UNL     1      -0.083  11.968  19.105  0.00  0.00    +0.000 C 
ENDROOT
BRANCH   4   7
ATOM      7  N   UNL     1      -3.538  11.922  18.458  0.00  0.00    +0.000 N 
ATOM      8  C   UNL     1      -4.719  11.814  17.678  0.00  0.00    +0.000 A 
ATOM      9  O   UNL     1      -4.832  11.388  16.540  0.00  0.00    +0.000 OA
ATOM     10  N   UNL     1      -5.751  12.341  18.439  0.00  0.00    +0.000 N 
ATOM     11  C   UNL     1      -5.306  12.578  19.716  0.00  0.00    +0.000 A 
ATOM     12  C   UNL     1      -6.068  12.977  20.799  0.00  0.00    +0.000 A 
ATOM     13  C   UNL     1      -5.420  13.105  22.020  0.00  0.00    +0.000 A 
ATOM     14  C   UNL     1      -4.026  12.901  22.089  0.00  0.00    +0.000 A 
ATOM     15  C   UNL     1      -3.264  12.532  20.952  0.00  0.00    +0.000 A 
ATOM     16  C   UNL     1      -3.919  12.341  19.764  0.00  0.00    +0.000 A 
ATOM     17  H   UNL     1      -6.623  12.640  18.034  0.00  0.00    +0.000 HD
ENDBRANCH   4   7
BRANCH   1  19
ATOM     18  C   UNL     1       0.271  10.047  21.496  0.00  0.00    +0.000 C 
ATOM     19  C   UNL     1       0.971   9.996  20.122  0.00  0.00    +0.000 C 
BRANCH  19  20
ATOM     20  C   UNL     1       1.559   8.613  19.791  0.00  0.00    +0.000 A 
ATOM     21  C   UNL     1       1.550   7.544  20.701  0.00  0.00    +0.000 A 
ATOM     22  C   UNL     1       2.062   6.292  20.351  0.00  0.00    +0.000 A 
ATOM     23  C   UNL     1       2.583   6.067  19.079  0.00  0.00    +0.000 A 
ATOM     24  C   UNL     1       2.651   7.128  18.180  0.00  0.00    +0.000 A 
ATOM     25  C   UNL     1       2.132   8.384  18.528  0.00  0.00    +0.000 A 
BRANCH  23  26
ATOM     26  O   UNL     1       3.078   4.819  18.865  0.00  0.00    +0.000 OA
BRANCH  26  27
ATOM     27  C   UNL     1       4.487   4.641  18.809  0.00  0.00    +0.000 C 
ATOM     28  F   UNL     1       5.031   4.809  17.587  0.00  0.00    +0.000 F 
ATOM     29  F   UNL     1       5.069   5.516  19.658  0.00  0.00    +0.000 F 
ATOM     30  F   UNL     1       4.787   3.391  19.232  0.00  0.00    +0.000 F 
ENDBRANCH  26  27
ENDBRANCH  23  26
ENDBRANCH  19  20
ENDBRANCH   1  19
TORSDOF 5
ENDMDL
MODEL 8
REMARK VINA RESULT:      -7.2      4.162      9.501
REMARK  Name = 
REMARK  6 active torsions:
REMARK  status: ('A' for Active; 'I' for Inactive)
REMARK    1  A    between atoms: C_1  and  C_2
REMARK    2  A    between atoms: C_2  and  C_3
REMARK    3  A    between atoms: C_2  and  N_14
REMARK    4  A    between atoms: C_6  and  O_7
REMARK    5  A    between atoms: O_7  and  C_8
REMARK    6  A    between atoms: C_17  and  N_18
REMARK                            x       y       z     vdW  Elec       q    Type
REMARK                         _______ _______ _______ _____ _____    ______ ____
ROOT
ATOM      1  N   UNL     1       1.370   8.043  19.024  0.00  0.00    +0.000 NA
ATOM      2  C   UNL     1       1.928   7.391  17.834  0.00  0.00    +0.000 C 
ATOM      3  C   UNL     1       1.745   5.884  17.900  0.00  0.00    +0.000 C 
ATOM      4  C   UNL     1       2.461   5.309  19.108  0.00  0.00    +0.000 C 
ATOM      5  C   UNL     1       2.053   6.024  20.395  0.00  0.00    +0.000 C 
ATOM      6  C   UNL     1       1.941   7.540  20.282  0.00  0.00    +0.000 C 
ENDROOT
BRANCH   4   7
ATOM      7  N   UNL     1       3.848   4.955  18.853  0.00  0.00    +0.000 N 
ATOM      8  C   UNL     1       4.284   3.682  19.301  0.00  0.00    +0.000 A 
ATOM      9  O   UNL     1       3.605   2.761  19.726  0.00  0.00    +0.000 OA
ATOM     10  N   UNL     1       5.668   3.682  19.221  0.00  0.00    +0.000 N 
ATOM     11  C   UNL     1       6.091   4.807  18.556  0.00  0.00    +0.000 A 
ATOM     12  C   UNL     1       7.384   5.102  18.163  0.00  0.00    +0.000 A 
ATOM     13  C   UNL     1       7.579   6.277  17.451  0.00  0.00    +0.000 A 
ATOM     14  C   UNL     1       6.487   7.141  17.227  0.00  0.00    +0.000 A 
ATOM     15  C   UNL     1       5.179   6.831  17.677  0.00  0.00    +0.000 A 
ATOM     16  C   UNL     1       4.979   5.638  18.322  0.00  0.00    +0.000 A 
ATOM     17  H   UNL     1       6.239   3.024  19.727  0.00  0.00    +0.000 HD
ENDBRANCH   4   7
BRANCH   1  19
ATOM     18  C   UNL     1       2.418  10.042  17.875  0.00  0.00    +0.000 C 
ATOM     19  C   UNL     1       1.422   9.529  18.936  0.00  0.00    +0.000 C 
BRANCH  19  20
ATOM     20  C   UNL     1       0.017  10.141  18.797  0.00  0.00    +0.000 A 
ATOM     21  C   UNL     1      -0.567  10.940  19.793  0.00  0.00    +0.000 A 
ATOM     22  C   UNL     1      -1.832  11.507  19.614  0.00  0.00    +0.000 A 
ATOM     23  C   UNL     1      -2.542  11.306  18.432  0.00  0.00    +0.000 A 
ATOM     24  C   UNL     1      -2.004  10.473  17.455  0.00  0.00    +0.000 A 
ATOM     25  C   UNL     1      -0.733   9.907  17.630  0.00  0.00    +0.000 A 
BRANCH  23  26
ATOM     26  O   UNL     1      -3.772  11.883  18.387  0.00  0.00    +0.000 OA
BRANCH  26  27
ATOM     27  C   UNL     1      -4.870  11.120  17.903  0.00  0.00    +0.000 C 
ATOM     28  F   UNL     1      -5.027  11.141  16.564  0.00  0.00    +0.000 F 
ATOM     29  F   UNL     1      -4.711   9.836  18.294  0.00  0.00    +0.000 F 
ATOM     30  F   UNL     1      -6.008  11.587  18.466  0.00  0.00    +0.000 F 
ENDBRANCH  26  27
ENDBRANCH  23  26
ENDBRANCH  19  20
ENDBRANCH   1  19
TORSDOF 5
ENDMDL
MODEL 9
REMARK VINA RESULT:      -7.2      6.007      8.720
REMARK  Name = 
REMARK  6 active torsions:
REMARK  status: ('A' for Active; 'I' for Inactive)
REMARK    1  A    between atoms: C_1  and  C_2
REMARK    2  A    between atoms: C_2  and  C_3
REMARK    3  A    between atoms: C_2  and  N_14
REMARK    4  A    between atoms: C_6  and  O_7
REMARK    5  A    between atoms: O_7  and  C_8
REMARK    6  A    between atoms: C_17  and  N_18
REMARK                            x       y       z     vdW  Elec       q    Type
REMARK                         _______ _______ _______ _____ _____    ______ ____
ROOT
ATOM      1  N   UNL     1       5.743   4.220  17.425  0.00  0.00    +0.000 NA
ATOM      2  C   UNL     1       5.641   4.489  18.864  0.00  0.00    +0.000 C 
ATOM      3  C   UNL     1       4.396   3.846  19.453  0.00  0.00    +0.000 C 
ATOM      4  C   UNL     1       3.144   4.402  18.798  0.00  0.00    +0.000 C 
ATOM      5  C   UNL     1       3.215   4.299  17.276  0.00  0.00    +0.000 C 
ATOM      6  C   UNL     1       4.565   4.663  16.667  0.00  0.00    +0.000 C 
ENDROOT
BRANCH   4   7
ATOM      7  N   UNL     1       2.625   5.595  19.447  0.00  0.00    +0.000 N 
ATOM      8  C   UNL     1       2.169   5.458  20.783  0.00  0.00    +0.000 A 
ATOM      9  O   UNL     1       2.310   4.504  21.532  0.00  0.00    +0.000 OA
ATOM     10  N   UNL     1       1.465   6.613  21.087  0.00  0.00    +0.000 N 
ATOM     11  C   UNL     1       1.639   7.534  20.084  0.00  0.00    +0.000 A 
ATOM     12  C   UNL     1       1.207   8.848  20.081  0.00  0.00    +0.000 A 
ATOM     13  C   UNL     1       1.541   9.625  18.980  0.00  0.00    +0.000 A 
ATOM     14  C   UNL     1       2.228   9.034  17.899  0.00  0.00    +0.000 A 
ATOM     15  C   UNL     1       2.623   7.673  17.913  0.00  0.00    +0.000 A 
ATOM     16  C   UNL     1       2.349   6.928  19.031  0.00  0.00    +0.000 A 
ATOM     17  H   UNL     1       0.811   6.662  21.852  0.00  0.00    +0.000 HD
ENDBRANCH   4   7
BRANCH   1  19
ATOM     18  C   UNL     1       7.005   4.759  15.297  0.00  0.00    +0.000 C 
ATOM     19  C   UNL     1       7.014   4.730  16.840  0.00  0.00    +0.000 C 
BRANCH  19  20
ATOM     20  C   UNL     1       7.436   6.069  17.471  0.00  0.00    +0.000 A 
ATOM     21  C   UNL     1       8.153   6.149  18.675  0.00  0.00    +0.000 A 
ATOM     22  C   UNL     1       8.548   7.384  19.198  0.00  0.00    +0.000 A 
ATOM     23  C   UNL     1       8.253   8.568  18.528  0.00  0.00    +0.000 A 
ATOM     24  C   UNL     1       7.496   8.513  17.361  0.00  0.00    +0.000 A 
ATOM     25  C   UNL     1       7.103   7.276  16.831  0.00  0.00    +0.000 A 
BRANCH  23  26
ATOM     26  O   UNL     1       8.663   9.706  19.149  0.00  0.00    +0.000 OA
BRANCH  26  27
ATOM     27  C   UNL     1       9.344  10.695  18.388  0.00  0.00    +0.000 C 
ATOM     28  F   UNL     1       8.578  11.729  17.988  0.00  0.00    +0.000 F 
ATOM     29  F   UNL     1      10.366  11.183  19.126  0.00  0.00    +0.000 F 
ATOM     30  F   UNL     1       9.870  10.113  17.285  0.00  0.00    +0.000 F 
ENDBRANCH  26  27
ENDBRANCH  23  26
ENDBRANCH  19  20
ENDBRANCH   1  19
TORSDOF 5
ENDMDL
