MODEL 1
REMARK VINA RESULT:      -8.6      0.000      0.000
REMARK  Name = 
REMARK  5 active torsions:
REMARK  status: ('A' for Active; 'I' for Inactive)
REMARK    1  A    between atoms: C_1  and  C_2
REMARK    2  A    between atoms: C_7  and  N_8
REMARK    3  A    between atoms: N_8  and  C_9
REMARK    4  A    between atoms: C_10  and  C_11
REMARK    5  A    between atoms: C_18  and  N_19
REMARK                            x       y       z     vdW  Elec       q    Type
REMARK                         _______ _______ _______ _____ _____    ______ ____
ROOT
ATOM      1  C   UNL     1       3.257   4.525  18.632  0.00  0.00    +0.000 A 
ATOM      2  C   UNL     1       3.291   3.443  19.458  0.00  0.00    +0.000 A 
ATOM      3  C   UNL     1       2.566   3.564  20.755  0.00  0.00    +0.000 A 
ATOM      4  N   UNL     1       1.963   4.605  21.220  0.00  0.00    +0.000 NA
ATOM      5  N   UNL     1       2.019   5.657  20.387  0.00  0.00    +0.000 N 
ATOM      6  C   UNL     1       1.516   6.882  20.712  0.00  0.00    +0.000 A 
ATOM      7  C   UNL     1       1.735   7.759  19.678  0.00  0.00    +0.000 A 
ATOM      8  C   UNL     1       2.379   6.999  18.656  0.00  0.00    +0.000 A 
ATOM      9  C   UNL     1       2.597   5.708  19.133  0.00  0.00    +0.000 A 
ENDROOT
BRANCH   7  10
ATOM     10  N   UNL     1       1.417   9.116  19.693  0.00  0.00    +0.000 N 
ATOM     11  C   UNL     1       0.913   9.859  20.821  0.00  0.00    +0.000 C 
ATOM     12  C   UNL     1       0.103  10.969  20.184  0.00  0.00    +0.000 C 
ATOM     13  C   UNL     1       0.858  11.267  18.900  0.00  0.00    +0.000 C 
ATOM     14  C   UNL     1       1.505   9.947  18.559  0.00  0.00    +0.000 C 
ATOM     15  O   UNL     1       2.003   9.724  17.466  0.00  0.00    +0.000 OA
ENDBRANCH   7  10
BRANCH   2  16
ATOM     16  C   UNL     1       4.023   2.157  19.242  0.00  0.00    +0.000 C 
ATOM     17  N   UNL     1       5.017   1.841  20.108  0.00  0.00    +0.000 N 
ATOM     18  O   UNL     1       3.702   1.371  18.358  0.00  0.00    +0.000 OA
ATOM     19  H   UNL     1       5.190   2.429  20.913  0.00  0.00    +0.000 HD
ATOM     20  H   UNL     1       5.431   0.920  20.048  0.00  0.00    +0.000 HD
ENDBRANCH   2  16
BRANCH   1  21
ATOM     21  N   UNL     1       3.916   4.596  17.391  0.00  0.00    +0.000 N 
ATOM     22  H   UNL     1       3.936   3.666  16.958  0.00  0.00    +0.000 HD
BRANCH  21  29
ATOM     23  C   UNL     1       5.902   4.952  14.729  0.00  0.00    +0.000 C 
ATOM     24  C   UNL     1       6.057   4.429  16.145  0.00  0.00    +0.000 C 
ATOM     25  F   UNL     1       5.650   3.119  16.154  0.00  0.00    +0.000 F 
ATOM     26  C   UNL     1       7.492   4.475  16.634  0.00  0.00    +0.000 C 
ATOM     27  O   UNL     1       7.430   4.472  18.063  0.00  0.00    +0.000 OA
ATOM     28  C   UNL     1       6.168   5.032  18.458  0.00  0.00    +0.000 C 
ATOM     29  C   UNL     1       5.274   5.190  17.221  0.00  0.00    +0.000 C 
ENDBRANCH  21  29
ENDBRANCH   1  21
TORSDOF 4
ENDMDL
MODEL 2
REMARK VINA RESULT:      -8.4      1.056      1.058
REMARK  Name = 
REMARK  5 active torsions:
REMARK  status: ('A' for Active; 'I' for Inactive)
REMARK    1  A    between atoms: C_1  and  C_2
REMARK    2  A    between atoms: C_7  and  N_8
REMARK    3  A    between atoms: N_8  and  C_9
REMARK    4  A    between atoms: C_10  and  C_11
REMARK    5  A    between atoms: C_18  and  N_19
REMARK                            x       y       z     vdW  Elec       q    Type
REMARK                         _______ _______ _______ _____ _____    ______ ____
ROOT
ATOM      1  C   UNL     1       3.595   4.112  18.935  0.00  0.00    +0.000 A 
ATOM      2  C   UNL     1       3.592   3.065  19.804  0.00  0.00    +0.000 A 
ATOM      3  C   UNL     1       2.747   3.206  21.025  0.00  0.00    +0.000 A 
ATOM      4  N   UNL     1       2.067   4.240  21.390  0.00  0.00    +0.000 NA
ATOM      5  N   UNL     1       2.162   5.261  20.523  0.00  0.00    +0.000 N 
ATOM      6  C   UNL     1       1.588   6.476  20.750  0.00  0.00    +0.000 A 
ATOM      7  C   UNL     1       1.869   7.322  19.705  0.00  0.00    +0.000 A 
ATOM      8  C   UNL     1       2.631   6.549  18.777  0.00  0.00    +0.000 A 
ATOM      9  C   UNL     1       2.850   5.287  19.325  0.00  0.00    +0.000 A 
ENDROOT
BRANCH   7  10
ATOM     10  N   UNL     1       1.502   8.664  19.635  0.00  0.00    +0.000 N 
ATOM     11  C   UNL     1       0.945   9.451  20.707  0.00  0.00    +0.000 C 
ATOM     12  C   UNL     1       0.112  10.493  19.990  0.00  0.00    +0.000 C 
ATOM     13  C   UNL     1       0.886  10.746  18.708  0.00  0.00    +0.000 C 
ATOM     14  C   UNL     1       1.588   9.433  18.458  0.00  0.00    +0.000 C 
ATOM     15  O   UNL     1       2.120   9.167  17.390  0.00  0.00    +0.000 OA
ENDBRANCH   7  10
BRANCH   2  16
ATOM     16  C   UNL     1       4.386   1.802  19.709  0.00  0.00    +0.000 C 
ATOM     17  N   UNL     1       4.147   0.980  18.659  0.00  0.00    +0.000 N 
ATOM     18  O   UNL     1       5.276   1.536  20.510  0.00  0.00    +0.000 OA
ATOM     19  H   UNL     1       3.505   1.267  17.930  0.00  0.00    +0.000 HD
ATOM     20  H   UNL     1       4.763   0.190  18.516  0.00  0.00    +0.000 HD
ENDBRANCH   2  16
BRANCH   1  21
ATOM     21  N   UNL     1       4.361   4.162  17.756  0.00  0.00    +0.000 N 
ATOM     22  H   UNL     1       4.666   3.215  17.503  0.00  0.00    +0.000 HD
BRANCH  21  29
ATOM     23  C   UNL     1       4.964   6.712  15.684  0.00  0.00    +0.000 C 
ATOM     24  C   UNL     1       5.699   5.455  16.112  0.00  0.00    +0.000 C 
ATOM     25  F   UNL     1       5.248   4.419  15.334  0.00  0.00    +0.000 F 
ATOM     26  C   UNL     1       7.200   5.561  15.924  0.00  0.00    +0.000 C 
ATOM     27  O   UNL     1       7.786   4.600  16.807  0.00  0.00    +0.000 OA
ATOM     28  C   UNL     1       6.878   4.385  17.899  0.00  0.00    +0.000 C 
ATOM     29  C   UNL     1       5.538   5.064  17.586  0.00  0.00    +0.000 C 
ENDBRANCH  21  29
ENDBRANCH   1  21
TORSDOF 4
ENDMDL
MODEL 3
REMARK VINA RESULT:      -8.4      1.098      1.349
REMARK  Name = 
REMARK  5 active torsions:
REMARK  status: ('A' for Active; 'I' for Inactive)
REMARK    1  A    between atoms: C_1  and  C_2
REMARK    2  A    between atoms: C_7  and  N_8
REMARK    3  A    between atoms: N_8  and  C_9
REMARK    4  A    between atoms: C_10  and  C_11
REMARK    5  A    between atoms: C_18  and  N_19
REMARK                            x       y       z     vdW  Elec       q    Type
REMARK                         _______ _______ _______ _____ _____    ______ ____
ROOT
ATOM      1  C   UNL     1       3.235   4.507  18.516  0.00  0.00    +0.000 A 
ATOM      2  C   UNL     1       3.319   3.442  19.360  0.00  0.00    +0.000 A 
ATOM      3  C   UNL     1       2.676   3.591  20.698  0.00  0.00    +0.000 A 
ATOM      4  N   UNL     1       2.104   4.644  21.177  0.00  0.00    +0.000 NA
ATOM      5  N   UNL     1       2.109   5.678  20.321  0.00  0.00    +0.000 N 
ATOM      6  C   UNL     1       1.629   6.911  20.651  0.00  0.00    +0.000 A 
ATOM      7  C   UNL     1       1.784   7.766  19.588  0.00  0.00    +0.000 A 
ATOM      8  C   UNL     1       2.363   6.983  18.543  0.00  0.00    +0.000 A 
ATOM      9  C   UNL     1       2.609   5.702  19.033  0.00  0.00    +0.000 A 
ENDROOT
BRANCH   7  10
ATOM     10  N   UNL     1       1.468   9.123  19.594  0.00  0.00    +0.000 N 
ATOM     11  C   UNL     1       0.942   9.868  20.710  0.00  0.00    +0.000 C 
ATOM     12  C   UNL     1       0.149  10.980  20.055  0.00  0.00    +0.000 C 
ATOM     13  C   UNL     1       0.932  11.275  18.788  0.00  0.00    +0.000 C 
ATOM     14  C   UNL     1       1.583   9.953  18.462  0.00  0.00    +0.000 C 
ATOM     15  O   UNL     1       2.103   9.727  17.380  0.00  0.00    +0.000 OA
ENDBRANCH   7  10
BRANCH   2  16
ATOM     16  C   UNL     1       4.035   2.151  19.126  0.00  0.00    +0.000 C 
ATOM     17  N   UNL     1       5.015   1.803  19.995  0.00  0.00    +0.000 N 
ATOM     18  O   UNL     1       3.712   1.387  18.223  0.00  0.00    +0.000 OA
ATOM     19  H   UNL     1       5.188   2.372  20.815  0.00  0.00    +0.000 HD
ATOM     20  H   UNL     1       5.417   0.877  19.921  0.00  0.00    +0.000 HD
ENDBRANCH   2  16
BRANCH   1  21
ATOM     21  N   UNL     1       3.815   4.551  17.235  0.00  0.00    +0.000 N 
ATOM     22  H   UNL     1       3.374   3.848  16.633  0.00  0.00    +0.000 HD
BRANCH  21  29
ATOM     23  C   UNL     1       6.260   6.818  17.446  0.00  0.00    +0.000 C 
ATOM     24  C   UNL     1       5.809   5.789  16.425  0.00  0.00    +0.000 C 
ATOM     25  F   UNL     1       4.817   6.356  15.668  0.00  0.00    +0.000 F 
ATOM     26  C   UNL     1       6.925   5.364  15.490  0.00  0.00    +0.000 C 
ATOM     27  O   UNL     1       6.548   4.085  14.970  0.00  0.00    +0.000 OA
ATOM     28  C   UNL     1       5.678   3.454  15.922  0.00  0.00    +0.000 C 
ATOM     29  C   UNL     1       5.287   4.469  17.004  0.00  0.00    +0.000 C 
ENDBRANCH  21  29
ENDBRANCH   1  21
TORSDOF 4
ENDMDL
MODEL 4
REMARK VINA RESULT:      -8.3      1.033      1.273
REMARK  Name = 
REMARK  5 active torsions:
REMARK  status: ('A' for Active; 'I' for Inactive)
REMARK    1  A    between atoms: C_1  and  C_2
REMARK    2  A    between atoms: C_7  and  N_8
REMARK    3  A    between atoms: N_8  and  C_9
REMARK    4  A    between atoms: C_10  and  C_11
REMARK    5  A    between atoms: C_18  and  N_19
REMARK                            x       y       z     vdW  Elec       q    Type
REMARK                         _______ _______ _______ _____ _____    ______ ____
ROOT
ATOM      1  C   UNL     1       3.179   4.803  18.660  0.00  0.00    +0.000 A 
ATOM      2  C   UNL     1       3.226   3.684  19.434  0.00  0.00    +0.000 A 
ATOM      3  C   UNL     1       2.487   3.730  20.729  0.00  0.00    +0.000 A 
ATOM      4  N   UNL     1       1.860   4.738  21.237  0.00  0.00    +0.000 NA
ATOM      5  N   UNL     1       1.904   5.829  20.454  0.00  0.00    +0.000 N 
ATOM      6  C   UNL     1       1.376   7.027  20.831  0.00  0.00    +0.000 A 
ATOM      7  C   UNL     1       1.587   7.956  19.842  0.00  0.00    +0.000 A 
ATOM      8  C   UNL     1       2.255   7.256  18.792  0.00  0.00    +0.000 A 
ATOM      9  C   UNL     1       2.493   5.949  19.210  0.00  0.00    +0.000 A 
ENDROOT
BRANCH   7  10
ATOM     10  N   UNL     1       1.244   9.305  19.918  0.00  0.00    +0.000 N 
ATOM     11  C   UNL     1       0.912  10.161  18.807  0.00  0.00    +0.000 C 
ATOM     12  C   UNL     1       1.319  11.539  19.285  0.00  0.00    +0.000 C 
ATOM     13  C   UNL     1       1.045  11.493  20.778  0.00  0.00    +0.000 C 
ATOM     14  C   UNL     1       1.223  10.034  21.122  0.00  0.00    +0.000 C 
ATOM     15  O   UNL     1       1.318   9.640  22.274  0.00  0.00    +0.000 OA
ENDBRANCH   7  10
BRANCH   2  16
ATOM     16  C   UNL     1       3.983   2.424  19.166  0.00  0.00    +0.000 C 
ATOM     17  N   UNL     1       4.969   2.080  20.030  0.00  0.00    +0.000 N 
ATOM     18  O   UNL     1       3.690   1.678  18.237  0.00  0.00    +0.000 OA
ATOM     19  H   UNL     1       5.120   2.629  20.867  0.00  0.00    +0.000 HD
ATOM     20  H   UNL     1       5.401   1.170  19.930  0.00  0.00    +0.000 HD
ENDBRANCH   2  16
BRANCH   1  21
ATOM     21  N   UNL     1       3.847   4.944  17.430  0.00  0.00    +0.000 N 
ATOM     22  H   UNL     1       3.790   4.065  16.904  0.00  0.00    +0.000 HD
BRANCH  21  29
ATOM     23  C   UNL     1       5.981   5.093  14.864  0.00  0.00    +0.000 C 
ATOM     24  C   UNL     1       6.028   4.594  16.297  0.00  0.00    +0.000 C 
ATOM     25  F   UNL     1       5.527   3.318  16.313  0.00  0.00    +0.000 F 
ATOM     26  C   UNL     1       7.437   4.550  16.856  0.00  0.00    +0.000 C 
ATOM     27  O   UNL     1       7.306   4.585  18.280  0.00  0.00    +0.000 OA
ATOM     28  C   UNL     1       6.071   5.243  18.600  0.00  0.00    +0.000 C 
ATOM     29  C   UNL     1       5.251   5.435  17.317  0.00  0.00    +0.000 C 
ENDBRANCH  21  29
ENDBRANCH   1  21
TORSDOF 4
ENDMDL
MODEL 5
REMARK VINA RESULT:      -8.1      1.450      1.818
REMARK  Name = 
REMARK  5 active torsions:
REMARK  status: ('A' for Active; 'I' for Inactive)
REMARK    1  A    between atoms: C_1  and  C_2
REMARK    2  A    between atoms: C_7  and  N_8
REMARK    3  A    between atoms: N_8  and  C_9
REMARK    4  A    between atoms: C_10  and  C_11
REMARK    5  A    between atoms: C_18  and  N_19
REMARK                            x       y       z     vdW  Elec       q    Type
REMARK                         _______ _______ _______ _____ _____    ______ ____
ROOT
ATOM      1  C   UNL     1       3.269   4.654  18.342  0.00  0.00    +0.000 A 
ATOM      2  C   UNL     1       3.346   3.699  19.309  0.00  0.00    +0.000 A 
ATOM      3  C   UNL     1       2.715   4.019  20.622  0.00  0.00    +0.000 A 
ATOM      4  N   UNL     1       2.160   5.130  20.973  0.00  0.00    +0.000 NA
ATOM      5  N   UNL     1       2.173   6.052  19.996  0.00  0.00    +0.000 N 
ATOM      6  C   UNL     1       1.711   7.322  20.176  0.00  0.00    +0.000 A 
ATOM      7  C   UNL     1       1.869   8.039  19.016  0.00  0.00    +0.000 A 
ATOM      8  C   UNL     1       2.430   7.126  18.071  0.00  0.00    +0.000 A 
ATOM      9  C   UNL     1       2.663   5.912  18.712  0.00  0.00    +0.000 A 
ENDROOT
BRANCH   7  10
ATOM     10  N   UNL     1       1.572   9.391  18.858  0.00  0.00    +0.000 N 
ATOM     11  C   UNL     1       2.187  10.293  17.917  0.00  0.00    +0.000 C 
ATOM     12  C   UNL     1       2.075  11.644  18.592  0.00  0.00    +0.000 C 
ATOM     13  C   UNL     1       0.765  11.553  19.354  0.00  0.00    +0.000 C 
ATOM     14  C   UNL     1       0.637  10.079  19.656  0.00  0.00    +0.000 C 
ATOM     15  O   UNL     1      -0.169   9.643  20.463  0.00  0.00    +0.000 OA
ENDBRANCH   7  10
BRANCH   2  16
ATOM     16  C   UNL     1       4.043   2.379  19.231  0.00  0.00    +0.000 C 
ATOM     17  N   UNL     1       5.009   2.117  20.144  0.00  0.00    +0.000 N 
ATOM     18  O   UNL     1       3.716   1.523  18.415  0.00  0.00    +0.000 OA
ATOM     19  H   UNL     1       5.183   2.772  20.896  0.00  0.00    +0.000 HD
ATOM     20  H   UNL     1       5.396   1.182  20.180  0.00  0.00    +0.000 HD
ENDBRANCH   2  16
BRANCH   1  21
ATOM     21  N   UNL     1       3.841   4.533  17.062  0.00  0.00    +0.000 N 
ATOM     22  H   UNL     1       3.408   3.747  16.564  0.00  0.00    +0.000 HD
BRANCH  21  29
ATOM     23  C   UNL     1       6.304   6.771  17.347  0.00  0.00    +0.000 C 
ATOM     24  C   UNL     1       5.847   5.778  16.294  0.00  0.00    +0.000 C 
ATOM     25  F   UNL     1       4.861   6.376  15.552  0.00  0.00    +0.000 F 
ATOM     26  C   UNL     1       6.961   5.371  15.349  0.00  0.00    +0.000 C 
ATOM     27  O   UNL     1       6.575   4.113  14.789  0.00  0.00    +0.000 OA
ATOM     28  C   UNL     1       5.697   3.460  15.719  0.00  0.00    +0.000 C 
ATOM     29  C   UNL     1       5.312   4.444  16.831  0.00  0.00    +0.000 C 
ENDBRANCH  21  29
ENDBRANCH   1  21
TORSDOF 4
ENDMDL
MODEL 6
REMARK VINA RESULT:      -8.1      2.328      4.199
REMARK  Name = 
REMARK  5 active torsions:
REMARK  status: ('A' for Active; 'I' for Inactive)
REMARK    1  A    between atoms: C_1  and  C_2
REMARK    2  A    between atoms: C_7  and  N_8
REMARK    3  A    between atoms: N_8  and  C_9
REMARK    4  A    between atoms: C_10  and  C_11
REMARK    5  A    between atoms: C_18  and  N_19
REMARK                            x       y       z     vdW  Elec       q    Type
REMARK                         _______ _______ _______ _____ _____    ______ ____
ROOT
ATOM      1  C   UNL     1       3.555   5.987  19.267  0.00  0.00    +0.000 A 
ATOM      2  C   UNL     1       4.424   5.635  18.280  0.00  0.00    +0.000 A 
ATOM      3  C   UNL     1       4.585   6.597  17.151  0.00  0.00    +0.000 A 
ATOM      4  N   UNL     1       3.942   7.700  16.966  0.00  0.00    +0.000 NA
ATOM      5  N   UNL     1       3.055   7.958  17.942  0.00  0.00    +0.000 N 
ATOM      6  C   UNL     1       2.213   9.030  17.907  0.00  0.00    +0.000 A 
ATOM      7  C   UNL     1       1.413   9.023  19.023  0.00  0.00    +0.000 A 
ATOM      8  C   UNL     1       1.830   7.894  19.791  0.00  0.00    +0.000 A 
ATOM      9  C   UNL     1       2.814   7.212  19.079  0.00  0.00    +0.000 A 
ENDROOT
BRANCH   7  10
ATOM     10  N   UNL     1       0.387   9.930  19.282  0.00  0.00    +0.000 N 
ATOM     11  C   UNL     1      -0.760  10.178  18.445  0.00  0.00    +0.000 C 
ATOM     12  C   UNL     1      -1.122  11.616  18.752  0.00  0.00    +0.000 C 
ATOM     13  C   UNL     1      -0.758  11.768  20.219  0.00  0.00    +0.000 C 
ATOM     14  C   UNL     1       0.366  10.778  20.406  0.00  0.00    +0.000 C 
ATOM     15  O   UNL     1       1.081  10.779  21.396  0.00  0.00    +0.000 OA
ENDBRANCH   7  10
BRANCH   2  16
ATOM     16  C   UNL     1       5.200   4.363  18.162  0.00  0.00    +0.000 C 
ATOM     17  N   UNL     1       5.034   3.620  17.040  0.00  0.00    +0.000 N 
ATOM     18  O   UNL     1       6.016   4.022  19.012  0.00  0.00    +0.000 OA
ATOM     19  H   UNL     1       4.461   3.972  16.283  0.00  0.00    +0.000 HD
ATOM     20  H   UNL     1       5.646   2.828  16.893  0.00  0.00    +0.000 HD
ENDBRANCH   2  16
BRANCH   1  21
ATOM     21  N   UNL     1       3.256   5.183  20.383  0.00  0.00    +0.000 N 
ATOM     22  H   UNL     1       4.046   5.196  21.038  0.00  0.00    +0.000 HD
BRANCH  21  29
ATOM     23  C   UNL     1       1.300   3.617  18.174  0.00  0.00    +0.000 C 
ATOM     24  C   UNL     1       1.383   3.709  19.687  0.00  0.00    +0.000 C 
ATOM     25  F   UNL     1       0.706   4.836  20.076  0.00  0.00    +0.000 F 
ATOM     26  C   UNL     1       0.750   2.520  20.383  0.00  0.00    +0.000 C 
ATOM     27  O   UNL     1       1.334   2.459  21.687  0.00  0.00    +0.000 OA
ATOM     28  C   UNL     1       2.632   3.069  21.625  0.00  0.00    +0.000 C 
ATOM     29  C   UNL     1       2.801   3.767  20.269  0.00  0.00    +0.000 C 
ENDBRANCH  21  29
ENDBRANCH   1  21
TORSDOF 4
ENDMDL
MODEL 7
REMARK VINA RESULT:      -8.1      2.100      4.102
REMARK  Name = 
REMARK  5 active torsions:
REMARK  status: ('A' for Active; 'I' for Inactive)
REMARK    1  A    between atoms: C_1  and  C_2
REMARK    2  A    between atoms: C_7  and  N_8
REMARK    3  A    between atoms: N_8  and  C_9
REMARK    4  A    between atoms: C_10  and  C_11
REMARK    5  A    between atoms: C_18  and  N_19
REMARK                            x       y       z     vdW  Elec       q    Type
REMARK                         _______ _______ _______ _____ _____    ______ ____
ROOT
ATOM      1  C   UNL     1       3.303   5.997  18.966  0.00  0.00    +0.000 A 
ATOM      2  C   UNL     1       4.208   5.664  18.005  0.00  0.00    +0.000 A 
ATOM      3  C   UNL     1       4.519   6.706  16.983  0.00  0.00    +0.000 A 
ATOM      4  N   UNL     1       3.976   7.870  16.864  0.00  0.00    +0.000 NA
ATOM      5  N   UNL     1       3.048   8.114  17.804  0.00  0.00    +0.000 N 
ATOM      6  C   UNL     1       2.295   9.250  17.819  0.00  0.00    +0.000 A 
ATOM      7  C   UNL     1       1.423   9.211  18.878  0.00  0.00    +0.000 A 
ATOM      8  C   UNL     1       1.698   7.987  19.561  0.00  0.00    +0.000 A 
ATOM      9  C   UNL     1       2.673   7.292  18.849  0.00  0.00    +0.000 A 
ENDROOT
BRANCH   7  10
ATOM     10  N   UNL     1       0.454  10.173  19.159  0.00  0.00    +0.000 N 
ATOM     11  C   UNL     1       0.494  11.131  20.235  0.00  0.00    +0.000 C 
ATOM     12  C   UNL     1      -0.968  11.397  20.530  0.00  0.00    +0.000 C 
ATOM     13  C   UNL     1      -1.633  11.275  19.171  0.00  0.00    +0.000 C 
ATOM     14  C   UNL     1      -0.746  10.302  18.432  0.00  0.00    +0.000 C 
ATOM     15  O   UNL     1      -1.085   9.769  17.387  0.00  0.00    +0.000 OA
ENDBRANCH   7  10
BRANCH   2  16
ATOM     16  C   UNL     1       4.890   4.347  17.815  0.00  0.00    +0.000 C 
ATOM     17  N   UNL     1       5.973   4.078  18.583  0.00  0.00    +0.000 N 
ATOM     18  O   UNL     1       4.456   3.500  17.041  0.00  0.00    +0.000 OA
ATOM     19  H   UNL     1       6.248   4.725  19.312  0.00  0.00    +0.000 HD
ATOM     20  H   UNL     1       6.363   3.144  18.554  0.00  0.00    +0.000 HD
ENDBRANCH   2  16
BRANCH   1  21
ATOM     21  N   UNL     1       2.868   5.126  19.981  0.00  0.00    +0.000 N 
ATOM     22  H   UNL     1       3.653   4.546  20.297  0.00  0.00    +0.000 HD
BRANCH  21  29
ATOM     23  C   UNL     1       1.759   2.546  21.791  0.00  0.00    +0.000 C 
ATOM     24  C   UNL     1       2.030   2.813  20.321  0.00  0.00    +0.000 C 
ATOM     25  F   UNL     1       3.362   2.583  20.091  0.00  0.00    +0.000 F 
ATOM     26  C   UNL     1       1.234   1.905  19.404  0.00  0.00    +0.000 C 
ATOM     27  O   UNL     1       1.163   2.571  18.140  0.00  0.00    +0.000 OA
ATOM     28  C   UNL     1       1.285   3.983  18.371  0.00  0.00    +0.000 C 
ATOM     29  C   UNL     1       1.687   4.226  19.832  0.00  0.00    +0.000 C 
ENDBRANCH  21  29
ENDBRANCH   1  21
TORSDOF 4
ENDMDL
MODEL 8
REMARK VINA RESULT:      -8.0      2.172      4.165
REMARK  Name = 
REMARK  5 active torsions:
REMARK  status: ('A' for Active; 'I' for Inactive)
REMARK    1  A    between atoms: C_1  and  C_2
REMARK    2  A    between atoms: C_7  and  N_8
REMARK    3  A    between atoms: N_8  and  C_9
REMARK    4  A    between atoms: C_10  and  C_11
REMARK    5  A    between atoms: C_18  and  N_19
REMARK                            x       y       z     vdW  Elec       q    Type
REMARK                         _______ _______ _______ _____ _____    ______ ____
ROOT
ATOM      1  C   UNL     1       3.301   6.049  19.061  0.00  0.00    +0.000 A 
ATOM      2  C   UNL     1       4.210   5.746  18.093  0.00  0.00    +0.000 A 
ATOM      3  C   UNL     1       4.485   6.801  17.075  0.00  0.00    +0.000 A 
ATOM      4  N   UNL     1       3.908   7.950  16.963  0.00  0.00    +0.000 NA
ATOM      5  N   UNL     1       2.977   8.162  17.909  0.00  0.00    +0.000 N 
ATOM      6  C   UNL     1       2.191   9.275  17.932  0.00  0.00    +0.000 A 
ATOM      7  C   UNL     1       1.326   9.206  18.996  0.00  0.00    +0.000 A 
ATOM      8  C   UNL     1       1.640   7.988  19.672  0.00  0.00    +0.000 A 
ATOM      9  C   UNL     1       2.632   7.325  18.952  0.00  0.00    +0.000 A 
ENDROOT
BRANCH   7  10
ATOM     10  N   UNL     1       0.331  10.138  19.285  0.00  0.00    +0.000 N 
ATOM     11  C   UNL     1      -0.848  10.395  18.497  0.00  0.00    +0.000 C 
ATOM     12  C   UNL     1      -1.167  11.845  18.795  0.00  0.00    +0.000 C 
ATOM     13  C   UNL     1      -0.734  12.015  20.240  0.00  0.00    +0.000 C 
ATOM     14  C   UNL     1       0.378  11.006  20.394  0.00  0.00    +0.000 C 
ATOM     15  O   UNL     1       1.138  11.008  21.350  0.00  0.00    +0.000 OA
ENDBRANCH   7  10
BRANCH   2  16
ATOM     16  C   UNL     1       4.929   4.451  17.894  0.00  0.00    +0.000 C 
ATOM     17  N   UNL     1       6.019   4.207  18.663  0.00  0.00    +0.000 N 
ATOM     18  O   UNL     1       4.521   3.598  17.114  0.00  0.00    +0.000 OA
ATOM     19  H   UNL     1       6.274   4.855  19.397  0.00  0.00    +0.000 HD
ATOM     20  H   UNL     1       6.435   3.285  18.626  0.00  0.00    +0.000 HD
ENDBRANCH   2  16
BRANCH   1  21
ATOM     21  N   UNL     1       2.896   5.161  20.074  0.00  0.00    +0.000 N 
ATOM     22  H   UNL     1       3.699   4.600  20.380  0.00  0.00    +0.000 HD
BRANCH  21  29
ATOM     23  C   UNL     1       1.910   2.500  21.836  0.00  0.00    +0.000 C 
ATOM     24  C   UNL     1       2.134   2.816  20.369  0.00  0.00    +0.000 C 
ATOM     25  F   UNL     1       3.466   2.632  20.099  0.00  0.00    +0.000 F 
ATOM     26  C   UNL     1       1.342   1.911  19.446  0.00  0.00    +0.000 C 
ATOM     27  O   UNL     1       1.219   2.610  18.203  0.00  0.00    +0.000 OA
ATOM     28  C   UNL     1       1.306   4.017  18.472  0.00  0.00    +0.000 C 
ATOM     29  C   UNL     1       1.739   4.231  19.929  0.00  0.00    +0.000 C 
ENDBRANCH  21  29
ENDBRANCH   1  21
TORSDOF 4
ENDMDL
MODEL 9
REMARK VINA RESULT:      -8.0      1.387      1.492
REMARK  Name = 
REMARK  5 active torsions:
REMARK  status: ('A' for Active; 'I' for Inactive)
REMARK    1  A    between atoms: C_1  and  C_2
REMARK    2  A    between atoms: C_7  and  N_8
REMARK    3  A    between atoms: N_8  and  C_9
REMARK    4  A    between atoms: C_10  and  C_11
REMARK    5  A    between atoms: C_18  and  N_19
REMARK                            x       y       z     vdW  Elec       q    Type
REMARK                         _______ _______ _______ _____ _____    ______ ____
ROOT
ATOM      1  C   UNL     1       3.770   4.593  19.451  0.00  0.00    +0.000 A 
ATOM      2  C   UNL     1       3.435   3.310  19.763  0.00  0.00    +0.000 A 
ATOM      3  C   UNL     1       2.096   3.096  20.383  0.00  0.00    +0.000 A 
ATOM      4  N   UNL     1       1.238   3.998  20.723  0.00  0.00    +0.000 NA
ATOM      5  N   UNL     1       1.654   5.245  20.448  0.00  0.00    +0.000 N 
ATOM      6  C   UNL     1       0.940   6.353  20.796  0.00  0.00    +0.000 A 
ATOM      7  C   UNL     1       1.620   7.480  20.404  0.00  0.00    +0.000 A 
ATOM      8  C   UNL     1       2.799   7.013  19.749  0.00  0.00    +0.000 A 
ATOM      9  C   UNL     1       2.832   5.623  19.833  0.00  0.00    +0.000 A 
ENDROOT
BRANCH   7  10
ATOM     10  N   UNL     1       1.220   8.791  20.661  0.00  0.00    +0.000 N 
ATOM     11  C   UNL     1       1.127   9.412  21.958  0.00  0.00    +0.000 C 
ATOM     12  C   UNL     1       0.046  10.458  21.776  0.00  0.00    +0.000 C 
ATOM     13  C   UNL     1       0.223  10.905  20.336  0.00  0.00    +0.000 C 
ATOM     14  C   UNL     1       0.798   9.685  19.658  0.00  0.00    +0.000 C 
ATOM     15  O   UNL     1       0.855   9.576  18.443  0.00  0.00    +0.000 OA
ENDBRANCH   7  10
BRANCH   2  16
ATOM     16  C   UNL     1       4.280   2.087  19.609  0.00  0.00    +0.000 C 
ATOM     17  N   UNL     1       4.037   1.277  18.550  0.00  0.00    +0.000 N 
ATOM     18  O   UNL     1       5.212   1.845  20.369  0.00  0.00    +0.000 OA
ATOM     19  H   UNL     1       3.355   1.550  17.852  0.00  0.00    +0.000 HD
ATOM     20  H   UNL     1       4.682   0.519  18.366  0.00  0.00    +0.000 HD
ENDBRANCH   2  16
BRANCH   1  21
ATOM     21  N   UNL     1       5.005   4.977  18.898  0.00  0.00    +0.000 N 
ATOM     22  H   UNL     1       5.456   5.667  19.509  0.00  0.00    +0.000 HD
BRANCH  21  29
ATOM     23  C   UNL     1       5.587   3.400  16.011  0.00  0.00    +0.000 C 
ATOM     24  C   UNL     1       6.165   4.602  16.735  0.00  0.00    +0.000 C 
ATOM     25  F   UNL     1       7.103   4.145  17.625  0.00  0.00    +0.000 F 
ATOM     26  C   UNL     1       6.849   5.578  15.797  0.00  0.00    +0.000 C 
ATOM     27  O   UNL     1       6.869   6.839  16.473  0.00  0.00    +0.000 OA
ATOM     28  C   UNL     1       5.772   6.867  17.400  0.00  0.00    +0.000 C 
ATOM     29  C   UNL     1       5.153   5.466  17.496  0.00  0.00    +0.000 C 
ENDBRANCH  21  29
ENDBRANCH   1  21
TORSDOF 4
ENDMDL
