MODEL 1
REMARK VINA RESULT:      -8.1      0.000      0.000
REMARK  Name = 
REMARK  15 active torsions:
REMARK  status: ('A' for Active; 'I' for Inactive)
REMARK    1  A    between atoms: C_1  and  C_2
REMARK    2  A    between atoms: C_2  and  C_3
REMARK    3  A    between atoms: C_2  and  C_4
REMARK    4  A    between atoms: C_2  and  N_6
REMARK    5  A    between atoms: C_4  and  O_5
REMARK    6  A    between atoms: N_6  and  C_7
REMARK    7  A    between atoms: C_7  and  C_8
REMARK    8  A    between atoms: C_11  and  C_12
REMARK    9  A    between atoms: C_12  and  C_13
REMARK   10  A    between atoms: C_12  and  C_22
REMARK   11  A    between atoms: C_13  and  C_14
REMARK   12  A    between atoms: C_14  and  C_15
REMARK   13  A    between atoms: C_15  and  C_16
REMARK   14  A    between atoms: C_22  and  C_23
REMARK   15  A    between atoms: N_25  and  O_26
REMARK                            x       y       z     vdW  Elec       q    Type
REMARK                         _______ _______ _______ _____ _____    ______ ____
ROOT
ATOM      1  C   UNL     1       6.974   6.758  18.143  0.00  0.00    +0.000 C 
ENDROOT
BRANCH   1   5
ATOM      2  C   UNL     1       6.246   5.056  15.070  0.00  0.00    +0.000 A 
ATOM      3  N   UNL     1       7.456   5.537  14.748  0.00  0.00    +0.000 NA
ATOM      4  O   UNL     1       7.830   6.256  15.883  0.00  0.00    +0.000 OA
ATOM      5  C   UNL     1       6.815   6.119  16.790  0.00  0.00    +0.000 A 
ATOM      6  N   UNL     1       5.825   5.377  16.339  0.00  0.00    +0.000 NA
BRANCH   2   7
ATOM      7  C   UNL     1       5.457   4.149  14.173  0.00  0.00    +0.000 C 
BRANCH   7   8
ATOM      8  N   UNL     1       6.339   3.173  13.510  0.00  0.00    +0.000 NA
ATOM      9  H   UNL     1       7.302   3.384  13.784  0.00  0.00    +0.000 HD
BRANCH   8  11
ATOM     10  C   UNL     1       7.019   4.348  11.502  0.00  0.00    +0.000 C 
ATOM     11  C   UNL     1       6.242   3.122  12.030  0.00  0.00    +0.000 C 
ATOM     12  C   UNL     1       4.780   3.264  11.560  0.00  0.00    +0.000 C 
BRANCH  11  13
ATOM     13  C   UNL     1       6.888   1.838  11.433  0.00  0.00    +0.000 C 
BRANCH  13  14
ATOM     14  O   UNL     1       5.984   0.733  11.394  0.00  0.00    +0.000 OA
ATOM     15  H   UNL     1       6.519  -0.082  11.334  0.00  0.00    +0.000 HD
ENDBRANCH  13  14
ENDBRANCH  11  13
ENDBRANCH   8  11
ENDBRANCH   7   8
ENDBRANCH   2   7
ENDBRANCH   1   5
BRANCH   1  16
ATOM     16  C   UNL     1       8.273   7.594  18.227  0.00  0.00    +0.000 C 
BRANCH  16  17
ATOM     17  C   UNL     1       8.063   9.096  17.984  0.00  0.00    +0.000 C 
BRANCH  17  18
ATOM     18  C   UNL     1       8.956   9.958  18.879  0.00  0.00    +0.000 C 
BRANCH  18  19
ATOM     19  C   UNL     1       9.725  11.048  18.094  0.00  0.00    +0.000 C 
ATOM     20  C   UNL     1       8.999  12.403  18.024  0.00  0.00    +0.000 C 
ATOM     21  C   UNL     1       8.926  13.094  19.384  0.00  0.00    +0.000 C 
ATOM     22  C   UNL     1      10.313  13.263  20.000  0.00  0.00    +0.000 C 
ATOM     23  C   UNL     1      11.095  11.952  20.047  0.00  0.00    +0.000 C 
ATOM     24  C   UNL     1      11.130  11.259  18.685  0.00  0.00    +0.000 C 
ENDBRANCH  18  19
ENDBRANCH  17  18
ENDBRANCH  16  17
ENDBRANCH   1  16
BRANCH   1  25
ATOM     25  C   UNL     1       6.935   5.703  19.264  0.00  0.00    +0.000 C 
BRANCH  25  26
ATOM     26  C   UNL     1       5.625   4.931  19.309  0.00  0.00    +0.000 C 
ATOM     27  O   UNL     1       4.541   5.445  19.554  0.00  0.00    +0.000 OA
ATOM     28  N   UNL     1       5.761   3.599  18.999  0.00  0.00    +0.000 N 
ATOM     29  H   UNL     1       6.638   3.095  19.062  0.00  0.00    +0.000 HD
BRANCH  28  30
ATOM     30  O   UNL     1       4.585   2.824  19.115  0.00  0.00    +0.000 OA
ATOM     31  H   UNL     1       4.842   2.142  19.777  0.00  0.00    +0.000 HD
ENDBRANCH  28  30
ENDBRANCH  25  26
ENDBRANCH   1  25
TORSDOF 13
ENDMDL
MODEL 2
REMARK VINA RESULT:      -8.0      5.437      9.539
REMARK  Name = 
REMARK  15 active torsions:
REMARK  status: ('A' for Active; 'I' for Inactive)
REMARK    1  A    between atoms: C_1  and  C_2
REMARK    2  A    between atoms: C_2  and  C_3
REMARK    3  A    between atoms: C_2  and  C_4
REMARK    4  A    between atoms: C_2  and  N_6
REMARK    5  A    between atoms: C_4  and  O_5
REMARK    6  A    between atoms: N_6  and  C_7
REMARK    7  A    between atoms: C_7  and  C_8
REMARK    8  A    between atoms: C_11  and  C_12
REMARK    9  A    between atoms: C_12  and  C_13
REMARK   10  A    between atoms: C_12  and  C_22
REMARK   11  A    between atoms: C_13  and  C_14
REMARK   12  A    between atoms: C_14  and  C_15
REMARK   13  A    between atoms: C_15  and  C_16
REMARK   14  A    between atoms: C_22  and  C_23
REMARK   15  A    between atoms: N_25  and  O_26
REMARK                            x       y       z     vdW  Elec       q    Type
REMARK                         _______ _______ _______ _____ _____    ______ ____
ROOT
ATOM      1  C   UNL     1       4.620   6.073  17.879  0.00  0.00    +0.000 C 
ENDROOT
BRANCH   1   5
ATOM      2  C   UNL     1       2.027   8.473  18.501  0.00  0.00    +0.000 A 
ATOM      3  N   UNL     1       1.925   7.772  19.640  0.00  0.00    +0.000 NA
ATOM      4  O   UNL     1       2.887   6.773  19.491  0.00  0.00    +0.000 OA
ATOM      5  C   UNL     1       3.493   6.984  18.282  0.00  0.00    +0.000 A 
ATOM      6  N   UNL     1       3.007   8.028  17.644  0.00  0.00    +0.000 NA
BRANCH   2   7
ATOM      7  C   UNL     1       1.225   9.710  18.223  0.00  0.00    +0.000 C 
BRANCH   7   8
ATOM      8  N   UNL     1       0.470  10.122  19.419  0.00  0.00    +0.000 NA
ATOM      9  H   UNL     1       0.097   9.278  19.860  0.00  0.00    +0.000 HD
BRANCH   8  11
ATOM     10  C   UNL     1      -1.199  11.452  20.569  0.00  0.00    +0.000 C 
ATOM     11  C   UNL     1      -0.631  11.089  19.180  0.00  0.00    +0.000 C 
ATOM     12  C   UNL     1      -1.774  10.446  18.367  0.00  0.00    +0.000 C 
BRANCH  11  13
ATOM     13  C   UNL     1      -0.139  12.397  18.494  0.00  0.00    +0.000 C 
BRANCH  13  14
ATOM     14  O   UNL     1      -1.035  12.862  17.486  0.00  0.00    +0.000 OA
ATOM     15  H   UNL     1      -1.069  12.183  16.786  0.00  0.00    +0.000 HD
ENDBRANCH  13  14
ENDBRANCH  11  13
ENDBRANCH   8  11
ENDBRANCH   7   8
ENDBRANCH   2   7
ENDBRANCH   1   5
BRANCH   1  16
ATOM     16  C   UNL     1       4.209   5.142  16.713  0.00  0.00    +0.000 C 
BRANCH  16  17
ATOM     17  C   UNL     1       3.710   3.763  17.165  0.00  0.00    +0.000 C 
BRANCH  17  18
ATOM     18  C   UNL     1       2.232   3.785  17.564  0.00  0.00    +0.000 C 
BRANCH  18  19
ATOM     19  C   UNL     1       1.785   2.496  18.296  0.00  0.00    +0.000 C 
ATOM     20  C   UNL     1       2.891   1.834  19.135  0.00  0.00    +0.000 C 
ATOM     21  C   UNL     1       3.283   2.674  20.349  0.00  0.00    +0.000 C 
ATOM     22  C   UNL     1       2.071   2.995  21.221  0.00  0.00    +0.000 C 
ATOM     23  C   UNL     1       0.924   3.611  20.423  0.00  0.00    +0.000 C 
ATOM     24  C   UNL     1       0.568   2.773  19.195  0.00  0.00    +0.000 C 
ENDBRANCH  18  19
ENDBRANCH  17  18
ENDBRANCH  16  17
ENDBRANCH   1  16
BRANCH   1  25
ATOM     25  C   UNL     1       5.125   5.249  19.078  0.00  0.00    +0.000 C 
BRANCH  25  26
ATOM     26  C   UNL     1       6.629   5.023  19.054  0.00  0.00    +0.000 C 
ATOM     27  O   UNL     1       7.396   5.465  19.900  0.00  0.00    +0.000 OA
ATOM     28  N   UNL     1       7.050   4.233  18.012  0.00  0.00    +0.000 N 
ATOM     29  H   UNL     1       6.511   4.084  17.166  0.00  0.00    +0.000 HD
BRANCH  28  30
ATOM     30  O   UNL     1       8.449   4.070  17.898  0.00  0.00    +0.000 OA
ATOM     31  H   UNL     1       8.574   3.123  18.139  0.00  0.00    +0.000 HD
ENDBRANCH  28  30
ENDBRANCH  25  26
ENDBRANCH   1  25
TORSDOF 13
ENDMDL
MODEL 3
REMARK VINA RESULT:      -7.9      3.105      8.710
REMARK  Name = 
REMARK  15 active torsions:
REMARK  status: ('A' for Active; 'I' for Inactive)
REMARK    1  A    between atoms: C_1  and  C_2
REMARK    2  A    between atoms: C_2  and  C_3
REMARK    3  A    between atoms: C_2  and  C_4
REMARK    4  A    between atoms: C_2  and  N_6
REMARK    5  A    between atoms: C_4  and  O_5
REMARK    6  A    between atoms: N_6  and  C_7
REMARK    7  A    between atoms: C_7  and  C_8
REMARK    8  A    between atoms: C_11  and  C_12
REMARK    9  A    between atoms: C_12  and  C_13
REMARK   10  A    between atoms: C_12  and  C_22
REMARK   11  A    between atoms: C_13  and  C_14
REMARK   12  A    between atoms: C_14  and  C_15
REMARK   13  A    between atoms: C_15  and  C_16
REMARK   14  A    between atoms: C_22  and  C_23
REMARK   15  A    between atoms: N_25  and  O_26
REMARK                            x       y       z     vdW  Elec       q    Type
REMARK                         _______ _______ _______ _____ _____    ______ ____
ROOT
ATOM      1  C   UNL     1       5.916   6.299  16.266  0.00  0.00    +0.000 C 
ENDROOT
BRANCH   1   5
ATOM      2  C   UNL     1       8.179   8.128  18.363  0.00  0.00    +0.000 A 
ATOM      3  N   UNL     1       8.377   6.906  18.878  0.00  0.00    +0.000 NA
ATOM      4  O   UNL     1       7.506   6.101  18.143  0.00  0.00    +0.000 OA
ATOM      5  C   UNL     1       6.884   6.917  17.237  0.00  0.00    +0.000 A 
ATOM      6  N   UNL     1       7.277   8.170  17.326  0.00  0.00    +0.000 NA
BRANCH   2   7
ATOM      7  C   UNL     1       8.954   9.337  18.797  0.00  0.00    +0.000 C 
BRANCH   7   8
ATOM      8  N   UNL     1       8.584  10.512  17.988  0.00  0.00    +0.000 NA
ATOM      9  H   UNL     1       8.744  10.278  17.005  0.00  0.00    +0.000 HD
BRANCH   8  11
ATOM     10  C   UNL     1      10.716  11.638  17.732  0.00  0.00    +0.000 C 
ATOM     11  C   UNL     1       9.295  11.771  18.323  0.00  0.00    +0.000 C 
ATOM     12  C   UNL     1       9.443  11.941  19.849  0.00  0.00    +0.000 C 
BRANCH  11  13
ATOM     13  C   UNL     1       8.618  13.024  17.695  0.00  0.00    +0.000 C 
BRANCH  13  14
ATOM     14  O   UNL     1       7.561  12.688  16.798  0.00  0.00    +0.000 OA
ATOM     15  H   UNL     1       6.728  13.011  17.191  0.00  0.00    +0.000 HD
ENDBRANCH  13  14
ENDBRANCH  11  13
ENDBRANCH   8  11
ENDBRANCH   7   8
ENDBRANCH   2   7
ENDBRANCH   1   5
BRANCH   1  16
ATOM     16  C   UNL     1       4.458   6.396  16.776  0.00  0.00    +0.000 C 
BRANCH  16  17
ATOM     17  C   UNL     1       4.243   5.779  18.165  0.00  0.00    +0.000 C 
BRANCH  17  18
ATOM     18  C   UNL     1       3.423   4.488  18.104  0.00  0.00    +0.000 C 
BRANCH  18  19
ATOM     19  C   UNL     1       1.953   4.685  18.548  0.00  0.00    +0.000 C 
ATOM     20  C   UNL     1       1.117   3.394  18.543  0.00  0.00    +0.000 C 
ATOM     21  C   UNL     1       1.562   2.409  19.622  0.00  0.00    +0.000 C 
ATOM     22  C   UNL     1       1.544   3.052  21.007  0.00  0.00    +0.000 C 
ATOM     23  C   UNL     1       2.322   4.365  21.052  0.00  0.00    +0.000 C 
ATOM     24  C   UNL     1       1.885   5.325  19.945  0.00  0.00    +0.000 C 
ENDBRANCH  18  19
ENDBRANCH  17  18
ENDBRANCH  16  17
ENDBRANCH   1  16
BRANCH   1  25
ATOM     25  C   UNL     1       6.288   4.835  15.966  0.00  0.00    +0.000 C 
BRANCH  25  26
ATOM     26  C   UNL     1       6.705   4.612  14.520  0.00  0.00    +0.000 C 
ATOM     27  O   UNL     1       7.427   5.379  13.895  0.00  0.00    +0.000 OA
ATOM     28  N   UNL     1       6.233   3.437  13.986  0.00  0.00    +0.000 N 
ATOM     29  H   UNL     1       5.437   2.931  14.358  0.00  0.00    +0.000 HD
BRANCH  28  30
ATOM     30  O   UNL     1       6.522   3.230  12.619  0.00  0.00    +0.000 OA
ATOM     31  H   UNL     1       6.793   4.129  12.319  0.00  0.00    +0.000 HD
ENDBRANCH  28  30
ENDBRANCH  25  26
ENDBRANCH   1  25
TORSDOF 13
ENDMDL
MODEL 4
REMARK VINA RESULT:      -7.9      3.420      9.051
REMARK  Name = 
REMARK  15 active torsions:
REMARK  status: ('A' for Active; 'I' for Inactive)
REMARK    1  A    between atoms: C_1  and  C_2
REMARK    2  A    between atoms: C_2  and  C_3
REMARK    3  A    between atoms: C_2  and  C_4
REMARK    4  A    between atoms: C_2  and  N_6
REMARK    5  A    between atoms: C_4  and  O_5
REMARK    6  A    between atoms: N_6  and  C_7
REMARK    7  A    between atoms: C_7  and  C_8
REMARK    8  A    between atoms: C_11  and  C_12
REMARK    9  A    between atoms: C_12  and  C_13
REMARK   10  A    between atoms: C_12  and  C_22
REMARK   11  A    between atoms: C_13  and  C_14
REMARK   12  A    between atoms: C_14  and  C_15
REMARK   13  A    between atoms: C_15  and  C_16
REMARK   14  A    between atoms: C_22  and  C_23
REMARK   15  A    between atoms: N_25  and  O_26
REMARK                            x       y       z     vdW  Elec       q    Type
REMARK                         _______ _______ _______ _____ _____    ______ ____
ROOT
ATOM      1  C   UNL     1       6.225   5.495  17.156  0.00  0.00    +0.000 C 
ENDROOT
BRANCH   1   5
ATOM      2  C   UNL     1       8.032   8.487  17.962  0.00  0.00    +0.000 A 
ATOM      3  N   UNL     1       8.603   7.665  18.854  0.00  0.00    +0.000 NA
ATOM      4  O   UNL     1       7.942   6.455  18.647  0.00  0.00    +0.000 OA
ATOM      5  C   UNL     1       7.050   6.660  17.630  0.00  0.00    +0.000 A 
ATOM      6  N   UNL     1       7.079   7.892  17.168  0.00  0.00    +0.000 NA
BRANCH   2   7
ATOM      7  C   UNL     1       8.466   9.909  17.760  0.00  0.00    +0.000 C 
BRANCH   7   8
ATOM      8  N   UNL     1       9.158  10.419  18.956  0.00  0.00    +0.000 NA
ATOM      9  H   UNL     1       8.480  10.450  19.721  0.00  0.00    +0.000 HD
BRANCH   8  11
ATOM     10  C   UNL     1       8.951  12.530  17.783  0.00  0.00    +0.000 C 
ATOM     11  C   UNL     1       9.803  11.748  18.806  0.00  0.00    +0.000 C 
ATOM     12  C   UNL     1      11.225  11.617  18.221  0.00  0.00    +0.000 C 
BRANCH  11  13
ATOM     13  C   UNL     1       9.830  12.552  20.139  0.00  0.00    +0.000 C 
BRANCH  13  14
ATOM     14  O   UNL     1      10.994  13.369  20.266  0.00  0.00    +0.000 OA
ATOM     15  H   UNL     1      11.772  12.796  20.124  0.00  0.00    +0.000 HD
ENDBRANCH  13  14
ENDBRANCH  11  13
ENDBRANCH   8  11
ENDBRANCH   7   8
ENDBRANCH   2   7
ENDBRANCH   1   5
BRANCH   1  16
ATOM     16  C   UNL     1       5.427   4.854  18.316  0.00  0.00    +0.000 C 
BRANCH  16  17
ATOM     17  C   UNL     1       4.290   5.737  18.851  0.00  0.00    +0.000 C 
BRANCH  17  18
ATOM     18  C   UNL     1       3.415   5.000  19.868  0.00  0.00    +0.000 C 
BRANCH  18  19
ATOM     19  C   UNL     1       1.916   4.989  19.480  0.00  0.00    +0.000 C 
ATOM     20  C   UNL     1       1.647   4.571  18.025  0.00  0.00    +0.000 C 
ATOM     21  C   UNL     1       1.969   3.099  17.774  0.00  0.00    +0.000 C 
ATOM     22  C   UNL     1       1.214   2.189  18.740  0.00  0.00    +0.000 C 
ATOM     23  C   UNL     1       1.411   2.595  20.199  0.00  0.00    +0.000 C 
ATOM     24  C   UNL     1       1.114   4.077  20.424  0.00  0.00    +0.000 C 
ENDBRANCH  18  19
ENDBRANCH  17  18
ENDBRANCH  16  17
ENDBRANCH   1  16
BRANCH   1  25
ATOM     25  C   UNL     1       7.103   4.441  16.455  0.00  0.00    +0.000 C 
BRANCH  25  26
ATOM     26  C   UNL     1       7.054   4.541  14.938  0.00  0.00    +0.000 C 
ATOM     27  O   UNL     1       7.696   5.359  14.290  0.00  0.00    +0.000 OA
ATOM     28  N   UNL     1       6.253   3.593  14.349  0.00  0.00    +0.000 N 
ATOM     29  H   UNL     1       5.516   3.098  14.839  0.00  0.00    +0.000 HD
BRANCH  28  30
ATOM     30  O   UNL     1       6.108   3.703  12.948  0.00  0.00    +0.000 OA
ATOM     31  H   UNL     1       6.413   2.822  12.631  0.00  0.00    +0.000 HD
ENDBRANCH  28  30
ENDBRANCH  25  26
ENDBRANCH   1  25
TORSDOF 13
ENDMDL
MODEL 5
REMARK VINA RESULT:      -7.8      3.049      8.811
REMARK  Name = 
REMARK  15 active torsions:
REMARK  status: ('A' for Active; 'I' for Inactive)
REMARK    1  A    between atoms: C_1  and  C_2
REMARK    2  A    between atoms: C_2  and  C_3
REMARK    3  A    between atoms: C_2  and  C_4
REMARK    4  A    between atoms: C_2  and  N_6
REMARK    5  A    between atoms: C_4  and  O_5
REMARK    6  A    between atoms: N_6  and  C_7
REMARK    7  A    between atoms: C_7  and  C_8
REMARK    8  A    between atoms: C_11  and  C_12
REMARK    9  A    between atoms: C_12  and  C_13
REMARK   10  A    between atoms: C_12  and  C_22
REMARK   11  A    between atoms: C_13  and  C_14
REMARK   12  A    between atoms: C_14  and  C_15
REMARK   13  A    between atoms: C_15  and  C_16
REMARK   14  A    between atoms: C_22  and  C_23
REMARK   15  A    between atoms: N_25  and  O_26
REMARK                            x       y       z     vdW  Elec       q    Type
REMARK                         _______ _______ _______ _____ _____    ______ ____
ROOT
ATOM      1  C   UNL     1       5.867   5.667  16.318  0.00  0.00    +0.000 C 
ENDROOT
BRANCH   1   5
ATOM      2  C   UNL     1       7.744   8.330  17.821  0.00  0.00    +0.000 A 
ATOM      3  N   UNL     1       8.250   7.309  18.527  0.00  0.00    +0.000 NA
ATOM      4  O   UNL     1       7.555   6.202  18.037  0.00  0.00    +0.000 OA
ATOM      5  C   UNL     1       6.712   6.664  17.063  0.00  0.00    +0.000 A 
ATOM      6  N   UNL     1       6.804   7.965  16.885  0.00  0.00    +0.000 NA
BRANCH   2   7
ATOM      7  C   UNL     1       8.234   9.742  17.950  0.00  0.00    +0.000 C 
BRANCH   7   8
ATOM      8  N   UNL     1       9.437   9.800  18.800  0.00  0.00    +0.000 NA
ATOM      9  H   UNL     1       9.261   9.233  19.632  0.00  0.00    +0.000 HD
BRANCH   8  11
ATOM     10  C   UNL     1       9.473  11.319  20.689  0.00  0.00    +0.000 C 
ATOM     11  C   UNL     1       9.870  11.161  19.205  0.00  0.00    +0.000 C 
ATOM     12  C   UNL     1       9.119  12.248  18.407  0.00  0.00    +0.000 C 
BRANCH  11  13
ATOM     13  C   UNL     1      11.409  11.358  19.086  0.00  0.00    +0.000 C 
BRANCH  13  14
ATOM     14  O   UNL     1      11.827  11.640  17.750  0.00  0.00    +0.000 OA
ATOM     15  H   UNL     1      11.324  11.052  17.155  0.00  0.00    +0.000 HD
ENDBRANCH  13  14
ENDBRANCH  11  13
ENDBRANCH   8  11
ENDBRANCH   7   8
ENDBRANCH   2   7
ENDBRANCH   1   5
BRANCH   1  16
ATOM     16  C   UNL     1       4.699   5.148  17.190  0.00  0.00    +0.000 C 
BRANCH  16  17
ATOM     17  C   UNL     1       4.459   5.973  18.463  0.00  0.00    +0.000 C 
BRANCH  17  18
ATOM     18  C   UNL     1       3.910   5.121  19.610  0.00  0.00    +0.000 C 
BRANCH  18  19
ATOM     19  C   UNL     1       3.255   3.805  19.126  0.00  0.00    +0.000 C 
ATOM     20  C   UNL     1       3.491   2.605  20.059  0.00  0.00    +0.000 C 
ATOM     21  C   UNL     1       2.766   2.755  21.395  0.00  0.00    +0.000 C 
ATOM     22  C   UNL     1       1.271   2.990  21.195  0.00  0.00    +0.000 C 
ATOM     23  C   UNL     1       0.983   4.143  20.236  0.00  0.00    +0.000 C 
ATOM     24  C   UNL     1       1.742   3.992  18.918  0.00  0.00    +0.000 C 
ENDBRANCH  18  19
ENDBRANCH  17  18
ENDBRANCH  16  17
ENDBRANCH   1  16
BRANCH   1  25
ATOM     25  C   UNL     1       6.719   4.493  15.799  0.00  0.00    +0.000 C 
BRANCH  25  26
ATOM     26  C   UNL     1       6.987   4.569  14.304  0.00  0.00    +0.000 C 
ATOM     27  O   UNL     1       7.715   5.406  13.786  0.00  0.00    +0.000 OA
ATOM     28  N   UNL     1       6.370   3.575  13.584  0.00  0.00    +0.000 N 
ATOM     29  H   UNL     1       5.568   3.053  13.920  0.00  0.00    +0.000 HD
BRANCH  28  30
ATOM     30  O   UNL     1       6.518   3.658  12.181  0.00  0.00    +0.000 OA
ATOM     31  H   UNL     1       5.703   3.213  11.853  0.00  0.00    +0.000 HD
ENDBRANCH  28  30
ENDBRANCH  25  26
ENDBRANCH   1  25
TORSDOF 13
ENDMDL
MODEL 6
REMARK VINA RESULT:      -7.8      3.477      9.180
REMARK  Name = 
REMARK  15 active torsions:
REMARK  status: ('A' for Active; 'I' for Inactive)
REMARK    1  A    between atoms: C_1  and  C_2
REMARK    2  A    between atoms: C_2  and  C_3
REMARK    3  A    between atoms: C_2  and  C_4
REMARK    4  A    between atoms: C_2  and  N_6
REMARK    5  A    between atoms: C_4  and  O_5
REMARK    6  A    between atoms: N_6  and  C_7
REMARK    7  A    between atoms: C_7  and  C_8
REMARK    8  A    between atoms: C_11  and  C_12
REMARK    9  A    between atoms: C_12  and  C_13
REMARK   10  A    between atoms: C_12  and  C_22
REMARK   11  A    between atoms: C_13  and  C_14
REMARK   12  A    between atoms: C_14  and  C_15
REMARK   13  A    between atoms: C_15  and  C_16
REMARK   14  A    between atoms: C_22  and  C_23
REMARK   15  A    between atoms: N_25  and  O_26
REMARK                            x       y       z     vdW  Elec       q    Type
REMARK                         _______ _______ _______ _____ _____    ______ ____
ROOT
ATOM      1  C   UNL     1       6.207   5.669  16.901  0.00  0.00    +0.000 C 
ENDROOT
BRANCH   1   5
ATOM      2  C   UNL     1       8.077   8.537  17.974  0.00  0.00    +0.000 A 
ATOM      3  N   UNL     1       8.543   7.652  18.867  0.00  0.00    +0.000 NA
ATOM      4  O   UNL     1       7.847   6.483  18.557  0.00  0.00    +0.000 OA
ATOM      5  C   UNL     1       7.044   6.773  17.487  0.00  0.00    +0.000 A 
ATOM      6  N   UNL     1       7.161   8.021  17.086  0.00  0.00    +0.000 NA
BRANCH   2   7
ATOM      7  C   UNL     1       8.585   9.944  17.870  0.00  0.00    +0.000 C 
BRANCH   7   8
ATOM      8  N   UNL     1       9.208  10.369  19.136  0.00  0.00    +0.000 NA
ATOM      9  H   UNL     1       8.470  10.437  19.841  0.00  0.00    +0.000 HD
BRANCH   8  11
ATOM     10  C   UNL     1      10.774  11.614  17.766  0.00  0.00    +0.000 C 
ATOM     11  C   UNL     1       9.964  11.646  19.081  0.00  0.00    +0.000 C 
ATOM     12  C   UNL     1      10.973  11.749  20.243  0.00  0.00    +0.000 C 
BRANCH  11  13
ATOM     13  C   UNL     1       9.031  12.891  19.053  0.00  0.00    +0.000 C 
BRANCH  13  14
ATOM     14  O   UNL     1       9.543  13.981  19.820  0.00  0.00    +0.000 OA
ATOM     15  H   UNL     1       9.933  14.622  19.196  0.00  0.00    +0.000 HD
ENDBRANCH  13  14
ENDBRANCH  11  13
ENDBRANCH   8  11
ENDBRANCH   7   8
ENDBRANCH   2   7
ENDBRANCH   1   5
BRANCH   1  16
ATOM     16  C   UNL     1       5.314   5.002  17.974  0.00  0.00    +0.000 C 
BRANCH  16  17
ATOM     17  C   UNL     1       3.843   5.439  17.917  0.00  0.00    +0.000 C 
BRANCH  17  18
ATOM     18  C   UNL     1       3.145   5.302  19.273  0.00  0.00    +0.000 C 
BRANCH  18  19
ATOM     19  C   UNL     1       1.658   4.891  19.148  0.00  0.00    +0.000 C 
ATOM     20  C   UNL     1       1.358   3.973  17.951  0.00  0.00    +0.000 C 
ATOM     21  C   UNL     1       1.976   2.586  18.113  0.00  0.00    +0.000 C 
ATOM     22  C   UNL     1       1.534   1.925  19.417  0.00  0.00    +0.000 C 
ATOM     23  C   UNL     1       1.767   2.820  20.633  0.00  0.00    +0.000 C 
ATOM     24  C   UNL     1       1.168   4.213  20.440  0.00  0.00    +0.000 C 
ENDBRANCH  18  19
ENDBRANCH  17  18
ENDBRANCH  16  17
ENDBRANCH   1  16
BRANCH   1  25
ATOM     25  C   UNL     1       7.087   4.618  16.199  0.00  0.00    +0.000 C 
BRANCH  25  26
ATOM     26  C   UNL     1       7.048   4.727  14.683  0.00  0.00    +0.000 C 
ATOM     27  O   UNL     1       6.206   4.178  13.984  0.00  0.00    +0.000 OA
ATOM     28  N   UNL     1       8.025   5.542  14.164  0.00  0.00    +0.000 N 
ATOM     29  H   UNL     1       8.877   5.781  14.659  0.00  0.00    +0.000 HD
BRANCH  28  30
ATOM     30  O   UNL     1       8.082   5.603  12.754  0.00  0.00    +0.000 OA
ATOM     31  H   UNL     1       7.259   5.134  12.486  0.00  0.00    +0.000 HD
ENDBRANCH  28  30
ENDBRANCH  25  26
ENDBRANCH   1  25
TORSDOF 13
ENDMDL
MODEL 7
REMARK VINA RESULT:      -7.7      3.259      8.875
REMARK  Name = 
REMARK  15 active torsions:
REMARK  status: ('A' for Active; 'I' for Inactive)
REMARK    1  A    between atoms: C_1  and  C_2
REMARK    2  A    between atoms: C_2  and  C_3
REMARK    3  A    between atoms: C_2  and  C_4
REMARK    4  A    between atoms: C_2  and  N_6
REMARK    5  A    between atoms: C_4  and  O_5
REMARK    6  A    between atoms: N_6  and  C_7
REMARK    7  A    between atoms: C_7  and  C_8
REMARK    8  A    between atoms: C_11  and  C_12
REMARK    9  A    between atoms: C_12  and  C_13
REMARK   10  A    between atoms: C_12  and  C_22
REMARK   11  A    between atoms: C_13  and  C_14
REMARK   12  A    between atoms: C_14  and  C_15
REMARK   13  A    between atoms: C_15  and  C_16
REMARK   14  A    between atoms: C_22  and  C_23
REMARK   15  A    between atoms: N_25  and  O_26
REMARK                            x       y       z     vdW  Elec       q    Type
REMARK                         _______ _______ _______ _____ _____    ______ ____
ROOT
ATOM      1  C   UNL     1       6.569   5.501  16.621  0.00  0.00    +0.000 C 
ENDROOT
BRANCH   1   5
ATOM      2  C   UNL     1       8.093   8.444  17.995  0.00  0.00    +0.000 A 
ATOM      3  N   UNL     1       8.470   7.568  18.938  0.00  0.00    +0.000 NA
ATOM      4  O   UNL     1       7.896   6.369  18.513  0.00  0.00    +0.000 OA
ATOM      5  C   UNL     1       7.245   6.637  17.339  0.00  0.00    +0.000 A 
ATOM      6  N   UNL     1       7.351   7.897  16.974  0.00  0.00    +0.000 NA
BRANCH   2   7
ATOM      7  C   UNL     1       8.531   9.878  17.984  0.00  0.00    +0.000 C 
BRANCH   7   8
ATOM      8  N   UNL     1       9.610  10.102  18.964  0.00  0.00    +0.000 NA
ATOM      9  H   UNL     1       9.290   9.747  19.868  0.00  0.00    +0.000 HD
BRANCH   8  11
ATOM     10  C   UNL     1       9.720  11.925  20.558  0.00  0.00    +0.000 C 
ATOM     11  C   UNL     1      10.060  11.509  19.110  0.00  0.00    +0.000 C 
ATOM     12  C   UNL     1       9.283  12.447  18.165  0.00  0.00    +0.000 C 
BRANCH  11  13
ATOM     13  C   UNL     1      11.595  11.669  18.902  0.00  0.00    +0.000 C 
BRANCH  13  14
ATOM     14  O   UNL     1      11.990  11.474  17.545  0.00  0.00    +0.000 OA
ATOM     15  H   UNL     1      11.773  12.290  17.055  0.00  0.00    +0.000 HD
ENDBRANCH  13  14
ENDBRANCH  11  13
ENDBRANCH   8  11
ENDBRANCH   7   8
ENDBRANCH   2   7
ENDBRANCH   1   5
BRANCH   1  16
ATOM     16  C   UNL     1       6.001   4.459  17.614  0.00  0.00    +0.000 C 
BRANCH  16  17
ATOM     17  C   UNL     1       4.470   4.353  17.596  0.00  0.00    +0.000 C 
BRANCH  17  18
ATOM     18  C   UNL     1       3.848   4.713  18.947  0.00  0.00    +0.000 C 
BRANCH  18  19
ATOM     19  C   UNL     1       2.370   5.158  18.833  0.00  0.00    +0.000 C 
ATOM     20  C   UNL     1       1.521   4.284  17.895  0.00  0.00    +0.000 C 
ATOM     21  C   UNL     1       1.304   2.877  18.447  0.00  0.00    +0.000 C 
ATOM     22  C   UNL     1       0.689   2.914  19.844  0.00  0.00    +0.000 C 
ATOM     23  C   UNL     1       1.470   3.810  20.803  0.00  0.00    +0.000 C 
ATOM     24  C   UNL     1       1.704   5.203  20.220  0.00  0.00    +0.000 C 
ENDBRANCH  18  19
ENDBRANCH  17  18
ENDBRANCH  16  17
ENDBRANCH   1  16
BRANCH   1  25
ATOM     25  C   UNL     1       7.526   4.828  15.619  0.00  0.00    +0.000 C 
BRANCH  25  26
ATOM     26  C   UNL     1       6.945   4.729  14.217  0.00  0.00    +0.000 C 
ATOM     27  O   UNL     1       7.393   5.333  13.251  0.00  0.00    +0.000 OA
ATOM     28  N   UNL     1       5.888   3.855  14.121  0.00  0.00    +0.000 N 
ATOM     29  H   UNL     1       5.330   3.560  14.914  0.00  0.00    +0.000 HD
BRANCH  28  30
ATOM     30  O   UNL     1       5.260   3.797  12.857  0.00  0.00    +0.000 OA
ATOM     31  H   UNL     1       4.538   3.144  13.006  0.00  0.00    +0.000 HD
ENDBRANCH  28  30
ENDBRANCH  25  26
ENDBRANCH   1  25
TORSDOF 13
ENDMDL
MODEL 8
REMARK VINA RESULT:      -7.6      3.181      8.717
REMARK  Name = 
REMARK  15 active torsions:
REMARK  status: ('A' for Active; 'I' for Inactive)
REMARK    1  A    between atoms: C_1  and  C_2
REMARK    2  A    between atoms: C_2  and  C_3
REMARK    3  A    between atoms: C_2  and  C_4
REMARK    4  A    between atoms: C_2  and  N_6
REMARK    5  A    between atoms: C_4  and  O_5
REMARK    6  A    between atoms: N_6  and  C_7
REMARK    7  A    between atoms: C_7  and  C_8
REMARK    8  A    between atoms: C_11  and  C_12
REMARK    9  A    between atoms: C_12  and  C_13
REMARK   10  A    between atoms: C_12  and  C_22
REMARK   11  A    between atoms: C_13  and  C_14
REMARK   12  A    between atoms: C_14  and  C_15
REMARK   13  A    between atoms: C_15  and  C_16
REMARK   14  A    between atoms: C_22  and  C_23
REMARK   15  A    between atoms: N_25  and  O_26
REMARK                            x       y       z     vdW  Elec       q    Type
REMARK                         _______ _______ _______ _____ _____    ______ ____
ROOT
ATOM      1  C   UNL     1       6.536   5.471  17.766  0.00  0.00    +0.000 C 
ENDROOT
BRANCH   1   5
ATOM      2  C   UNL     1       8.235   8.597  18.226  0.00  0.00    +0.000 A 
ATOM      3  N   UNL     1       7.380   8.977  17.265  0.00  0.00    +0.000 NA
ATOM      4  O   UNL     1       6.674   7.807  16.981  0.00  0.00    +0.000 OA
ATOM      5  C   UNL     1       7.158   6.839  17.819  0.00  0.00    +0.000 A 
ATOM      6  N   UNL     1       8.110   7.283  18.612  0.00  0.00    +0.000 NA
BRANCH   2   7
ATOM      7  C   UNL     1       9.175   9.545  18.910  0.00  0.00    +0.000 C 
BRANCH   7   8
ATOM      8  N   UNL     1       9.430  10.726  18.067  0.00  0.00    +0.000 NA
ATOM      9  H   UNL     1       9.937  10.415  17.235  0.00  0.00    +0.000 HD
BRANCH   8  11
ATOM     10  C   UNL     1      11.614  11.774  18.164  0.00  0.00    +0.000 C 
ATOM     11  C   UNL     1      10.175  11.832  18.721  0.00  0.00    +0.000 C 
ATOM     12  C   UNL     1      10.260  11.623  20.247  0.00  0.00    +0.000 C 
BRANCH  11  13
ATOM     13  C   UNL     1       9.577  13.231  18.391  0.00  0.00    +0.000 C 
BRANCH  13  14
ATOM     14  O   UNL     1      10.036  13.745  17.141  0.00  0.00    +0.000 OA
ATOM     15  H   UNL     1       9.255  13.857  16.565  0.00  0.00    +0.000 HD
ENDBRANCH  13  14
ENDBRANCH  11  13
ENDBRANCH   8  11
ENDBRANCH   7   8
ENDBRANCH   2   7
ENDBRANCH   1   5
BRANCH   1  16
ATOM     16  C   UNL     1       6.226   4.932  19.183  0.00  0.00    +0.000 C 
BRANCH  16  17
ATOM     17  C   UNL     1       4.899   4.166  19.280  0.00  0.00    +0.000 C 
BRANCH  17  18
ATOM     18  C   UNL     1       4.068   4.283  18.000  0.00  0.00    +0.000 C 
BRANCH  18  19
ATOM     19  C   UNL     1       2.776   5.114  18.193  0.00  0.00    +0.000 C 
ATOM     20  C   UNL     1       1.496   4.407  17.716  0.00  0.00    +0.000 C 
ATOM     21  C   UNL     1       1.138   3.204  18.585  0.00  0.00    +0.000 C 
ATOM     22  C   UNL     1       1.015   3.594  20.056  0.00  0.00    +0.000 C 
ATOM     23  C   UNL     1       2.244   4.344  20.566  0.00  0.00    +0.000 C 
ATOM     24  C   UNL     1       2.606   5.526  19.666  0.00  0.00    +0.000 C 
ENDBRANCH  18  19
ENDBRANCH  17  18
ENDBRANCH  16  17
ENDBRANCH   1  16
BRANCH   1  25
ATOM     25  C   UNL     1       7.430   4.483  16.994  0.00  0.00    +0.000 C 
BRANCH  25  26
ATOM     26  C   UNL     1       7.158   4.479  15.498  0.00  0.00    +0.000 C 
ATOM     27  O   UNL     1       7.620   5.306  14.721  0.00  0.00    +0.000 OA
ATOM     28  N   UNL     1       6.378   3.427  15.083  0.00  0.00    +0.000 N 
ATOM     29  H   UNL     1       5.769   2.902  15.701  0.00  0.00    +0.000 HD
BRANCH  28  30
ATOM     30  O   UNL     1       6.026   3.433  13.715  0.00  0.00    +0.000 OA
ATOM     31  H   UNL     1       5.287   4.084  13.686  0.00  0.00    +0.000 HD
ENDBRANCH  28  30
ENDBRANCH  25  26
ENDBRANCH   1  25
TORSDOF 13
ENDMDL
MODEL 9
REMARK VINA RESULT:      -7.4      2.459      4.830
REMARK  Name = 
REMARK  15 active torsions:
REMARK  status: ('A' for Active; 'I' for Inactive)
REMARK    1  A    between atoms: C_1  and  C_2
REMARK    2  A    between atoms: C_2  and  C_3
REMARK    3  A    between atoms: C_2  and  C_4
REMARK    4  A    between atoms: C_2  and  N_6
REMARK    5  A    between atoms: C_4  and  O_5
REMARK    6  A    between atoms: N_6  and  C_7
REMARK    7  A    between atoms: C_7  and  C_8
REMARK    8  A    between atoms: C_11  and  C_12
REMARK    9  A    between atoms: C_12  and  C_13
REMARK   10  A    between atoms: C_12  and  C_22
REMARK   11  A    between atoms: C_13  and  C_14
REMARK   12  A    between atoms: C_14  and  C_15
REMARK   13  A    between atoms: C_15  and  C_16
REMARK   14  A    between atoms: C_22  and  C_23
REMARK   15  A    between atoms: N_25  and  O_26
REMARK                            x       y       z     vdW  Elec       q    Type
REMARK                         _______ _______ _______ _____ _____    ______ ____
ROOT
ATOM      1  C   UNL     1       7.202   6.100  17.808  0.00  0.00    +0.000 C 
ENDROOT
BRANCH   1   5
ATOM      2  C   UNL     1       3.821   5.863  18.986  0.00  0.00    +0.000 A 
ATOM      3  N   UNL     1       3.613   6.692  17.953  0.00  0.00    +0.000 NA
ATOM      4  O   UNL     1       4.891   6.881  17.428  0.00  0.00    +0.000 OA
ATOM      5  C   UNL     1       5.746   6.126  18.185  0.00  0.00    +0.000 A 
ATOM      6  N   UNL     1       5.130   5.472  19.147  0.00  0.00    +0.000 NA
BRANCH   2   7
ATOM      7  C   UNL     1       2.713   5.312  19.835  0.00  0.00    +0.000 C 
BRANCH   7   8
ATOM      8  N   UNL     1       1.818   4.459  19.034  0.00  0.00    +0.000 NA
ATOM      9  H   UNL     1       0.856   4.671  19.308  0.00  0.00    +0.000 HD
BRANCH   8  11
ATOM     10  C   UNL     1       0.687   2.317  18.939  0.00  0.00    +0.000 C 
ATOM     11  C   UNL     1       2.058   2.998  19.144  0.00  0.00    +0.000 C 
ATOM     12  C   UNL     1       2.558   2.617  20.552  0.00  0.00    +0.000 C 
BRANCH  11  13
ATOM     13  C   UNL     1       3.036   2.470  18.053  0.00  0.00    +0.000 C 
BRANCH  13  14
ATOM     14  O   UNL     1       4.399   2.504  18.473  0.00  0.00    +0.000 OA
ATOM     15  H   UNL     1       4.838   1.710  18.111  0.00  0.00    +0.000 HD
ENDBRANCH  13  14
ENDBRANCH  11  13
ENDBRANCH   8  11
ENDBRANCH   7   8
ENDBRANCH   2   7
ENDBRANCH   1   5
BRANCH   1  16
ATOM     16  C   UNL     1       7.979   7.269  18.459  0.00  0.00    +0.000 C 
BRANCH  16  17
ATOM     17  C   UNL     1       8.130   8.497  17.549  0.00  0.00    +0.000 C 
BRANCH  17  18
ATOM     18  C   UNL     1       8.173   9.805  18.344  0.00  0.00    +0.000 C 
BRANCH  18  19
ATOM     19  C   UNL     1       9.606  10.204  18.773  0.00  0.00    +0.000 C 
ATOM     20  C   UNL     1      10.278  11.229  17.843  0.00  0.00    +0.000 C 
ATOM     21  C   UNL     1       9.615  12.603  17.915  0.00  0.00    +0.000 C 
ATOM     22  C   UNL     1       9.575  13.128  19.348  0.00  0.00    +0.000 C 
ATOM     23  C   UNL     1       8.959  12.125  20.321  0.00  0.00    +0.000 C 
ATOM     24  C   UNL     1       9.613  10.748  20.212  0.00  0.00    +0.000 C 
ENDBRANCH  18  19
ENDBRANCH  17  18
ENDBRANCH  16  17
ENDBRANCH   1  16
BRANCH   1  25
ATOM     25  C   UNL     1       7.380   6.116  16.278  0.00  0.00    +0.000 C 
BRANCH  25  26
ATOM     26  C   UNL     1       6.906   4.834  15.611  0.00  0.00    +0.000 C 
ATOM     27  O   UNL     1       7.033   4.602  14.416  0.00  0.00    +0.000 OA
ATOM     28  N   UNL     1       6.357   3.928  16.487  0.00  0.00    +0.000 N 
ATOM     29  H   UNL     1       5.991   4.180  17.399  0.00  0.00    +0.000 HD
BRANCH  28  30
ATOM     30  O   UNL     1       5.823   2.760  15.900  0.00  0.00    +0.000 OA
ATOM     31  H   UNL     1       6.629   2.224  15.717  0.00  0.00    +0.000 HD
ENDBRANCH  28  30
ENDBRANCH  25  26
ENDBRANCH   1  25
TORSDOF 13
ENDMDL
