MODEL 1
REMARK VINA RESULT:      -8.5      0.000      0.000
REMARK  Name = 
REMARK  5 active torsions:
REMARK  status: ('A' for Active; 'I' for Inactive)
REMARK    1  A    between atoms: C_1  and  C_2
REMARK    2  A    between atoms: C_3  and  C_4
REMARK    3  A    between atoms: N_6  and  C_7
REMARK    4  A    between atoms: N_16  and  C_17
REMARK    5  A    between atoms: C_25  and  C_26
REMARK                            x       y       z     vdW  Elec       q    Type
REMARK                         _______ _______ _______ _____ _____    ______ ____
ROOT
ATOM      1  C   UNL     1      -0.575   8.756  21.496  0.00  0.00    +0.000 C 
ATOM      2  C   UNL     1      -0.010   9.882  20.702  0.00  0.00    +0.000 A 
ATOM      3  C   UNL     1       1.001   9.840  19.703  0.00  0.00    +0.000 A 
ATOM      4  N   UNL     1       1.205  11.036  19.147  0.00  0.00    +0.000 NA
ATOM      5  N   UNL     1       0.469  11.903  19.893  0.00  0.00    +0.000 N 
ATOM      6  C   UNL     1      -0.399  11.228  20.760  0.00  0.00    +0.000 A 
ENDROOT
BRANCH   5   7
ATOM      7  C   UNL     1       0.626  13.299  19.632  0.00  0.00    +0.000 A 
ATOM      8  C   UNL     1      -0.270  13.892  18.718  0.00  0.00    +0.000 A 
ATOM      9  C   UNL     1      -0.228  15.266  18.462  0.00  0.00    +0.000 A 
ATOM     10  C   UNL     1       0.706  16.059  19.118  0.00  0.00    +0.000 A 
ATOM     11 CL   UNL     1       0.767  17.749  18.803  0.00  0.00    +0.000 Cl
ATOM     12  C   UNL     1       1.624  15.485  19.993  0.00  0.00    +0.000 A 
ATOM     13  C   UNL     1       1.615  14.101  20.222  0.00  0.00    +0.000 A 
ATOM     14 CL   UNL     1       2.992  13.483  21.067  0.00  0.00    +0.000 Cl
ENDBRANCH   5   7
BRANCH   6  15
ATOM     15  C   UNL     1      -1.507  11.838  21.527  0.00  0.00    +0.000 A 
ATOM     16  C   UNL     1      -1.480  11.908  22.927  0.00  0.00    +0.000 A 
ATOM     17  C   UNL     1      -2.586  12.386  23.640  0.00  0.00    +0.000 A 
ATOM     18  C   UNL     1      -3.700  12.861  22.957  0.00  0.00    +0.000 A 
ATOM     19 CL   UNL     1      -5.065  13.437  23.831  0.00  0.00    +0.000 Cl
ATOM     20  C   UNL     1      -3.721  12.863  21.567  0.00  0.00    +0.000 A 
ATOM     21  C   UNL     1      -2.635  12.342  20.860  0.00  0.00    +0.000 A 
ENDBRANCH   6  15
BRANCH   3  22
ATOM     22  C   UNL     1       1.765   8.648  19.282  0.00  0.00    +0.000 A 
ATOM     23  C   UNL     1       2.112   7.541  20.032  0.00  0.00    +0.000 A 
ATOM     24  N   UNL     1       2.751   6.685  19.165  0.00  0.00    +0.000 N 
ATOM     25  C   UNL     1       2.759   7.303  17.946  0.00  0.00    +0.000 A 
ATOM     26  N   UNL     1       2.190   8.484  17.989  0.00  0.00    +0.000 NA
BRANCH  24  27
ATOM     27  C   UNL     1       3.187   5.323  19.471  0.00  0.00    +0.000 C 
ATOM     28  C   UNL     1       2.503   4.667  20.690  0.00  0.00    +0.000 C 
ATOM     29  C   UNL     1       1.051   4.265  20.421  0.00  0.00    +0.000 C 
ATOM     30  C   UNL     1       0.888   3.428  19.157  0.00  0.00    +0.000 C 
ATOM     31  C   UNL     1       1.632   3.996  17.952  0.00  0.00    +0.000 C 
ATOM     32  C   UNL     1       3.078   4.361  18.276  0.00  0.00    +0.000 C 
ENDBRANCH  24  27
ENDBRANCH   3  22
TORSDOF 4
ENDMDL
MODEL 2
REMARK VINA RESULT:      -8.5      1.105      1.401
REMARK  Name = 
REMARK  5 active torsions:
REMARK  status: ('A' for Active; 'I' for Inactive)
REMARK    1  A    between atoms: C_1  and  C_2
REMARK    2  A    between atoms: C_3  and  C_4
REMARK    3  A    between atoms: N_6  and  C_7
REMARK    4  A    between atoms: N_16  and  C_17
REMARK    5  A    between atoms: C_25  and  C_26
REMARK                            x       y       z     vdW  Elec       q    Type
REMARK                         _______ _______ _______ _____ _____    ______ ____
ROOT
ATOM      1  C   UNL     1      -0.624   8.414  21.576  0.00  0.00    +0.000 C 
ATOM      2  C   UNL     1       0.081   9.501  20.839  0.00  0.00    +0.000 A 
ATOM      3  C   UNL     1       1.147   9.389  19.905  0.00  0.00    +0.000 A 
ATOM      4  N   UNL     1       1.483  10.570  19.384  0.00  0.00    +0.000 NA
ATOM      5  N   UNL     1       0.774  11.485  20.099  0.00  0.00    +0.000 N 
ATOM      6  C   UNL     1      -0.199  10.873  20.898  0.00  0.00    +0.000 A 
ENDROOT
BRANCH   5   7
ATOM      7  C   UNL     1       1.061  12.867  19.874  0.00  0.00    +0.000 A 
ATOM      8  C   UNL     1       1.924  13.507  20.789  0.00  0.00    +0.000 A 
ATOM      9  C   UNL     1       2.311  14.837  20.600  0.00  0.00    +0.000 A 
ATOM     10  C   UNL     1       1.843  15.538  19.494  0.00  0.00    +0.000 A 
ATOM     11 CL   UNL     1       2.310  17.177  19.259  0.00  0.00    +0.000 Cl
ATOM     12  C   UNL     1       0.960  14.936  18.603  0.00  0.00    +0.000 A 
ATOM     13  C   UNL     1       0.535  13.615  18.810  0.00  0.00    +0.000 A 
ATOM     14 CL   UNL     1      -0.791  13.103  17.824  0.00  0.00    +0.000 Cl
ENDBRANCH   5   7
BRANCH   6  15
ATOM     15  C   UNL     1      -1.300  11.563  21.606  0.00  0.00    +0.000 A 
ATOM     16  C   UNL     1      -1.393  11.554  23.004  0.00  0.00    +0.000 A 
ATOM     17  C   UNL     1      -2.501  12.114  23.651  0.00  0.00    +0.000 A 
ATOM     18  C   UNL     1      -3.491  12.749  22.908  0.00  0.00    +0.000 A 
ATOM     19 CL   UNL     1      -4.859  13.428  23.699  0.00  0.00    +0.000 Cl
ATOM     20  C   UNL     1      -3.385  12.828  21.524  0.00  0.00    +0.000 A 
ATOM     21  C   UNL     1      -2.301  12.226  20.879  0.00  0.00    +0.000 A 
ENDBRANCH   6  15
BRANCH   3  22
ATOM     22  C   UNL     1       1.835   8.142  19.509  0.00  0.00    +0.000 A 
ATOM     23  C   UNL     1       2.148   7.049  20.293  0.00  0.00    +0.000 A 
ATOM     24  N   UNL     1       2.716   6.128  19.442  0.00  0.00    +0.000 N 
ATOM     25  C   UNL     1       2.719   6.698  18.200  0.00  0.00    +0.000 A 
ATOM     26  N   UNL     1       2.212   7.908  18.212  0.00  0.00    +0.000 NA
BRANCH  24  27
ATOM     27  C   UNL     1       3.091   4.758  19.790  0.00  0.00    +0.000 C 
ATOM     28  C   UNL     1       2.205   4.079  20.856  0.00  0.00    +0.000 C 
ATOM     29  C   UNL     1       0.821   3.689  20.330  0.00  0.00    +0.000 C 
ATOM     30  C   UNL     1       0.880   2.881  19.038  0.00  0.00    +0.000 C 
ATOM     31  C   UNL     1       1.823   3.471  17.994  0.00  0.00    +0.000 C 
ATOM     32  C   UNL     1       3.191   3.822  18.573  0.00  0.00    +0.000 C 
ENDBRANCH  24  27
ENDBRANCH   3  22
TORSDOF 4
ENDMDL
MODEL 3
REMARK VINA RESULT:      -8.3      2.691      4.504
REMARK  Name = 
REMARK  5 active torsions:
REMARK  status: ('A' for Active; 'I' for Inactive)
REMARK    1  A    between atoms: C_1  and  C_2
REMARK    2  A    between atoms: C_3  and  C_4
REMARK    3  A    between atoms: N_6  and  C_7
REMARK    4  A    between atoms: N_16  and  C_17
REMARK    5  A    between atoms: C_25  and  C_26
REMARK                            x       y       z     vdW  Elec       q    Type
REMARK                         _______ _______ _______ _____ _____    ______ ____
ROOT
ATOM      1  C   UNL     1       2.228  12.329  19.144  0.00  0.00    +0.000 C 
ATOM      2  C   UNL     1       0.874  11.747  18.927  0.00  0.00    +0.000 A 
ATOM      3  C   UNL     1       0.519  10.384  18.731  0.00  0.00    +0.000 A 
ATOM      4  N   UNL     1      -0.801  10.218  18.642  0.00  0.00    +0.000 NA
ATOM      5  N   UNL     1      -1.313  11.478  18.594  0.00  0.00    +0.000 N 
ATOM      6  C   UNL     1      -0.344  12.439  18.908  0.00  0.00    +0.000 A 
ENDROOT
BRANCH   5   7
ATOM      7  C   UNL     1      -2.709  11.615  18.325  0.00  0.00    +0.000 A 
ATOM      8  C   UNL     1      -3.540  12.006  19.397  0.00  0.00    +0.000 A 
ATOM      9  C   UNL     1      -4.906  12.232  19.200  0.00  0.00    +0.000 A 
ATOM     10  C   UNL     1      -5.453  12.072  17.932  0.00  0.00    +0.000 A 
ATOM     11 CL   UNL     1      -7.134  12.341  17.684  0.00  0.00    +0.000 Cl
ATOM     12  C   UNL     1      -4.657  11.648  16.872  0.00  0.00    +0.000 A 
ATOM     13  C   UNL     1      -3.294  11.379  17.072  0.00  0.00    +0.000 A 
ATOM     14 CL   UNL     1      -2.503  10.563  15.768  0.00  0.00    +0.000 Cl
ENDBRANCH   5   7
BRANCH   6  15
ATOM     15  C   UNL     1      -0.601  13.868  19.193  0.00  0.00    +0.000 A 
ATOM     16  C   UNL     1      -0.210  14.876  18.301  0.00  0.00    +0.000 A 
ATOM     17  C   UNL     1      -0.359  16.227  18.639  0.00  0.00    +0.000 A 
ATOM     18  C   UNL     1      -0.962  16.580  19.842  0.00  0.00    +0.000 A 
ATOM     19 CL   UNL     1      -1.135  18.237  20.264  0.00  0.00    +0.000 Cl
ATOM     20  C   UNL     1      -1.417  15.595  20.712  0.00  0.00    +0.000 A 
ATOM     21  C   UNL     1      -1.224  14.248  20.392  0.00  0.00    +0.000 A 
ENDBRANCH   6  15
BRANCH   3  22
ATOM     22  C   UNL     1       1.453   9.242  18.637  0.00  0.00    +0.000 A 
ATOM     23  C   UNL     1       1.680   8.241  19.562  0.00  0.00    +0.000 A 
ATOM     24  N   UNL     1       2.581   7.384  18.973  0.00  0.00    +0.000 N 
ATOM     25  C   UNL     1       2.852   7.897  17.735  0.00  0.00    +0.000 A 
ATOM     26  N   UNL     1       2.203   9.015  17.513  0.00  0.00    +0.000 NA
BRANCH  24  27
ATOM     27  C   UNL     1       3.026   6.102  19.518  0.00  0.00    +0.000 C 
ATOM     28  C   UNL     1       1.956   4.989  19.552  0.00  0.00    +0.000 C 
ATOM     29  C   UNL     1       1.635   4.420  18.168  0.00  0.00    +0.000 C 
ATOM     30  C   UNL     1       2.878   3.992  17.396  0.00  0.00    +0.000 C 
ATOM     31  C   UNL     1       3.997   5.030  17.421  0.00  0.00    +0.000 C 
ATOM     32  C   UNL     1       4.285   5.546  18.828  0.00  0.00    +0.000 C 
ENDBRANCH  24  27
ENDBRANCH   3  22
TORSDOF 4
ENDMDL
MODEL 4
REMARK VINA RESULT:      -8.2      1.272      4.349
REMARK  Name = 
REMARK  5 active torsions:
REMARK  status: ('A' for Active; 'I' for Inactive)
REMARK    1  A    between atoms: C_1  and  C_2
REMARK    2  A    between atoms: C_3  and  C_4
REMARK    3  A    between atoms: N_6  and  C_7
REMARK    4  A    between atoms: N_16  and  C_17
REMARK    5  A    between atoms: C_25  and  C_26
REMARK                            x       y       z     vdW  Elec       q    Type
REMARK                         _______ _______ _______ _____ _____    ______ ____
ROOT
ATOM      1  C   UNL     1       2.482  11.655  17.937  0.00  0.00    +0.000 C 
ATOM      2  C   UNL     1       1.451  11.313  18.956  0.00  0.00    +0.000 A 
ATOM      3  C   UNL     1       1.133  10.038  19.498  0.00  0.00    +0.000 A 
ATOM      4  N   UNL     1       0.199  10.116  20.448  0.00  0.00    +0.000 NA
ATOM      5  N   UNL     1      -0.234  11.405  20.411  0.00  0.00    +0.000 N 
ATOM      6  C   UNL     1       0.597  12.205  19.618  0.00  0.00    +0.000 A 
ENDROOT
BRANCH   5   7
ATOM      7  C   UNL     1      -1.367  11.746  21.213  0.00  0.00    +0.000 A 
ATOM      8  C   UNL     1      -1.236  11.608  22.611  0.00  0.00    +0.000 A 
ATOM      9  C   UNL     1      -2.272  11.988  23.470  0.00  0.00    +0.000 A 
ATOM     10  C   UNL     1      -3.446  12.510  22.940  0.00  0.00    +0.000 A 
ATOM     11 CL   UNL     1      -4.728  12.972  23.990  0.00  0.00    +0.000 Cl
ATOM     12  C   UNL     1      -3.609  12.616  21.562  0.00  0.00    +0.000 A 
ATOM     13  C   UNL     1      -2.589  12.198  20.693  0.00  0.00    +0.000 A 
ATOM     14 CL   UNL     1      -3.039  12.084  19.027  0.00  0.00    +0.000 Cl
ENDBRANCH   5   7
BRANCH   6  15
ATOM     15  C   UNL     1       0.574  13.683  19.553  0.00  0.00    +0.000 A 
ATOM     16  C   UNL     1      -0.355  14.369  18.758  0.00  0.00    +0.000 A 
ATOM     17  C   UNL     1      -0.289  15.760  18.621  0.00  0.00    +0.000 A 
ATOM     18  C   UNL     1       0.662  16.485  19.332  0.00  0.00    +0.000 A 
ATOM     19 CL   UNL     1       0.752  18.192  19.156  0.00  0.00    +0.000 Cl
ATOM     20  C   UNL     1       1.550  15.830  20.179  0.00  0.00    +0.000 A 
ATOM     21  C   UNL     1       1.512  14.437  20.276  0.00  0.00    +0.000 A 
ENDBRANCH   6  15
BRANCH   3  22
ATOM     22  C   UNL     1       1.734   8.746  19.107  0.00  0.00    +0.000 A 
ATOM     23  C   UNL     1       2.230   7.747  19.922  0.00  0.00    +0.000 A 
ATOM     24  N   UNL     1       2.607   6.727  19.079  0.00  0.00    +0.000 N 
ATOM     25  C   UNL     1       2.324   7.149  17.811  0.00  0.00    +0.000 A 
ATOM     26  N   UNL     1       1.815   8.357  17.795  0.00  0.00    +0.000 NA
BRANCH  24  27
ATOM     27  C   UNL     1       3.070   5.403  19.491  0.00  0.00    +0.000 C 
ATOM     28  C   UNL     1       2.331   4.788  20.700  0.00  0.00    +0.000 C 
ATOM     29  C   UNL     1       0.915   4.315  20.362  0.00  0.00    +0.000 C 
ATOM     30  C   UNL     1       0.866   3.404  19.140  0.00  0.00    +0.000 C 
ATOM     31  C   UNL     1       1.668   3.933  17.955  0.00  0.00    +0.000 C 
ATOM     32  C   UNL     1       3.075   4.372  18.349  0.00  0.00    +0.000 C 
ENDBRANCH  24  27
ENDBRANCH   3  22
TORSDOF 4
ENDMDL
MODEL 5
REMARK VINA RESULT:      -8.1      2.746      4.250
REMARK  Name = 
REMARK  5 active torsions:
REMARK  status: ('A' for Active; 'I' for Inactive)
REMARK    1  A    between atoms: C_1  and  C_2
REMARK    2  A    between atoms: C_3  and  C_4
REMARK    3  A    between atoms: N_6  and  C_7
REMARK    4  A    between atoms: N_16  and  C_17
REMARK    5  A    between atoms: C_25  and  C_26
REMARK                            x       y       z     vdW  Elec       q    Type
REMARK                         _______ _______ _______ _____ _____    ______ ____
ROOT
ATOM      1  C   UNL     1       2.086  12.245  19.542  0.00  0.00    +0.000 C 
ATOM      2  C   UNL     1       0.750  11.682  19.199  0.00  0.00    +0.000 A 
ATOM      3  C   UNL     1       0.416  10.344  18.854  0.00  0.00    +0.000 A 
ATOM      4  N   UNL     1      -0.897  10.184  18.680  0.00  0.00    +0.000 NA
ATOM      5  N   UNL     1      -1.415  11.441  18.726  0.00  0.00    +0.000 N 
ATOM      6  C   UNL     1      -0.472  12.370  19.181  0.00  0.00    +0.000 A 
ENDROOT
BRANCH   5   7
ATOM      7  C   UNL     1      -2.796  11.600  18.398  0.00  0.00    +0.000 A 
ATOM      8  C   UNL     1      -3.663  12.025  19.428  0.00  0.00    +0.000 A 
ATOM      9  C   UNL     1      -5.014  12.273  19.171  0.00  0.00    +0.000 A 
ATOM     10  C   UNL     1      -5.512  12.101  17.885  0.00  0.00    +0.000 A 
ATOM     11 CL   UNL     1      -7.176  12.398  17.564  0.00  0.00    +0.000 Cl
ATOM     12  C   UNL     1      -4.682  11.645  16.865  0.00  0.00    +0.000 A 
ATOM     13  C   UNL     1      -3.334  11.354  17.125  0.00  0.00    +0.000 A 
ATOM     14 CL   UNL     1      -2.506  10.501  15.868  0.00  0.00    +0.000 Cl
ENDBRANCH   5   7
BRANCH   6  15
ATOM     15  C   UNL     1      -0.753  13.764  19.588  0.00  0.00    +0.000 A 
ATOM     16  C   UNL     1      -1.362  14.063  20.815  0.00  0.00    +0.000 A 
ATOM     17  C   UNL     1      -1.723  15.378  21.133  0.00  0.00    +0.000 A 
ATOM     18  C   UNL     1      -1.417  16.414  20.256  0.00  0.00    +0.000 A 
ATOM     19 CL   UNL     1      -1.871  18.027  20.639  0.00  0.00    +0.000 Cl
ATOM     20  C   UNL     1      -0.754  16.148  19.063  0.00  0.00    +0.000 A 
ATOM     21  C   UNL     1      -0.437  14.829  18.729  0.00  0.00    +0.000 A 
ENDBRANCH   6  15
BRANCH   3  22
ATOM     22  C   UNL     1       1.362   9.219  18.701  0.00  0.00    +0.000 A 
ATOM     23  C   UNL     1       1.725   8.270  19.637  0.00  0.00    +0.000 A 
ATOM     24  N   UNL     1       2.572   7.404  18.983  0.00  0.00    +0.000 N 
ATOM     25  C   UNL     1       2.678   7.861  17.700  0.00  0.00    +0.000 A 
ATOM     26  N   UNL     1       1.977   8.952  17.506  0.00  0.00    +0.000 NA
BRANCH  24  27
ATOM     27  C   UNL     1       3.113   6.160  19.529  0.00  0.00    +0.000 C 
ATOM     28  C   UNL     1       2.239   5.469  20.598  0.00  0.00    +0.000 C 
ATOM     29  C   UNL     1       0.989   4.804  20.015  0.00  0.00    +0.000 C 
ATOM     30  C   UNL     1       1.297   3.877  18.844  0.00  0.00    +0.000 C 
ATOM     31  C   UNL     1       2.239   4.492  17.813  0.00  0.00    +0.000 C 
ATOM     32  C   UNL     1       3.474   5.123  18.451  0.00  0.00    +0.000 C 
ENDBRANCH  24  27
ENDBRANCH   3  22
TORSDOF 4
ENDMDL
MODEL 6
REMARK VINA RESULT:      -7.9      1.471      4.359
REMARK  Name = 
REMARK  5 active torsions:
REMARK  status: ('A' for Active; 'I' for Inactive)
REMARK    1  A    between atoms: C_1  and  C_2
REMARK    2  A    between atoms: C_3  and  C_4
REMARK    3  A    between atoms: N_6  and  C_7
REMARK    4  A    between atoms: N_16  and  C_17
REMARK    5  A    between atoms: C_25  and  C_26
REMARK                            x       y       z     vdW  Elec       q    Type
REMARK                         _______ _______ _______ _____ _____    ______ ____
ROOT
ATOM      1  C   UNL     1       2.561  12.100  18.335  0.00  0.00    +0.000 C 
ATOM      2  C   UNL     1       1.296  11.747  19.038  0.00  0.00    +0.000 A 
ATOM      3  C   UNL     1       0.823  10.460  19.415  0.00  0.00    +0.000 A 
ATOM      4  N   UNL     1      -0.321  10.527  20.098  0.00  0.00    +0.000 NA
ATOM      5  N   UNL     1      -0.703  11.831  20.020  0.00  0.00    +0.000 N 
ATOM      6  C   UNL     1       0.320  12.637  19.508  0.00  0.00    +0.000 A 
ENDROOT
BRANCH   5   7
ATOM      7  C   UNL     1      -1.995  12.172  20.524  0.00  0.00    +0.000 A 
ATOM      8  C   UNL     1      -3.049  12.276  19.591  0.00  0.00    +0.000 A 
ATOM      9  C   UNL     1      -4.357  12.535  20.012  0.00  0.00    +0.000 A 
ATOM     10  C   UNL     1      -4.624  12.692  21.367  0.00  0.00    +0.000 A 
ATOM     11 CL   UNL     1      -6.230  13.019  21.891  0.00  0.00    +0.000 Cl
ATOM     12  C   UNL     1      -3.592  12.633  22.299  0.00  0.00    +0.000 A 
ATOM     13  C   UNL     1      -2.270  12.414  21.879  0.00  0.00    +0.000 A 
ATOM     14 CL   UNL     1      -1.059  12.681  23.085  0.00  0.00    +0.000 Cl
ENDBRANCH   5   7
BRANCH   6  15
ATOM     15  C   UNL     1       0.345  14.116  19.517  0.00  0.00    +0.000 A 
ATOM     16  C   UNL     1      -0.345  14.868  18.556  0.00  0.00    +0.000 A 
ATOM     17  C   UNL     1      -0.218  16.262  18.512  0.00  0.00    +0.000 A 
ATOM     18  C   UNL     1       0.545  16.920  19.471  0.00  0.00    +0.000 A 
ATOM     19 CL   UNL     1       0.713  18.631  19.411  0.00  0.00    +0.000 Cl
ATOM     20  C   UNL     1       1.184  16.199  20.473  0.00  0.00    +0.000 A 
ATOM     21  C   UNL     1       1.093  14.805  20.485  0.00  0.00    +0.000 A 
ENDBRANCH   6  15
BRANCH   3  22
ATOM     22  C   UNL     1       1.477   9.168  19.122  0.00  0.00    +0.000 A 
ATOM     23  C   UNL     1       1.801   8.151  19.999  0.00  0.00    +0.000 A 
ATOM     24  N   UNL     1       2.323   7.141  19.225  0.00  0.00    +0.000 N 
ATOM     25  C   UNL     1       2.290   7.585  17.933  0.00  0.00    +0.000 A 
ATOM     26  N   UNL     1       1.803   8.799  17.842  0.00  0.00    +0.000 NA
BRANCH  24  27
ATOM     27  C   UNL     1       2.689   5.805  19.694  0.00  0.00    +0.000 C 
ATOM     28  C   UNL     1       1.721   4.672  19.290  0.00  0.00    +0.000 C 
ATOM     29  C   UNL     1       1.812   4.302  17.807  0.00  0.00    +0.000 C 
ATOM     30  C   UNL     1       3.240   4.022  17.350  0.00  0.00    +0.000 C 
ATOM     31  C   UNL     1       4.244   5.073  17.815  0.00  0.00    +0.000 C 
ATOM     32  C   UNL     1       4.117   5.386  19.303  0.00  0.00    +0.000 C 
ENDBRANCH  24  27
ENDBRANCH   3  22
TORSDOF 4
ENDMDL
MODEL 7
REMARK VINA RESULT:      -7.9      1.701      2.650
REMARK  Name = 
REMARK  5 active torsions:
REMARK  status: ('A' for Active; 'I' for Inactive)
REMARK    1  A    between atoms: C_1  and  C_2
REMARK    2  A    between atoms: C_3  and  C_4
REMARK    3  A    between atoms: N_6  and  C_7
REMARK    4  A    between atoms: N_16  and  C_17
REMARK    5  A    between atoms: C_25  and  C_26
REMARK                            x       y       z     vdW  Elec       q    Type
REMARK                         _______ _______ _______ _____ _____    ______ ____
ROOT
ATOM      1  C   UNL     1      -0.486   8.282  21.435  0.00  0.00    +0.000 C 
ATOM      2  C   UNL     1       0.249   9.356  20.710  0.00  0.00    +0.000 A 
ATOM      3  C   UNL     1       1.314   9.225  19.778  0.00  0.00    +0.000 A 
ATOM      4  N   UNL     1       1.683  10.402  19.269  0.00  0.00    +0.000 NA
ATOM      5  N   UNL     1       0.997  11.329  19.991  0.00  0.00    +0.000 N 
ATOM      6  C   UNL     1       0.006  10.735  20.781  0.00  0.00    +0.000 A 
ENDROOT
BRANCH   5   7
ATOM      7  C   UNL     1       1.322  12.704  19.780  0.00  0.00    +0.000 A 
ATOM      8  C   UNL     1       2.270  13.287  20.647  0.00  0.00    +0.000 A 
ATOM      9  C   UNL     1       2.695  14.606  20.463  0.00  0.00    +0.000 A 
ATOM     10  C   UNL     1       2.179  15.353  19.411  0.00  0.00    +0.000 A 
ATOM     11 CL   UNL     1       2.691  16.980  19.183  0.00  0.00    +0.000 Cl
ATOM     12  C   UNL     1       1.212  14.809  18.570  0.00  0.00    +0.000 A 
ATOM     13  C   UNL     1       0.751  13.500  18.774  0.00  0.00    +0.000 A 
ATOM     14 CL   UNL     1      -0.660  13.064  17.873  0.00  0.00    +0.000 Cl
ENDBRANCH   5   7
BRANCH   6  15
ATOM     15  C   UNL     1      -1.078  11.447  21.493  0.00  0.00    +0.000 A 
ATOM     16  C   UNL     1      -1.153  11.459  22.893  0.00  0.00    +0.000 A 
ATOM     17  C   UNL     1      -2.247  12.041  23.545  0.00  0.00    +0.000 A 
ATOM     18  C   UNL     1      -3.239  12.676  22.806  0.00  0.00    +0.000 A 
ATOM     19 CL   UNL     1      -4.589  13.381  23.604  0.00  0.00    +0.000 Cl
ATOM     20  C   UNL     1      -3.150  12.734  21.420  0.00  0.00    +0.000 A 
ATOM     21  C   UNL     1      -2.081  12.111  20.770  0.00  0.00    +0.000 A 
ENDBRANCH   6  15
BRANCH   3  22
ATOM     22  C   UNL     1       1.971   7.964  19.372  0.00  0.00    +0.000 A 
ATOM     23  C   UNL     1       2.580   7.662  18.170  0.00  0.00    +0.000 A 
ATOM     24  N   UNL     1       3.097   6.396  18.319  0.00  0.00    +0.000 N 
ATOM     25  C   UNL     1       2.784   5.997  19.588  0.00  0.00    +0.000 A 
ATOM     26  N   UNL     1       2.098   6.908  20.236  0.00  0.00    +0.000 NA
BRANCH  24  27
ATOM     27  C   UNL     1       3.946   5.698  17.354  0.00  0.00    +0.000 C 
ATOM     28  C   UNL     1       4.889   6.599  16.527  0.00  0.00    +0.000 C 
ATOM     29  C   UNL     1       6.065   7.146  17.340  0.00  0.00    +0.000 C 
ATOM     30  C   UNL     1       6.827   6.059  18.091  0.00  0.00    +0.000 C 
ATOM     31  C   UNL     1       5.921   5.089  18.843  0.00  0.00    +0.000 C 
ATOM     32  C   UNL     1       4.779   4.564  17.977  0.00  0.00    +0.000 C 
ENDBRANCH  24  27
ENDBRANCH   3  22
TORSDOF 4
ENDMDL
MODEL 8
REMARK VINA RESULT:      -7.9      2.845      4.045
REMARK  Name = 
REMARK  5 active torsions:
REMARK  status: ('A' for Active; 'I' for Inactive)
REMARK    1  A    between atoms: C_1  and  C_2
REMARK    2  A    between atoms: C_3  and  C_4
REMARK    3  A    between atoms: N_6  and  C_7
REMARK    4  A    between atoms: N_16  and  C_17
REMARK    5  A    between atoms: C_25  and  C_26
REMARK                            x       y       z     vdW  Elec       q    Type
REMARK                         _______ _______ _______ _____ _____    ______ ____
ROOT
ATOM      1  C   UNL     1       1.823  11.973  20.366  0.00  0.00    +0.000 C 
ATOM      2  C   UNL     1       0.550  11.488  19.763  0.00  0.00    +0.000 A 
ATOM      3  C   UNL     1       0.290  10.242  19.130  0.00  0.00    +0.000 A 
ATOM      4  N   UNL     1      -0.989  10.119  18.772  0.00  0.00    +0.000 NA
ATOM      5  N   UNL     1      -1.538  11.343  18.997  0.00  0.00    +0.000 N 
ATOM      6  C   UNL     1      -0.677  12.166  19.733  0.00  0.00    +0.000 A 
ENDROOT
BRANCH   5   7
ATOM      7  C   UNL     1      -2.875  11.563  18.543  0.00  0.00    +0.000 A 
ATOM      8  C   UNL     1      -3.814  12.022  19.491  0.00  0.00    +0.000 A 
ATOM      9  C   UNL     1      -5.124  12.330  19.111  0.00  0.00    +0.000 A 
ATOM     10  C   UNL     1      -5.507  12.183  17.783  0.00  0.00    +0.000 A 
ATOM     11 CL   UNL     1      -7.119  12.552  17.311  0.00  0.00    +0.000 Cl
ATOM     12  C   UNL     1      -4.606  11.693  16.842  0.00  0.00    +0.000 A 
ATOM     13  C   UNL     1      -3.302  11.343  17.225  0.00  0.00    +0.000 A 
ATOM     14 CL   UNL     1      -2.398  10.458  16.045  0.00  0.00    +0.000 Cl
ENDBRANCH   5   7
BRANCH   6  15
ATOM     15  C   UNL     1      -1.037  13.455  20.365  0.00  0.00    +0.000 A 
ATOM     16  C   UNL     1      -0.901  14.671  19.681  0.00  0.00    +0.000 A 
ATOM     17  C   UNL     1      -1.139  15.887  20.332  0.00  0.00    +0.000 A 
ATOM     18  C   UNL     1      -1.581  15.895  21.651  0.00  0.00    +0.000 A 
ATOM     19 CL   UNL     1      -1.861  17.388  22.456  0.00  0.00    +0.000 Cl
ATOM     20  C   UNL     1      -1.786  14.697  22.327  0.00  0.00    +0.000 A 
ATOM     21  C   UNL     1      -1.502  13.487  21.689  0.00  0.00    +0.000 A 
ENDBRANCH   6  15
BRANCH   3  22
ATOM     22  C   UNL     1       1.273   9.168  18.876  0.00  0.00    +0.000 A 
ATOM     23  C   UNL     1       1.687   8.164  19.730  0.00  0.00    +0.000 A 
ATOM     24  N   UNL     1       2.553   7.384  18.999  0.00  0.00    +0.000 N 
ATOM     25  C   UNL     1       2.621   7.942  17.754  0.00  0.00    +0.000 A 
ATOM     26  N   UNL     1       1.878   9.018  17.655  0.00  0.00    +0.000 NA
BRANCH  24  27
ATOM     27  C   UNL     1       3.148   6.122  19.439  0.00  0.00    +0.000 C 
ATOM     28  C   UNL     1       2.391   5.391  20.569  0.00  0.00    +0.000 C 
ATOM     29  C   UNL     1       1.086   4.744  20.099  0.00  0.00    +0.000 C 
ATOM     30  C   UNL     1       1.267   3.861  18.869  0.00  0.00    +0.000 C 
ATOM     31  C   UNL     1       2.095   4.515  17.767  0.00  0.00    +0.000 C 
ATOM     32  C   UNL     1       3.391   5.126  18.292  0.00  0.00    +0.000 C 
ENDBRANCH  24  27
ENDBRANCH   3  22
TORSDOF 4
ENDMDL
MODEL 9
REMARK VINA RESULT:      -7.9      0.508      1.194
REMARK  Name = 
REMARK  5 active torsions:
REMARK  status: ('A' for Active; 'I' for Inactive)
REMARK    1  A    between atoms: C_1  and  C_2
REMARK    2  A    between atoms: C_3  and  C_4
REMARK    3  A    between atoms: N_6  and  C_7
REMARK    4  A    between atoms: N_16  and  C_17
REMARK    5  A    between atoms: C_25  and  C_26
REMARK                            x       y       z     vdW  Elec       q    Type
REMARK                         _______ _______ _______ _____ _____    ______ ____
ROOT
ATOM      1  C   UNL     1      -0.564   8.857  21.608  0.00  0.00    +0.000 C 
ATOM      2  C   UNL     1       0.005   9.955  20.778  0.00  0.00    +0.000 A 
ATOM      3  C   UNL     1       1.006   9.874  19.771  0.00  0.00    +0.000 A 
ATOM      4  N   UNL     1       1.218  11.051  19.180  0.00  0.00    +0.000 NA
ATOM      5  N   UNL     1       0.499  11.947  19.909  0.00  0.00    +0.000 N 
ATOM      6  C   UNL     1      -0.367  11.306  20.803  0.00  0.00    +0.000 A 
ENDROOT
BRANCH   5   7
ATOM      7  C   UNL     1       0.670  13.333  19.609  0.00  0.00    +0.000 A 
ATOM      8  C   UNL     1      -0.239  13.916  18.700  0.00  0.00    +0.000 A 
ATOM      9  C   UNL     1      -0.185  15.283  18.408  0.00  0.00    +0.000 A 
ATOM     10  C   UNL     1       0.776  16.078  19.022  0.00  0.00    +0.000 A 
ATOM     11 CL   UNL     1       0.853  17.759  18.662  0.00  0.00    +0.000 Cl
ATOM     12  C   UNL     1       1.706  15.514  19.890  0.00  0.00    +0.000 A 
ATOM     13  C   UNL     1       1.683  14.136  20.155  0.00  0.00    +0.000 A 
ATOM     14 CL   UNL     1       3.071  13.520  20.984  0.00  0.00    +0.000 Cl
ENDBRANCH   5   7
BRANCH   6  15
ATOM     15  C   UNL     1      -1.460  11.950  21.564  0.00  0.00    +0.000 A 
ATOM     16  C   UNL     1      -2.664  12.322  20.949  0.00  0.00    +0.000 A 
ATOM     17  C   UNL     1      -3.640  13.031  21.658  0.00  0.00    +0.000 A 
ATOM     18  C   UNL     1      -3.450  13.314  23.007  0.00  0.00    +0.000 A 
ATOM     19 CL   UNL     1      -4.643  14.196  23.877  0.00  0.00    +0.000 Cl
ATOM     20  C   UNL     1      -2.292  12.896  23.654  0.00  0.00    +0.000 A 
ATOM     21  C   UNL     1      -1.300  12.230  22.931  0.00  0.00    +0.000 A 
ENDBRANCH   6  15
BRANCH   3  22
ATOM     22  C   UNL     1       1.752   8.662  19.375  0.00  0.00    +0.000 A 
ATOM     23  C   UNL     1       2.040   7.544  20.134  0.00  0.00    +0.000 A 
ATOM     24  N   UNL     1       2.687   6.673  19.289  0.00  0.00    +0.000 N 
ATOM     25  C   UNL     1       2.758   7.293  18.073  0.00  0.00    +0.000 A 
ATOM     26  N   UNL     1       2.221   8.489  18.098  0.00  0.00    +0.000 NA
BRANCH  24  27
ATOM     27  C   UNL     1       3.073   5.299  19.607  0.00  0.00    +0.000 C 
ATOM     28  C   UNL     1       1.928   4.264  19.575  0.00  0.00    +0.000 C 
ATOM     29  C   UNL     1       1.460   3.927  18.157  0.00  0.00    +0.000 C 
ATOM     30  C   UNL     1       2.606   3.538  17.228  0.00  0.00    +0.000 C 
ATOM     31  C   UNL     1       3.799   4.486  17.304  0.00  0.00    +0.000 C 
ATOM     32  C   UNL     1       4.230   4.770  18.740  0.00  0.00    +0.000 C 
ENDBRANCH  24  27
ENDBRANCH   3  22
TORSDOF 4
ENDMDL
