MODEL 1
REMARK VINA RESULT:      -6.8      0.000      0.000
REMARK  Name = 
REMARK  8 active torsions:
REMARK  status: ('A' for Active; 'I' for Inactive)
REMARK    1  A    between atoms: C_1  and  C_2
REMARK    2  A    between atoms: C_2  and  C_3
REMARK    3  A    between atoms: C_2  and  C_4
REMARK    4  A    between atoms: C_4  and  N_5
REMARK    5  A    between atoms: C_14  and  C_15
REMARK    6  A    between atoms: N_17  and  C_18
REMARK    7  A    between atoms: C_22  and  C_23
REMARK    8  A    between atoms: C_26  and  C_27
REMARK                            x       y       z     vdW  Elec       q    Type
REMARK                         _______ _______ _______ _____ _____    ______ ____
ROOT
ATOM      1  N   UNL     1      -0.905  13.681  22.286  0.00  0.00    +0.000 N 
ATOM      2  C   UNL     1      -1.403  12.424  22.702  0.00  0.00    +0.000 C 
ATOM      3  O   UNL     1      -2.478  12.279  23.274  0.00  0.00    +0.000 OA
ATOM      4  C   UNL     1      -0.608  11.207  22.357  0.00  0.00    +0.000 A 
ATOM      5  C   UNL     1      -0.811  10.009  23.048  0.00  0.00    +0.000 A 
ATOM      6  C   UNL     1      -0.114   8.857  22.669  0.00  0.00    +0.000 A 
ATOM      7  C   UNL     1       0.771   8.895  21.592  0.00  0.00    +0.000 A 
ATOM      8  C   UNL     1       0.980  10.087  20.902  0.00  0.00    +0.000 A 
ATOM      9  C   UNL     1       0.298  11.249  21.291  0.00  0.00    +0.000 A 
ATOM     10  C   UNL     1       0.475  12.545  20.548  0.00  0.00    +0.000 C 
ATOM     11  C   UNL     1       0.400  13.714  21.566  0.00  0.00    +0.000 C 
ENDROOT
BRANCH  11  12
ATOM     12  C   UNL     1       0.822  15.029  20.913  0.00  0.00    +0.000 A 
ATOM     13  C   UNL     1       0.061  16.106  20.481  0.00  0.00    +0.000 A 
ATOM     14  C   UNL     1       0.789  17.023  19.669  0.00  0.00    +0.000 A 
ATOM     15  C   UNL     1       2.108  16.664  19.550  0.00  0.00    +0.000 A 
ATOM     16  S   UNL     1       2.462  15.230  20.410  0.00  0.00    +0.000 S 
ENDBRANCH  11  12
BRANCH  10  17
ATOM     17  C   UNL     1      -0.516  12.598  19.368  0.00  0.00    +0.000 C 
ATOM     18  O   UNL     1      -0.341  13.430  18.478  0.00  0.00    +0.000 OA
ATOM     19  N   UNL     1      -1.565  11.693  19.412  0.00  0.00    +0.000 N 
ATOM     20  H   UNL     1      -1.624  11.103  20.234  0.00  0.00    +0.000 HD
BRANCH  19  21
ATOM     21  C   UNL     1      -2.674  11.632  18.546  0.00  0.00    +0.000 A 
ATOM     22  C   UNL     1      -3.965  11.997  18.935  0.00  0.00    +0.000 A 
ATOM     23  C   UNL     1      -5.031  11.870  18.051  0.00  0.00    +0.000 A 
ATOM     24  C   UNL     1      -4.825  11.369  16.761  0.00  0.00    +0.000 A 
ATOM     25  C   UNL     1      -3.541  11.012  16.353  0.00  0.00    +0.000 A 
ATOM     26  C   UNL     1      -2.463  11.160  17.241  0.00  0.00    +0.000 A 
BRANCH  25  27
ATOM     27  C   UNL     1      -3.329  10.472  15.042  0.00  0.00    +0.000 C 
ATOM     28  N   UNL     1      -3.146  10.035  13.979  0.00  0.00    +0.000 NA
ENDBRANCH  25  27
ENDBRANCH  19  21
ENDBRANCH  10  17
BRANCH   1  29
ATOM     29  C   UNL     1      -1.624  14.894  22.723  0.00  0.00    +0.000 C 
BRANCH  29  31
ATOM     30  C   UNL     1      -0.621  16.804  24.080  0.00  0.00    +0.000 C 
ATOM     31  C   UNL     1      -1.275  15.429  24.131  0.00  0.00    +0.000 C 
ATOM     32  C   UNL     1      -2.535  15.469  25.003  0.00  0.00    +0.000 C 
ENDBRANCH  29  31
ENDBRANCH   1  29
TORSDOF 6
ENDMDL
MODEL 2
REMARK VINA RESULT:      -6.8      3.632      6.155
REMARK  Name = 
REMARK  8 active torsions:
REMARK  status: ('A' for Active; 'I' for Inactive)
REMARK    1  A    between atoms: C_1  and  C_2
REMARK    2  A    between atoms: C_2  and  C_3
REMARK    3  A    between atoms: C_2  and  C_4
REMARK    4  A    between atoms: C_4  and  N_5
REMARK    5  A    between atoms: C_14  and  C_15
REMARK    6  A    between atoms: N_17  and  C_18
REMARK    7  A    between atoms: C_22  and  C_23
REMARK    8  A    between atoms: C_26  and  C_27
REMARK                            x       y       z     vdW  Elec       q    Type
REMARK                         _______ _______ _______ _____ _____    ______ ____
ROOT
ATOM      1  N   UNL     1      -0.850  12.482  20.716  0.00  0.00    +0.000 N 
ATOM      2  C   UNL     1       0.289  13.160  21.210  0.00  0.00    +0.000 C 
ATOM      3  O   UNL     1       0.483  13.373  22.402  0.00  0.00    +0.000 OA
ATOM      4  C   UNL     1       1.342  13.567  20.232  0.00  0.00    +0.000 A 
ATOM      5  C   UNL     1       2.273  14.555  20.564  0.00  0.00    +0.000 A 
ATOM      6  C   UNL     1       3.299  14.877  19.669  0.00  0.00    +0.000 A 
ATOM      7  C   UNL     1       3.406  14.203  18.453  0.00  0.00    +0.000 A 
ATOM      8  C   UNL     1       2.479  13.220  18.115  0.00  0.00    +0.000 A 
ATOM      9  C   UNL     1       1.437  12.908  19.001  0.00  0.00    +0.000 A 
ATOM     10  C   UNL     1       0.438  11.829  18.683  0.00  0.00    +0.000 C 
ATOM     11  C   UNL     1      -0.945  12.255  19.245  0.00  0.00    +0.000 C 
ENDROOT
BRANCH  11  12
ATOM     12  C   UNL     1      -2.045  11.325  18.737  0.00  0.00    +0.000 A 
ATOM     13  C   UNL     1      -1.977  10.026  18.254  0.00  0.00    +0.000 A 
ATOM     14  C   UNL     1      -3.176   9.596  17.615  0.00  0.00    +0.000 A 
ATOM     15  C   UNL     1      -4.159  10.551  17.679  0.00  0.00    +0.000 A 
ATOM     16  S   UNL     1      -3.637  11.954  18.502  0.00  0.00    +0.000 S 
ENDBRANCH  11  12
BRANCH  10  17
ATOM     17  C   UNL     1       0.983  10.468  19.159  0.00  0.00    +0.000 C 
ATOM     18  O   UNL     1       0.953  10.199  20.359  0.00  0.00    +0.000 OA
ATOM     19  N   UNL     1       1.497   9.639  18.173  0.00  0.00    +0.000 N 
ATOM     20  H   UNL     1       1.516  10.009  17.230  0.00  0.00    +0.000 HD
BRANCH  19  21
ATOM     21  C   UNL     1       2.181   8.421  18.355  0.00  0.00    +0.000 A 
ATOM     22  C   UNL     1       1.961   7.582  19.449  0.00  0.00    +0.000 A 
ATOM     23  C   UNL     1       2.700   6.413  19.602  0.00  0.00    +0.000 A 
ATOM     24  C   UNL     1       3.680   6.068  18.664  0.00  0.00    +0.000 A 
ATOM     25  C   UNL     1       3.903   6.889  17.560  0.00  0.00    +0.000 A 
ATOM     26  C   UNL     1       3.141   8.057  17.397  0.00  0.00    +0.000 A 
BRANCH  25  27
ATOM     27  C   UNL     1       4.924   6.553  16.611  0.00  0.00    +0.000 C 
ATOM     28  N   UNL     1       5.747   6.288  15.833  0.00  0.00    +0.000 NA
ENDBRANCH  25  27
ENDBRANCH  19  21
ENDBRANCH  10  17
BRANCH   1  29
ATOM     29  C   UNL     1      -1.946  12.181  21.658  0.00  0.00    +0.000 C 
BRANCH  29  31
ATOM     30  C   UNL     1      -4.383  12.907  21.818  0.00  0.00    +0.000 C 
ATOM     31  C   UNL     1      -2.927  13.336  21.961  0.00  0.00    +0.000 C 
ATOM     32  C   UNL     1      -2.669  13.887  23.367  0.00  0.00    +0.000 C 
ENDBRANCH  29  31
ENDBRANCH   1  29
TORSDOF 6
ENDMDL
MODEL 3
REMARK VINA RESULT:      -6.6      1.366      1.822
REMARK  Name = 
REMARK  8 active torsions:
REMARK  status: ('A' for Active; 'I' for Inactive)
REMARK    1  A    between atoms: C_1  and  C_2
REMARK    2  A    between atoms: C_2  and  C_3
REMARK    3  A    between atoms: C_2  and  C_4
REMARK    4  A    between atoms: C_4  and  N_5
REMARK    5  A    between atoms: C_14  and  C_15
REMARK    6  A    between atoms: N_17  and  C_18
REMARK    7  A    between atoms: C_22  and  C_23
REMARK    8  A    between atoms: C_26  and  C_27
REMARK                            x       y       z     vdW  Elec       q    Type
REMARK                         _______ _______ _______ _____ _____    ______ ____
ROOT
ATOM      1  N   UNL     1      -0.384  13.927  21.583  0.00  0.00    +0.000 N 
ATOM      2  C   UNL     1      -1.089  12.880  22.223  0.00  0.00    +0.000 C 
ATOM      3  O   UNL     1      -2.183  13.031  22.757  0.00  0.00    +0.000 OA
ATOM      4  C   UNL     1      -0.502  11.507  22.175  0.00  0.00    +0.000 A 
ATOM      5  C   UNL     1      -0.911  10.530  23.086  0.00  0.00    +0.000 A 
ATOM      6  C   UNL     1      -0.409   9.228  22.987  0.00  0.00    +0.000 A 
ATOM      7  C   UNL     1       0.487   8.898  21.970  0.00  0.00    +0.000 A 
ATOM      8  C   UNL     1       0.901   9.869  21.062  0.00  0.00    +0.000 A 
ATOM      9  C   UNL     1       0.416  11.180  21.170  0.00  0.00    +0.000 A 
ATOM     10  C   UNL     1       0.816  12.246  20.186  0.00  0.00    +0.000 C 
ATOM     11  C   UNL     1       0.920  13.600  20.938  0.00  0.00    +0.000 C 
ENDROOT
BRANCH  11  12
ATOM     12  C   UNL     1       1.563  14.663  20.051  0.00  0.00    +0.000 A 
ATOM     13  C   UNL     1       1.036  15.828  19.512  0.00  0.00    +0.000 A 
ATOM     14  C   UNL     1       1.862  16.412  18.509  0.00  0.00    +0.000 A 
ATOM     15  C   UNL     1       3.036  15.719  18.347  0.00  0.00    +0.000 A 
ATOM     16  S   UNL     1       3.135  14.374  19.396  0.00  0.00    +0.000 S 
ENDBRANCH  11  12
BRANCH  10  17
ATOM     17  C   UNL     1      -0.134  12.206  18.972  0.00  0.00    +0.000 C 
ATOM     18  O   UNL     1      -0.136  13.151  18.184  0.00  0.00    +0.000 OA
ATOM     19  N   UNL     1      -0.946  11.086  18.870  0.00  0.00    +0.000 N 
ATOM     20  H   UNL     1      -0.885  10.409  19.621  0.00  0.00    +0.000 HD
BRANCH  19  21
ATOM     21  C   UNL     1      -1.991  10.873  17.951  0.00  0.00    +0.000 A 
ATOM     22  C   UNL     1      -1.880  10.008  16.860  0.00  0.00    +0.000 A 
ATOM     23  C   UNL     1      -2.930   9.873  15.957  0.00  0.00    +0.000 A 
ATOM     24  C   UNL     1      -4.108  10.609  16.126  0.00  0.00    +0.000 A 
ATOM     25  C   UNL     1      -4.239  11.467  17.217  0.00  0.00    +0.000 A 
ATOM     26  C   UNL     1      -3.186  11.586  18.138  0.00  0.00    +0.000 A 
BRANCH  25  27
ATOM     27  C   UNL     1      -5.434  12.244  17.379  0.00  0.00    +0.000 C 
ATOM     28  N   UNL     1      -6.405  12.871  17.499  0.00  0.00    +0.000 NA
ENDBRANCH  25  27
ENDBRANCH  19  21
ENDBRANCH  10  17
BRANCH   1  29
ATOM     29  C   UNL     1      -0.899  15.303  21.725  0.00  0.00    +0.000 C 
BRANCH  29  31
ATOM     30  C   UNL     1       0.217  17.396  22.656  0.00  0.00    +0.000 C 
ATOM     31  C   UNL     1      -0.460  16.072  22.992  0.00  0.00    +0.000 C 
ATOM     32  C   UNL     1      -1.666  16.307  23.908  0.00  0.00    +0.000 C 
ENDBRANCH  29  31
ENDBRANCH   1  29
TORSDOF 6
ENDMDL
MODEL 4
REMARK VINA RESULT:      -6.5      1.255      1.707
REMARK  Name = 
REMARK  8 active torsions:
REMARK  status: ('A' for Active; 'I' for Inactive)
REMARK    1  A    between atoms: C_1  and  C_2
REMARK    2  A    between atoms: C_2  and  C_3
REMARK    3  A    between atoms: C_2  and  C_4
REMARK    4  A    between atoms: C_4  and  N_5
REMARK    5  A    between atoms: C_14  and  C_15
REMARK    6  A    between atoms: N_17  and  C_18
REMARK    7  A    between atoms: C_22  and  C_23
REMARK    8  A    between atoms: C_26  and  C_27
REMARK                            x       y       z     vdW  Elec       q    Type
REMARK                         _______ _______ _______ _____ _____    ______ ____
ROOT
ATOM      1  N   UNL     1      -1.478  13.824  21.894  0.00  0.00    +0.000 N 
ATOM      2  C   UNL     1      -1.863  12.556  22.389  0.00  0.00    +0.000 C 
ATOM      3  O   UNL     1      -2.991  12.306  22.800  0.00  0.00    +0.000 OA
ATOM      4  C   UNL     1      -0.862  11.448  22.332  0.00  0.00    +0.000 A 
ATOM      5  C   UNL     1      -1.016  10.313  23.133  0.00  0.00    +0.000 A 
ATOM      6  C   UNL     1      -0.113   9.251  23.020  0.00  0.00    +0.000 A 
ATOM      7  C   UNL     1       0.931   9.312  22.097  0.00  0.00    +0.000 A 
ATOM      8  C   UNL     1       1.091  10.442  21.299  0.00  0.00    +0.000 A 
ATOM      9  C   UNL     1       0.200  11.518  21.423  0.00  0.00    +0.000 A 
ATOM     10  C   UNL     1       0.324  12.740  20.554  0.00  0.00    +0.000 C 
ATOM     11  C   UNL     1      -0.084  13.984  21.388  0.00  0.00    +0.000 C 
ENDROOT
BRANCH  11  12
ATOM     12  C   UNL     1       0.260  15.272  20.643  0.00  0.00    +0.000 A 
ATOM     13  C   UNL     1      -0.555  16.170  19.970  0.00  0.00    +0.000 A 
ATOM     14  C   UNL     1       0.168  17.098  19.165  0.00  0.00    +0.000 A 
ATOM     15  C   UNL     1       1.525  16.932  19.289  0.00  0.00    +0.000 A 
ATOM     16  S   UNL     1       1.920  15.666  20.367  0.00  0.00    +0.000 S 
ENDBRANCH  11  12
BRANCH  10  17
ATOM     17  C   UNL     1      -0.446  12.513  19.238  0.00  0.00    +0.000 C 
ATOM     18  O   UNL     1      -0.284  13.302  18.307  0.00  0.00    +0.000 OA
ATOM     19  N   UNL     1      -1.298  11.419  19.211  0.00  0.00    +0.000 N 
ATOM     20  H   UNL     1      -1.382  10.886  20.069  0.00  0.00    +0.000 HD
BRANCH  19  21
ATOM     21  C   UNL     1      -2.214  11.078  18.197  0.00  0.00    +0.000 A 
ATOM     22  C   UNL     1      -1.921  10.162  17.185  0.00  0.00    +0.000 A 
ATOM     23  C   UNL     1      -2.848   9.899  16.181  0.00  0.00    +0.000 A 
ATOM     24  C   UNL     1      -4.084  10.555  16.170  0.00  0.00    +0.000 A 
ATOM     25  C   UNL     1      -4.397  11.463  17.181  0.00  0.00    +0.000 A 
ATOM     26  C   UNL     1      -3.467  11.710  18.204  0.00  0.00    +0.000 A 
BRANCH  25  27
ATOM     27  C   UNL     1      -5.651  12.157  17.159  0.00  0.00    +0.000 C 
ATOM     28  N   UNL     1      -6.672  12.713  17.132  0.00  0.00    +0.000 NA
ENDBRANCH  25  27
ENDBRANCH  19  21
ENDBRANCH  10  17
BRANCH   1  29
ATOM     29  C   UNL     1      -2.420  14.950  22.053  0.00  0.00    +0.000 C 
BRANCH  29  31
ATOM     30  C   UNL     1      -3.517  16.400  23.839  0.00  0.00    +0.000 C 
ATOM     31  C   UNL     1      -2.204  15.856  23.287  0.00  0.00    +0.000 C 
ATOM     32  C   UNL     1      -1.445  15.089  24.375  0.00  0.00    +0.000 C 
ENDBRANCH  29  31
ENDBRANCH   1  29
TORSDOF 6
ENDMDL
MODEL 5
REMARK VINA RESULT:      -6.5      1.121      1.543
REMARK  Name = 
REMARK  8 active torsions:
REMARK  status: ('A' for Active; 'I' for Inactive)
REMARK    1  A    between atoms: C_1  and  C_2
REMARK    2  A    between atoms: C_2  and  C_3
REMARK    3  A    between atoms: C_2  and  C_4
REMARK    4  A    between atoms: C_4  and  N_5
REMARK    5  A    between atoms: C_14  and  C_15
REMARK    6  A    between atoms: N_17  and  C_18
REMARK    7  A    between atoms: C_22  and  C_23
REMARK    8  A    between atoms: C_26  and  C_27
REMARK                            x       y       z     vdW  Elec       q    Type
REMARK                         _______ _______ _______ _____ _____    ______ ____
ROOT
ATOM      1  N   UNL     1      -1.588  13.588  22.176  0.00  0.00    +0.000 N 
ATOM      2  C   UNL     1      -1.881  12.270  22.601  0.00  0.00    +0.000 C 
ATOM      3  O   UNL     1      -2.968  11.935  23.058  0.00  0.00    +0.000 OA
ATOM      4  C   UNL     1      -0.834  11.222  22.410  0.00  0.00    +0.000 A 
ATOM      5  C   UNL     1      -0.883  10.030  23.136  0.00  0.00    +0.000 A 
ATOM      6  C   UNL     1       0.060   9.026  22.897  0.00  0.00    +0.000 A 
ATOM      7  C   UNL     1       1.042   9.204  21.922  0.00  0.00    +0.000 A 
ATOM      8  C   UNL     1       1.099  10.391  21.197  0.00  0.00    +0.000 A 
ATOM      9  C   UNL     1       0.167  11.409  21.448  0.00  0.00    +0.000 A 
ATOM     10  C   UNL     1       0.179  12.691  20.661  0.00  0.00    +0.000 C 
ATOM     11  C   UNL     1      -0.237  13.854  21.603  0.00  0.00    +0.000 C 
ENDROOT
BRANCH  11  12
ATOM     12  C   UNL     1      -0.001  15.205  20.931  0.00  0.00    +0.000 A 
ATOM     13  C   UNL     1      -0.524  15.734  19.760  0.00  0.00    +0.000 A 
ATOM     14  C   UNL     1       0.152  16.908  19.318  0.00  0.00    +0.000 A 
ATOM     15  C   UNL     1       1.135  17.291  20.195  0.00  0.00    +0.000 A 
ATOM     16  S   UNL     1       1.243  16.240  21.538  0.00  0.00    +0.000 S 
ENDBRANCH  11  12
BRANCH  10  17
ATOM     17  C   UNL     1      -0.659  12.514  19.379  0.00  0.00    +0.000 C 
ATOM     18  O   UNL     1      -0.225  12.957  18.316  0.00  0.00    +0.000 OA
ATOM     19  N   UNL     1      -1.876  11.867  19.531  0.00  0.00    +0.000 N 
ATOM     20  H   UNL     1      -2.139  11.606  20.473  0.00  0.00    +0.000 HD
BRANCH  19  21
ATOM     21  C   UNL     1      -2.883  11.709  18.559  0.00  0.00    +0.000 A 
ATOM     22  C   UNL     1      -4.229  11.987  18.806  0.00  0.00    +0.000 A 
ATOM     23  C   UNL     1      -5.187  11.767  17.821  0.00  0.00    +0.000 A 
ATOM     24  C   UNL     1      -4.815  11.256  16.573  0.00  0.00    +0.000 A 
ATOM     25  C   UNL     1      -3.474  10.984  16.307  0.00  0.00    +0.000 A 
ATOM     26  C   UNL     1      -2.506  11.227  17.295  0.00  0.00    +0.000 A 
BRANCH  25  27
ATOM     27  C   UNL     1      -3.091  10.435  15.039  0.00  0.00    +0.000 C 
ATOM     28  N   UNL     1      -2.778  10.000  14.007  0.00  0.00    +0.000 NA
ENDBRANCH  25  27
ENDBRANCH  19  21
ENDBRANCH  10  17
BRANCH   1  29
ATOM     29  C   UNL     1      -2.571  14.649  22.467  0.00  0.00    +0.000 C 
BRANCH  29  31
ATOM     30  C   UNL     1      -5.018  14.331  21.832  0.00  0.00    +0.000 C 
ATOM     31  C   UNL     1      -3.665  14.884  21.401  0.00  0.00    +0.000 C 
ATOM     32  C   UNL     1      -3.776  16.379  21.083  0.00  0.00    +0.000 C 
ENDBRANCH  29  31
ENDBRANCH   1  29
TORSDOF 6
ENDMDL
MODEL 6
REMARK VINA RESULT:      -6.4      3.375      6.209
REMARK  Name = 
REMARK  8 active torsions:
REMARK  status: ('A' for Active; 'I' for Inactive)
REMARK    1  A    between atoms: C_1  and  C_2
REMARK    2  A    between atoms: C_2  and  C_3
REMARK    3  A    between atoms: C_2  and  C_4
REMARK    4  A    between atoms: C_4  and  N_5
REMARK    5  A    between atoms: C_14  and  C_15
REMARK    6  A    between atoms: N_17  and  C_18
REMARK    7  A    between atoms: C_22  and  C_23
REMARK    8  A    between atoms: C_26  and  C_27
REMARK                            x       y       z     vdW  Elec       q    Type
REMARK                         _______ _______ _______ _____ _____    ______ ____
ROOT
ATOM      1  N   UNL     1      -0.741  12.447  20.637  0.00  0.00    +0.000 N 
ATOM      2  C   UNL     1       0.396  13.138  21.118  0.00  0.00    +0.000 C 
ATOM      3  O   UNL     1       0.616  13.328  22.309  0.00  0.00    +0.000 OA
ATOM      4  C   UNL     1       1.416  13.587  20.124  0.00  0.00    +0.000 A 
ATOM      5  C   UNL     1       2.335  14.587  20.454  0.00  0.00    +0.000 A 
ATOM      6  C   UNL     1       3.331  14.950  19.541  0.00  0.00    +0.000 A 
ATOM      7  C   UNL     1       3.421  14.305  18.308  0.00  0.00    +0.000 A 
ATOM      8  C   UNL     1       2.505  13.310  17.972  0.00  0.00    +0.000 A 
ATOM      9  C   UNL     1       1.493  12.958  18.876  0.00  0.00    +0.000 A 
ATOM     10  C   UNL     1       0.507  11.866  18.559  0.00  0.00    +0.000 C 
ATOM     11  C   UNL     1      -0.869  12.250  19.165  0.00  0.00    +0.000 C 
ENDROOT
BRANCH  11  12
ATOM     12  C   UNL     1      -1.962  11.309  18.664  0.00  0.00    +0.000 A 
ATOM     13  C   UNL     1      -1.874  10.057  18.071  0.00  0.00    +0.000 A 
ATOM     14  C   UNL     1      -3.098   9.620  17.488  0.00  0.00    +0.000 A 
ATOM     15  C   UNL     1      -4.116  10.515  17.704  0.00  0.00    +0.000 A 
ATOM     16  S   UNL     1      -3.594  11.873  18.600  0.00  0.00    +0.000 S 
ENDBRANCH  11  12
BRANCH  10  17
ATOM     17  C   UNL     1       1.092  10.506  18.991  0.00  0.00    +0.000 C 
ATOM     18  O   UNL     1       1.081  10.202  20.183  0.00  0.00    +0.000 OA
ATOM     19  N   UNL     1       1.617   9.719  17.976  0.00  0.00    +0.000 N 
ATOM     20  H   UNL     1       1.616  10.116  17.045  0.00  0.00    +0.000 HD
BRANCH  19  21
ATOM     21  C   UNL     1       2.333   8.514  18.117  0.00  0.00    +0.000 A 
ATOM     22  C   UNL     1       3.418   8.175  17.308  0.00  0.00    +0.000 A 
ATOM     23  C   UNL     1       4.058   6.949  17.462  0.00  0.00    +0.000 A 
ATOM     24  C   UNL     1       3.617   6.037  18.426  0.00  0.00    +0.000 A 
ATOM     25  C   UNL     1       2.542   6.366  19.251  0.00  0.00    +0.000 A 
ATOM     26  C   UNL     1       1.912   7.612  19.107  0.00  0.00    +0.000 A 
BRANCH  25  27
ATOM     27  C   UNL     1       2.070   5.423  20.223  0.00  0.00    +0.000 C 
ATOM     28  N   UNL     1       1.685   4.650  21.002  0.00  0.00    +0.000 NA
ENDBRANCH  25  27
ENDBRANCH  19  21
ENDBRANCH  10  17
BRANCH   1  29
ATOM     29  C   UNL     1      -1.806  12.102  21.600  0.00  0.00    +0.000 C 
BRANCH  29  31
ATOM     30  C   UNL     1      -3.043  14.309  21.293  0.00  0.00    +0.000 C 
ATOM     31  C   UNL     1      -2.514  13.289  22.294  0.00  0.00    +0.000 C 
ATOM     32  C   UNL     1      -3.651  12.773  23.182  0.00  0.00    +0.000 C 
ENDBRANCH  29  31
ENDBRANCH   1  29
TORSDOF 6
ENDMDL
MODEL 7
REMARK VINA RESULT:      -6.4      1.591      2.448
REMARK  Name = 
REMARK  8 active torsions:
REMARK  status: ('A' for Active; 'I' for Inactive)
REMARK    1  A    between atoms: C_1  and  C_2
REMARK    2  A    between atoms: C_2  and  C_3
REMARK    3  A    between atoms: C_2  and  C_4
REMARK    4  A    between atoms: C_4  and  N_5
REMARK    5  A    between atoms: C_14  and  C_15
REMARK    6  A    between atoms: N_17  and  C_18
REMARK    7  A    between atoms: C_22  and  C_23
REMARK    8  A    between atoms: C_26  and  C_27
REMARK                            x       y       z     vdW  Elec       q    Type
REMARK                         _______ _______ _______ _____ _____    ______ ____
ROOT
ATOM      1  N   UNL     1       0.077  11.816  21.487  0.00  0.00    +0.000 N 
ATOM      2  C   UNL     1       0.028  10.428  21.216  0.00  0.00    +0.000 C 
ATOM      3  O   UNL     1      -0.744   9.658  21.777  0.00  0.00    +0.000 OA
ATOM      4  C   UNL     1       0.910   9.894  20.135  0.00  0.00    +0.000 A 
ATOM      5  C   UNL     1       1.209   8.530  20.074  0.00  0.00    +0.000 A 
ATOM      6  C   UNL     1       1.975   8.029  19.017  0.00  0.00    +0.000 A 
ATOM      7  C   UNL     1       2.429   8.884  18.013  0.00  0.00    +0.000 A 
ATOM      8  C   UNL     1       2.138  10.245  18.071  0.00  0.00    +0.000 A 
ATOM      9  C   UNL     1       1.386  10.755  19.139  0.00  0.00    +0.000 A 
ATOM     10  C   UNL     1       1.025  12.213  19.215  0.00  0.00    +0.000 C 
ATOM     11  C   UNL     1       1.036  12.648  20.705  0.00  0.00    +0.000 C 
ENDROOT
BRANCH  11  12
ATOM     12  C   UNL     1       0.925  14.167  20.826  0.00  0.00    +0.000 A 
ATOM     13  C   UNL     1      -0.093  14.960  21.335  0.00  0.00    +0.000 A 
ATOM     14  C   UNL     1       0.052  16.341  21.017  0.00  0.00    +0.000 A 
ATOM     15  C   UNL     1       1.212  16.587  20.327  0.00  0.00    +0.000 A 
ATOM     16  S   UNL     1       2.116  15.160  20.064  0.00  0.00    +0.000 S 
ENDBRANCH  11  12
BRANCH  10  17
ATOM     17  C   UNL     1      -0.284  12.459  18.438  0.00  0.00    +0.000 C 
ATOM     18  O   UNL     1      -0.625  13.615  18.193  0.00  0.00    +0.000 OA
ATOM     19  N   UNL     1      -1.002  11.327  18.082  0.00  0.00    +0.000 N 
ATOM     20  H   UNL     1      -0.637  10.437  18.399  0.00  0.00    +0.000 HD
BRANCH  19  21
ATOM     21  C   UNL     1      -2.285  11.281  17.504  0.00  0.00    +0.000 A 
ATOM     22  C   UNL     1      -3.447  11.617  18.202  0.00  0.00    +0.000 A 
ATOM     23  C   UNL     1      -4.693  11.506  17.593  0.00  0.00    +0.000 A 
ATOM     24  C   UNL     1      -4.799  11.049  16.275  0.00  0.00    +0.000 A 
ATOM     25  C   UNL     1      -3.648  10.722  15.560  0.00  0.00    +0.000 A 
ATOM     26  C   UNL     1      -2.390  10.854  16.170  0.00  0.00    +0.000 A 
BRANCH  25  27
ATOM     27  C   UNL     1      -3.753  10.228  14.218  0.00  0.00    +0.000 C 
ATOM     28  N   UNL     1      -3.832   9.836  13.126  0.00  0.00    +0.000 NA
ENDBRANCH  25  27
ENDBRANCH  19  21
ENDBRANCH  10  17
BRANCH   1  29
ATOM     29  C   UNL     1      -0.704  12.331  22.629  0.00  0.00    +0.000 C 
BRANCH  29  31
ATOM     30  C   UNL     1      -2.950  12.734  23.764  0.00  0.00    +0.000 C 
ATOM     31  C   UNL     1      -2.239  12.173  22.538  0.00  0.00    +0.000 C 
ATOM     32  C   UNL     1      -2.761  12.847  21.264  0.00  0.00    +0.000 C 
ENDBRANCH  29  31
ENDBRANCH   1  29
TORSDOF 6
ENDMDL
MODEL 8
REMARK VINA RESULT:      -6.3      2.810      6.084
REMARK  Name = 
REMARK  8 active torsions:
REMARK  status: ('A' for Active; 'I' for Inactive)
REMARK    1  A    between atoms: C_1  and  C_2
REMARK    2  A    between atoms: C_2  and  C_3
REMARK    3  A    between atoms: C_2  and  C_4
REMARK    4  A    between atoms: C_4  and  N_5
REMARK    5  A    between atoms: C_14  and  C_15
REMARK    6  A    between atoms: N_17  and  C_18
REMARK    7  A    between atoms: C_22  and  C_23
REMARK    8  A    between atoms: C_26  and  C_27
REMARK                            x       y       z     vdW  Elec       q    Type
REMARK                         _______ _______ _______ _____ _____    ______ ____
ROOT
ATOM      1  N   UNL     1      -1.478  11.473  18.978  0.00  0.00    +0.000 N 
ATOM      2  C   UNL     1      -0.467  10.487  18.882  0.00  0.00    +0.000 C 
ATOM      3  O   UNL     1       0.022  10.124  17.819  0.00  0.00    +0.000 OA
ATOM      4  C   UNL     1       0.081   9.920  20.151  0.00  0.00    +0.000 A 
ATOM      5  C   UNL     1       0.768   8.704  20.145  0.00  0.00    +0.000 A 
ATOM      6  C   UNL     1       1.340   8.218  21.325  0.00  0.00    +0.000 A 
ATOM      7  C   UNL     1       1.241   8.952  22.507  0.00  0.00    +0.000 A 
ATOM      8  C   UNL     1       0.553  10.164  22.520  0.00  0.00    +0.000 A 
ATOM      9  C   UNL     1      -0.039  10.645  21.343  0.00  0.00    +0.000 A 
ATOM     10  C   UNL     1      -0.760  11.965  21.314  0.00  0.00    +0.000 C 
ATOM     11  C   UNL     1      -1.961  11.851  20.337  0.00  0.00    +0.000 C 
ENDROOT
BRANCH  11  12
ATOM     12  C   UNL     1      -2.873  13.070  20.456  0.00  0.00    +0.000 A 
ATOM     13  C   UNL     1      -2.567  14.413  20.625  0.00  0.00    +0.000 A 
ATOM     14  C   UNL     1      -3.694  15.211  20.974  0.00  0.00    +0.000 A 
ATOM     15  C   UNL     1      -4.852  14.475  21.002  0.00  0.00    +0.000 A 
ATOM     16  S   UNL     1      -4.577  12.834  20.611  0.00  0.00    +0.000 S 
ENDBRANCH  11  12
BRANCH  10  17
ATOM     17  C   UNL     1       0.250  13.095  21.032  0.00  0.00    +0.000 C 
ATOM     18  O   UNL     1       0.686  13.755  21.974  0.00  0.00    +0.000 OA
ATOM     19  N   UNL     1       0.583  13.297  19.701  0.00  0.00    +0.000 N 
ATOM     20  H   UNL     1       0.104  12.721  19.019  0.00  0.00    +0.000 HD
BRANCH  19  21
ATOM     21  C   UNL     1       1.358  14.344  19.166  0.00  0.00    +0.000 A 
ATOM     22  C   UNL     1       0.835  15.604  18.869  0.00  0.00    +0.000 A 
ATOM     23  C   UNL     1       1.638  16.585  18.298  0.00  0.00    +0.000 A 
ATOM     24  C   UNL     1       2.980  16.320  18.006  0.00  0.00    +0.000 A 
ATOM     25  C   UNL     1       3.522  15.071  18.308  0.00  0.00    +0.000 A 
ATOM     26  C   UNL     1       2.714  14.089  18.904  0.00  0.00    +0.000 A 
BRANCH  25  27
ATOM     27  C   UNL     1       4.889  14.785  17.986  0.00  0.00    +0.000 C 
ATOM     28  N   UNL     1       6.001  14.565  17.724  0.00  0.00    +0.000 NA
ENDBRANCH  25  27
ENDBRANCH  19  21
ENDBRANCH  10  17
BRANCH   1  29
ATOM     29  C   UNL     1      -2.105  11.952  17.729  0.00  0.00    +0.000 C 
BRANCH  29  31
ATOM     30  C   UNL     1      -4.550  11.674  17.068  0.00  0.00    +0.000 C 
ATOM     31  C   UNL     1      -3.170  11.027  17.097  0.00  0.00    +0.000 C 
ATOM     32  C   UNL     1      -2.740  10.623  15.683  0.00  0.00    +0.000 C 
ENDBRANCH  29  31
ENDBRANCH   1  29
TORSDOF 6
ENDMDL
MODEL 9
REMARK VINA RESULT:      -6.3      1.556      2.178
REMARK  Name = 
REMARK  8 active torsions:
REMARK  status: ('A' for Active; 'I' for Inactive)
REMARK    1  A    between atoms: C_1  and  C_2
REMARK    2  A    between atoms: C_2  and  C_3
REMARK    3  A    between atoms: C_2  and  C_4
REMARK    4  A    between atoms: C_4  and  N_5
REMARK    5  A    between atoms: C_14  and  C_15
REMARK    6  A    between atoms: N_17  and  C_18
REMARK    7  A    between atoms: C_22  and  C_23
REMARK    8  A    between atoms: C_26  and  C_27
REMARK                            x       y       z     vdW  Elec       q    Type
REMARK                         _______ _______ _______ _____ _____    ______ ____
ROOT
ATOM      1  N   UNL     1      -0.352  14.019  21.595  0.00  0.00    +0.000 N 
ATOM      2  C   UNL     1      -1.092  13.003  22.245  0.00  0.00    +0.000 C 
ATOM      3  O   UNL     1      -2.175  13.198  22.787  0.00  0.00    +0.000 OA
ATOM      4  C   UNL     1      -0.559  11.608  22.199  0.00  0.00    +0.000 A 
ATOM      5  C   UNL     1      -0.998  10.651  23.118  0.00  0.00    +0.000 A 
ATOM      6  C   UNL     1      -0.547   9.331  23.020  0.00  0.00    +0.000 A 
ATOM      7  C   UNL     1       0.328   8.961  21.999  0.00  0.00    +0.000 A 
ATOM      8  C   UNL     1       0.772   9.912  21.083  0.00  0.00    +0.000 A 
ATOM      9  C   UNL     1       0.338  11.242  21.189  0.00  0.00    +0.000 A 
ATOM     10  C   UNL     1       0.772  12.287  20.198  0.00  0.00    +0.000 C 
ATOM     11  C   UNL     1       0.934  13.639  20.943  0.00  0.00    +0.000 C 
ENDROOT
BRANCH  11  12
ATOM     12  C   UNL     1       1.611  14.673  20.047  0.00  0.00    +0.000 A 
ATOM     13  C   UNL     1       1.145  15.883  19.553  0.00  0.00    +0.000 A 
ATOM     14  C   UNL     1       1.965  16.428  18.524  0.00  0.00    +0.000 A 
ATOM     15  C   UNL     1       3.078  15.658  18.296  0.00  0.00    +0.000 A 
ATOM     16  S   UNL     1       3.128  14.288  19.315  0.00  0.00    +0.000 S 
ENDBRANCH  11  12
BRANCH  10  17
ATOM     17  C   UNL     1      -0.187  12.279  18.991  0.00  0.00    +0.000 C 
ATOM     18  O   UNL     1      -0.212  13.254  18.240  0.00  0.00    +0.000 OA
ATOM     19  N   UNL     1      -0.982  11.151  18.852  0.00  0.00    +0.000 N 
ATOM     20  H   UNL     1      -0.903  10.446  19.575  0.00  0.00    +0.000 HD
BRANCH  19  21
ATOM     21  C   UNL     1      -2.031  10.956  17.933  0.00  0.00    +0.000 A 
ATOM     22  C   UNL     1      -1.898  10.184  16.778  0.00  0.00    +0.000 A 
ATOM     23  C   UNL     1      -2.955  10.066  15.881  0.00  0.00    +0.000 A 
ATOM     24  C   UNL     1      -4.165  10.727  16.123  0.00  0.00    +0.000 A 
ATOM     25  C   UNL     1      -4.318  11.492  17.278  0.00  0.00    +0.000 A 
ATOM     26  C   UNL     1      -3.257  11.592  18.191  0.00  0.00    +0.000 A 
BRANCH  25  27
ATOM     27  C   UNL     1      -5.546  12.192  17.516  0.00  0.00    +0.000 C 
ATOM     28  N   UNL     1      -6.545  12.753  17.719  0.00  0.00    +0.000 NA
ENDBRANCH  25  27
ENDBRANCH  19  21
ENDBRANCH  10  17
BRANCH   1  29
ATOM     29  C   UNL     1      -0.812  15.414  21.736  0.00  0.00    +0.000 C 
BRANCH  29  31
ATOM     30  C   UNL     1      -3.179  16.283  22.103  0.00  0.00    +0.000 C 
ATOM     31  C   UNL     1      -2.172  15.758  21.087  0.00  0.00    +0.000 C 
ATOM     32  C   UNL     1      -1.973  16.774  19.958  0.00  0.00    +0.000 C 
ENDBRANCH  29  31
ENDBRANCH   1  29
TORSDOF 6
ENDMDL
