MODEL 1
REMARK VINA RESULT:      -6.8      0.000      0.000
REMARK  Name = 
REMARK  9 active torsions:
REMARK  status: ('A' for Active; 'I' for Inactive)
REMARK    1  A    between atoms: C_1  and  C_2
REMARK    2  A    between atoms: C_4  and  C_5
REMARK    3  A    between atoms: C_6  and  C_7
REMARK    4  A    between atoms: C_7  and  N_8
REMARK    5  A    between atoms: C_9  and  C_11
REMARK    6  A    between atoms: C_11  and  C_12
REMARK    7  A    between atoms: C_11  and  O_13
REMARK    8  A    between atoms: O_13  and  C_14
REMARK    9  A    between atoms: C_14  and  C_15
REMARK                            x       y       z     vdW  Elec       q    Type
REMARK                         _______ _______ _______ _____ _____    ______ ____
ROOT
ATOM      1  C   UNL     1       3.577   6.511  17.922  0.00  0.00    +0.000 C 
ENDROOT
BRANCH   1   7
ATOM      2  C   UNL     1       1.268   2.640  21.631  0.00  0.00    +0.000 C 
ATOM      3  C   UNL     1       1.829   3.689  20.718  0.00  0.00    +0.000 A 
ATOM      4  C   UNL     1       1.631   5.004  20.896  0.00  0.00    +0.000 A 
ATOM      5  C   UNL     1       2.206   5.977  19.983  0.00  0.00    +0.000 A 
ATOM      6  C   UNL     1       1.873   7.419  20.245  0.00  0.00    +0.000 C 
ATOM      7  C   UNL     1       2.997   5.584  18.957  0.00  0.00    +0.000 A 
ATOM      8  C   UNL     1       3.195   4.109  18.740  0.00  0.00    +0.000 A 
ATOM      9  O   UNL     1       3.845   3.674  17.801  0.00  0.00    +0.000 OA
ATOM     10  N   UNL     1       2.590   3.272  19.652  0.00  0.00    +0.000 N 
ATOM     11  H   UNL     1       2.731   2.282  19.489  0.00  0.00    +0.000 HD
ENDBRANCH   1   7
BRANCH   1  12
ATOM     12  N   UNL     1       5.032   6.546  17.993  0.00  0.00    +0.000 N 
ATOM     13  C   UNL     1       5.809   6.550  16.856  0.00  0.00    +0.000 C 
ATOM     14  O   UNL     1       5.326   6.687  15.732  0.00  0.00    +0.000 OA
ATOM     15  H   UNL     1       5.475   6.205  18.843  0.00  0.00    +0.000 HD
BRANCH  13  16
ATOM     16  C   UNL     1       7.341   6.450  17.088  0.00  0.00    +0.000 C 
ATOM     17  C   UNL     1       7.570   6.005  18.538  0.00  0.00    +0.000 C 
BRANCH  16  18
ATOM     18  O   UNL     1       8.030   7.672  16.799  0.00  0.00    +0.000 OA
BRANCH  18  19
ATOM     19  C   UNL     1       7.698   8.727  17.708  0.00  0.00    +0.000 C 
BRANCH  19  20
ATOM     20  C   UNL     1       8.908   9.560  17.971  0.00  0.00    +0.000 C 
ATOM     21  C   UNL     1       8.760  11.038  18.224  0.00  0.00    +0.000 C 
ATOM     22  C   UNL     1       9.156  10.129  19.351  0.00  0.00    +0.000 C 
ENDBRANCH  19  20
ENDBRANCH  18  19
ENDBRANCH  16  18
ENDBRANCH  13  16
ENDBRANCH   1  12
TORSDOF 6
ENDMDL
MODEL 2
REMARK VINA RESULT:      -6.7      1.990      6.229
REMARK  Name = 
REMARK  9 active torsions:
REMARK  status: ('A' for Active; 'I' for Inactive)
REMARK    1  A    between atoms: C_1  and  C_2
REMARK    2  A    between atoms: C_4  and  C_5
REMARK    3  A    between atoms: C_6  and  C_7
REMARK    4  A    between atoms: C_7  and  N_8
REMARK    5  A    between atoms: C_9  and  C_11
REMARK    6  A    between atoms: C_11  and  C_12
REMARK    7  A    between atoms: C_11  and  O_13
REMARK    8  A    between atoms: O_13  and  C_14
REMARK    9  A    between atoms: C_14  and  C_15
REMARK                            x       y       z     vdW  Elec       q    Type
REMARK                         _______ _______ _______ _____ _____    ______ ____
ROOT
ATOM      1  C   UNL     1       6.298   4.291  18.016  0.00  0.00    +0.000 C 
ENDROOT
BRANCH   1   7
ATOM      2  C   UNL     1       8.706   9.603  18.249  0.00  0.00    +0.000 C 
ATOM      3  C   UNL     1       8.045   8.262  18.133  0.00  0.00    +0.000 A 
ATOM      4  C   UNL     1       7.113   7.977  17.210  0.00  0.00    +0.000 A 
ATOM      5  C   UNL     1       6.511   6.657  17.139  0.00  0.00    +0.000 A 
ATOM      6  C   UNL     1       5.437   6.467  16.105  0.00  0.00    +0.000 C 
ATOM      7  C   UNL     1       6.911   5.665  17.969  0.00  0.00    +0.000 A 
ATOM      8  C   UNL     1       7.934   5.993  19.022  0.00  0.00    +0.000 A 
ATOM      9  O   UNL     1       8.302   5.169  19.846  0.00  0.00    +0.000 OA
ATOM     10  N   UNL     1       8.427   7.279  19.015  0.00  0.00    +0.000 N 
ATOM     11  H   UNL     1       9.113   7.483  19.732  0.00  0.00    +0.000 HD
ENDBRANCH   1   7
BRANCH   1  12
ATOM     12  N   UNL     1       5.140   4.254  18.900  0.00  0.00    +0.000 N 
ATOM     13  C   UNL     1       3.987   3.588  18.550  0.00  0.00    +0.000 C 
ATOM     14  O   UNL     1       3.924   2.860  17.559  0.00  0.00    +0.000 OA
ATOM     15  H   UNL     1       5.042   4.997  19.587  0.00  0.00    +0.000 HD
BRANCH  13  16
ATOM     16  C   UNL     1       2.793   3.750  19.529  0.00  0.00    +0.000 C 
ATOM     17  C   UNL     1       1.593   2.999  18.937  0.00  0.00    +0.000 C 
BRANCH  16  18
ATOM     18  O   UNL     1       2.473   5.120  19.798  0.00  0.00    +0.000 OA
BRANCH  18  19
ATOM     19  C   UNL     1       2.211   5.874  18.609  0.00  0.00    +0.000 C 
BRANCH  19  20
ATOM     20  C   UNL     1       2.757   7.254  18.762  0.00  0.00    +0.000 C 
ATOM     21  C   UNL     1       2.519   8.278  17.683  0.00  0.00    +0.000 C 
ATOM     22  C   UNL     1       1.823   8.420  19.005  0.00  0.00    +0.000 C 
ENDBRANCH  19  20
ENDBRANCH  18  19
ENDBRANCH  16  18
ENDBRANCH  13  16
ENDBRANCH   1  12
TORSDOF 6
ENDMDL
MODEL 3
REMARK VINA RESULT:      -6.7      2.488      7.092
REMARK  Name = 
REMARK  9 active torsions:
REMARK  status: ('A' for Active; 'I' for Inactive)
REMARK    1  A    between atoms: C_1  and  C_2
REMARK    2  A    between atoms: C_4  and  C_5
REMARK    3  A    between atoms: C_6  and  C_7
REMARK    4  A    between atoms: C_7  and  N_8
REMARK    5  A    between atoms: C_9  and  C_11
REMARK    6  A    between atoms: C_11  and  C_12
REMARK    7  A    between atoms: C_11  and  O_13
REMARK    8  A    between atoms: O_13  and  C_14
REMARK    9  A    between atoms: C_14  and  C_15
REMARK                            x       y       z     vdW  Elec       q    Type
REMARK                         _______ _______ _______ _____ _____    ______ ____
ROOT
ATOM      1  C   UNL     1       5.329   3.235  16.756  0.00  0.00    +0.000 C 
ENDROOT
BRANCH   1   7
ATOM      2  C   UNL     1       8.138   8.176  18.084  0.00  0.00    +0.000 C 
ATOM      3  C   UNL     1       7.426   6.923  17.671  0.00  0.00    +0.000 A 
ATOM      4  C   UNL     1       7.251   6.563  16.390  0.00  0.00    +0.000 A 
ATOM      5  C   UNL     1       6.559   5.332  16.048  0.00  0.00    +0.000 A 
ATOM      6  C   UNL     1       6.369   5.057  14.583  0.00  0.00    +0.000 C 
ATOM      7  C   UNL     1       6.116   4.493  17.013  0.00  0.00    +0.000 A 
ATOM      8  C   UNL     1       6.287   4.911  18.448  0.00  0.00    +0.000 A 
ATOM      9  O   UNL     1       5.860   4.236  19.374  0.00  0.00    +0.000 OA
ATOM     10  N   UNL     1       6.939   6.104  18.662  0.00  0.00    +0.000 N 
ATOM     11  H   UNL     1       7.043   6.372  19.634  0.00  0.00    +0.000 HD
ENDBRANCH   1   7
BRANCH   1  12
ATOM     12  N   UNL     1       3.928   3.399  17.122  0.00  0.00    +0.000 N 
ATOM     13  C   UNL     1       3.226   2.397  17.753  0.00  0.00    +0.000 C 
ATOM     14  O   UNL     1       3.774   1.383  18.185  0.00  0.00    +0.000 OA
ATOM     15  H   UNL     1       3.378   4.080  16.603  0.00  0.00    +0.000 HD
BRANCH  13  16
ATOM     16  C   UNL     1       1.710   2.663  17.956  0.00  0.00    +0.000 C 
ATOM     17  C   UNL     1       1.478   4.176  17.850  0.00  0.00    +0.000 C 
BRANCH  16  18
ATOM     18  O   UNL     1       1.213   2.143  19.194  0.00  0.00    +0.000 OA
BRANCH  18  19
ATOM     19  C   UNL     1       0.589   3.143  20.008  0.00  0.00    +0.000 C 
BRANCH  19  20
ATOM     20  C   UNL     1       1.292   3.227  21.322  0.00  0.00    +0.000 C 
ATOM     21  C   UNL     1       2.681   2.661  21.467  0.00  0.00    +0.000 C 
ATOM     22  C   UNL     1       2.480   4.148  21.492  0.00  0.00    +0.000 C 
ENDBRANCH  19  20
ENDBRANCH  18  19
ENDBRANCH  16  18
ENDBRANCH  13  16
ENDBRANCH   1  12
TORSDOF 6
ENDMDL
MODEL 4
REMARK VINA RESULT:      -6.7      2.314      6.458
REMARK  Name = 
REMARK  9 active torsions:
REMARK  status: ('A' for Active; 'I' for Inactive)
REMARK    1  A    between atoms: C_1  and  C_2
REMARK    2  A    between atoms: C_4  and  C_5
REMARK    3  A    between atoms: C_6  and  C_7
REMARK    4  A    between atoms: C_7  and  N_8
REMARK    5  A    between atoms: C_9  and  C_11
REMARK    6  A    between atoms: C_11  and  C_12
REMARK    7  A    between atoms: C_11  and  O_13
REMARK    8  A    between atoms: O_13  and  C_14
REMARK    9  A    between atoms: C_14  and  C_15
REMARK                            x       y       z     vdW  Elec       q    Type
REMARK                         _______ _______ _______ _____ _____    ______ ____
ROOT
ATOM      1  C   UNL     1       4.511   3.341  16.972  0.00  0.00    +0.000 C 
ENDROOT
BRANCH   1   7
ATOM      2  C   UNL     1       8.150   7.707  18.304  0.00  0.00    +0.000 C 
ATOM      3  C   UNL     1       7.210   6.613  17.892  0.00  0.00    +0.000 A 
ATOM      4  C   UNL     1       6.718   6.492  16.650  0.00  0.00    +0.000 A 
ATOM      5  C   UNL     1       5.817   5.406  16.306  0.00  0.00    +0.000 A 
ATOM      6  C   UNL     1       5.281   5.401  14.901  0.00  0.00    +0.000 C 
ATOM      7  C   UNL     1       5.490   4.460  17.216  0.00  0.00    +0.000 A 
ATOM      8  C   UNL     1       6.018   4.611  18.616  0.00  0.00    +0.000 A 
ATOM      9  O   UNL     1       5.719   3.832  19.509  0.00  0.00    +0.000 OA
ATOM     10  N   UNL     1       6.849   5.687  18.841  0.00  0.00    +0.000 N 
ATOM     11  H   UNL     1       7.193   5.775  19.790  0.00  0.00    +0.000 HD
ENDBRANCH   1   7
BRANCH   1  12
ATOM     12  N   UNL     1       3.465   3.318  17.985  0.00  0.00    +0.000 N 
ATOM     13  C   UNL     1       3.089   2.149  18.607  0.00  0.00    +0.000 C 
ATOM     14  O   UNL     1       3.716   1.098  18.464  0.00  0.00    +0.000 OA
ATOM     15  H   UNL     1       2.776   4.066  17.975  0.00  0.00    +0.000 HD
BRANCH  13  16
ATOM     16  C   UNL     1       1.870   2.256  19.563  0.00  0.00    +0.000 C 
ATOM     17  C   UNL     1       0.642   2.622  18.720  0.00  0.00    +0.000 C 
BRANCH  16  18
ATOM     18  O   UNL     1       2.075   3.193  20.626  0.00  0.00    +0.000 OA
BRANCH  18  19
ATOM     19  C   UNL     1       1.366   4.422  20.429  0.00  0.00    +0.000 C 
BRANCH  19  20
ATOM     20  C   UNL     1       2.329   5.562  20.435  0.00  0.00    +0.000 C 
ATOM     21  C   UNL     1       2.428   6.466  19.234  0.00  0.00    +0.000 C 
ATOM     22  C   UNL     1       1.823   6.986  20.505  0.00  0.00    +0.000 C 
ENDBRANCH  19  20
ENDBRANCH  18  19
ENDBRANCH  16  18
ENDBRANCH  13  16
ENDBRANCH   1  12
TORSDOF 6
ENDMDL
MODEL 5
REMARK VINA RESULT:      -6.7      3.997      5.882
REMARK  Name = 
REMARK  9 active torsions:
REMARK  status: ('A' for Active; 'I' for Inactive)
REMARK    1  A    between atoms: C_1  and  C_2
REMARK    2  A    between atoms: C_4  and  C_5
REMARK    3  A    between atoms: C_6  and  C_7
REMARK    4  A    between atoms: C_7  and  N_8
REMARK    5  A    between atoms: C_9  and  C_11
REMARK    6  A    between atoms: C_11  and  C_12
REMARK    7  A    between atoms: C_11  and  O_13
REMARK    8  A    between atoms: O_13  and  C_14
REMARK    9  A    between atoms: C_14  and  C_15
REMARK                            x       y       z     vdW  Elec       q    Type
REMARK                         _______ _______ _______ _____ _____    ______ ____
ROOT
ATOM      1  C   UNL     1       5.293   6.351  16.310  0.00  0.00    +0.000 C 
ENDROOT
BRANCH   1   7
ATOM      2  C   UNL     1       2.206   4.502  20.906  0.00  0.00    +0.000 C 
ATOM      3  C   UNL     1       2.956   5.039  19.724  0.00  0.00    +0.000 A 
ATOM      4  C   UNL     1       2.694   6.229  19.162  0.00  0.00    +0.000 A 
ATOM      5  C   UNL     1       3.460   6.702  18.022  0.00  0.00    +0.000 A 
ATOM      6  C   UNL     1       3.043   8.023  17.437  0.00  0.00    +0.000 C 
ATOM      7  C   UNL     1       4.491   5.977  17.528  0.00  0.00    +0.000 A 
ATOM      8  C   UNL     1       4.765   4.630  18.139  0.00  0.00    +0.000 A 
ATOM      9  O   UNL     1       5.639   3.890  17.710  0.00  0.00    +0.000 OA
ATOM     10  N   UNL     1       3.969   4.269  19.203  0.00  0.00    +0.000 N 
ATOM     11  H   UNL     1       4.166   3.358  19.600  0.00  0.00    +0.000 HD
ENDBRANCH   1   7
BRANCH   1  12
ATOM     12  N   UNL     1       5.279   5.287  15.314  0.00  0.00    +0.000 N 
ATOM     13  C   UNL     1       6.393   4.989  14.563  0.00  0.00    +0.000 C 
ATOM     14  O   UNL     1       7.495   5.486  14.797  0.00  0.00    +0.000 OA
ATOM     15  H   UNL     1       4.381   5.017  14.920  0.00  0.00    +0.000 HD
BRANCH  13  16
ATOM     16  C   UNL     1       6.189   3.926  13.450  0.00  0.00    +0.000 C 
ATOM     17  C   UNL     1       7.174   4.237  12.315  0.00  0.00    +0.000 C 
BRANCH  16  18
ATOM     18  O   UNL     1       4.840   3.870  12.972  0.00  0.00    +0.000 OA
BRANCH  18  19
ATOM     19  C   UNL     1       4.701   3.077  11.788  0.00  0.00    +0.000 C 
BRANCH  19  20
ATOM     20  C   UNL     1       3.369   3.335  11.167  0.00  0.00    +0.000 C 
ATOM     21  C   UNL     1       3.250   4.313  10.027  0.00  0.00    +0.000 C 
ATOM     22  C   UNL     1       3.075   2.846   9.766  0.00  0.00    +0.000 C 
ENDBRANCH  19  20
ENDBRANCH  18  19
ENDBRANCH  16  18
ENDBRANCH  13  16
ENDBRANCH   1  12
TORSDOF 6
ENDMDL
MODEL 6
REMARK VINA RESULT:      -6.6      2.283      7.138
REMARK  Name = 
REMARK  9 active torsions:
REMARK  status: ('A' for Active; 'I' for Inactive)
REMARK    1  A    between atoms: C_1  and  C_2
REMARK    2  A    between atoms: C_4  and  C_5
REMARK    3  A    between atoms: C_6  and  C_7
REMARK    4  A    between atoms: C_7  and  N_8
REMARK    5  A    between atoms: C_9  and  C_11
REMARK    6  A    between atoms: C_11  and  C_12
REMARK    7  A    between atoms: C_11  and  O_13
REMARK    8  A    between atoms: O_13  and  C_14
REMARK    9  A    between atoms: C_14  and  C_15
REMARK                            x       y       z     vdW  Elec       q    Type
REMARK                         _______ _______ _______ _____ _____    ______ ____
ROOT
ATOM      1  C   UNL     1       6.716   4.089  17.830  0.00  0.00    +0.000 C 
ENDROOT
BRANCH   1   7
ATOM      2  C   UNL     1       8.547   9.612  18.296  0.00  0.00    +0.000 C 
ATOM      3  C   UNL     1       8.038   8.213  18.115  0.00  0.00    +0.000 A 
ATOM      4  C   UNL     1       7.241   7.843  17.101  0.00  0.00    +0.000 A 
ATOM      5  C   UNL     1       6.784   6.471  16.972  0.00  0.00    +0.000 A 
ATOM      6  C   UNL     1       5.848   6.182  15.831  0.00  0.00    +0.000 C 
ATOM      7  C   UNL     1       7.191   5.518  17.842  0.00  0.00    +0.000 A 
ATOM      8  C   UNL     1       8.062   5.938  18.995  0.00  0.00    +0.000 A 
ATOM      9  O   UNL     1       8.421   5.149  19.857  0.00  0.00    +0.000 OA
ATOM     10  N   UNL     1       8.422   7.267  19.035  0.00  0.00    +0.000 N 
ATOM     11  H   UNL     1       9.005   7.532  19.820  0.00  0.00    +0.000 HD
ENDBRANCH   1   7
BRANCH   1  12
ATOM     12  N   UNL     1       5.283   4.006  17.583  0.00  0.00    +0.000 N 
ATOM     13  C   UNL     1       4.443   3.326  18.436  0.00  0.00    +0.000 C 
ATOM     14  O   UNL     1       4.823   2.893  19.524  0.00  0.00    +0.000 OA
ATOM     15  H   UNL     1       4.957   4.126  16.627  0.00  0.00    +0.000 HD
BRANCH  13  16
ATOM     16  C   UNL     1       2.966   3.208  17.973  0.00  0.00    +0.000 C 
ATOM     17  C   UNL     1       2.423   4.627  17.760  0.00  0.00    +0.000 C 
BRANCH  16  18
ATOM     18  O   UNL     1       2.151   2.467  18.889  0.00  0.00    +0.000 OA
BRANCH  18  19
ATOM     19  C   UNL     1       0.984   3.187  19.304  0.00  0.00    +0.000 C 
BRANCH  19  20
ATOM     20  C   UNL     1       1.006   3.362  20.785  0.00  0.00    +0.000 C 
ATOM     21  C   UNL     1       2.033   2.633  21.612  0.00  0.00    +0.000 C 
ATOM     22  C   UNL     1       2.135   4.121  21.447  0.00  0.00    +0.000 C 
ENDBRANCH  19  20
ENDBRANCH  18  19
ENDBRANCH  16  18
ENDBRANCH  13  16
ENDBRANCH   1  12
TORSDOF 6
ENDMDL
MODEL 7
REMARK VINA RESULT:      -6.6      1.806      3.522
REMARK  Name = 
REMARK  9 active torsions:
REMARK  status: ('A' for Active; 'I' for Inactive)
REMARK    1  A    between atoms: C_1  and  C_2
REMARK    2  A    between atoms: C_4  and  C_5
REMARK    3  A    between atoms: C_6  and  C_7
REMARK    4  A    between atoms: C_7  and  N_8
REMARK    5  A    between atoms: C_9  and  C_11
REMARK    6  A    between atoms: C_11  and  C_12
REMARK    7  A    between atoms: C_11  and  O_13
REMARK    8  A    between atoms: O_13  and  C_14
REMARK    9  A    between atoms: C_14  and  C_15
REMARK                            x       y       z     vdW  Elec       q    Type
REMARK                         _______ _______ _______ _____ _____    ______ ____
ROOT
ATOM      1  C   UNL     1       3.467   6.323  17.973  0.00  0.00    +0.000 C 
ENDROOT
BRANCH   1   7
ATOM      2  C   UNL     1       1.344   2.435  21.774  0.00  0.00    +0.000 C 
ATOM      3  C   UNL     1       1.857   3.488  20.837  0.00  0.00    +0.000 A 
ATOM      4  C   UNL     1       1.637   4.800  21.012  0.00  0.00    +0.000 A 
ATOM      5  C   UNL     1       2.165   5.777  20.075  0.00  0.00    +0.000 A 
ATOM      6  C   UNL     1       1.809   7.214  20.336  0.00  0.00    +0.000 C 
ATOM      7  C   UNL     1       2.935   5.392  19.031  0.00  0.00    +0.000 A 
ATOM      8  C   UNL     1       3.158   3.920  18.820  0.00  0.00    +0.000 A 
ATOM      9  O   UNL     1       3.790   3.491  17.866  0.00  0.00    +0.000 OA
ATOM     10  N   UNL     1       2.597   3.078  19.754  0.00  0.00    +0.000 N 
ATOM     11  H   UNL     1       2.754   2.089  19.594  0.00  0.00    +0.000 HD
ENDBRANCH   1   7
BRANCH   1  12
ATOM     12  N   UNL     1       4.923   6.307  17.932  0.00  0.00    +0.000 N 
ATOM     13  C   UNL     1       5.615   6.638  16.788  0.00  0.00    +0.000 C 
ATOM     14  O   UNL     1       5.059   7.116  15.799  0.00  0.00    +0.000 OA
ATOM     15  H   UNL     1       5.411   5.718  18.602  0.00  0.00    +0.000 HD
BRANCH  13  16
ATOM     16  C   UNL     1       7.154   6.443  16.853  0.00  0.00    +0.000 C 
ATOM     17  C   UNL     1       7.775   7.758  17.344  0.00  0.00    +0.000 C 
BRANCH  16  18
ATOM     18  O   UNL     1       7.718   6.032  15.603  0.00  0.00    +0.000 OA
BRANCH  18  19
ATOM     19  C   UNL     1       7.317   4.712  15.218  0.00  0.00    +0.000 C 
BRANCH  19  20
ATOM     20  C   UNL     1       6.632   4.765  13.893  0.00  0.00    +0.000 C 
ATOM     21  C   UNL     1       6.458   3.503  13.088  0.00  0.00    +0.000 C 
ATOM     22  C   UNL     1       5.260   4.150  13.720  0.00  0.00    +0.000 C 
ENDBRANCH  19  20
ENDBRANCH  18  19
ENDBRANCH  16  18
ENDBRANCH  13  16
ENDBRANCH   1  12
TORSDOF 6
ENDMDL
MODEL 8
REMARK VINA RESULT:      -6.5      1.363      2.010
REMARK  Name = 
REMARK  9 active torsions:
REMARK  status: ('A' for Active; 'I' for Inactive)
REMARK    1  A    between atoms: C_1  and  C_2
REMARK    2  A    between atoms: C_4  and  C_5
REMARK    3  A    between atoms: C_6  and  C_7
REMARK    4  A    between atoms: C_7  and  N_8
REMARK    5  A    between atoms: C_9  and  C_11
REMARK    6  A    between atoms: C_11  and  C_12
REMARK    7  A    between atoms: C_11  and  O_13
REMARK    8  A    between atoms: O_13  and  C_14
REMARK    9  A    between atoms: C_14  and  C_15
REMARK                            x       y       z     vdW  Elec       q    Type
REMARK                         _______ _______ _______ _____ _____    ______ ____
ROOT
ATOM      1  C   UNL     1       3.296   6.495  17.544  0.00  0.00    +0.000 C 
ENDROOT
BRANCH   1   7
ATOM      2  C   UNL     1       1.636   2.837  21.779  0.00  0.00    +0.000 C 
ATOM      3  C   UNL     1       2.076   3.717  20.648  0.00  0.00    +0.000 A 
ATOM      4  C   UNL     1       2.463   3.245  19.453  0.00  0.00    +0.000 A 
ATOM      5  C   UNL     1       2.873   4.146  18.390  0.00  0.00    +0.000 A 
ATOM      6  C   UNL     1       3.342   3.505  17.114  0.00  0.00    +0.000 C 
ATOM      7  C   UNL     1       2.826   5.488  18.560  0.00  0.00    +0.000 A 
ATOM      8  C   UNL     1       2.420   6.017  19.909  0.00  0.00    +0.000 A 
ATOM      9  O   UNL     1       2.412   7.213  20.159  0.00  0.00    +0.000 OA
ATOM     10  N   UNL     1       2.070   5.077  20.852  0.00  0.00    +0.000 N 
ATOM     11  H   UNL     1       1.802   5.451  21.755  0.00  0.00    +0.000 HD
ENDBRANCH   1   7
BRANCH   1  12
ATOM     12  N   UNL     1       4.671   6.906  17.797  0.00  0.00    +0.000 N 
ATOM     13  C   UNL     1       5.658   6.740  16.852  0.00  0.00    +0.000 C 
ATOM     14  O   UNL     1       5.410   6.390  15.698  0.00  0.00    +0.000 OA
ATOM     15  H   UNL     1       4.976   6.973  18.765  0.00  0.00    +0.000 HD
BRANCH  13  16
ATOM     16  C   UNL     1       7.097   7.098  17.313  0.00  0.00    +0.000 C 
ATOM     17  C   UNL     1       7.461   6.174  18.482  0.00  0.00    +0.000 C 
BRANCH  16  18
ATOM     18  O   UNL     1       7.242   8.477  17.670  0.00  0.00    +0.000 OA
BRANCH  18  19
ATOM     19  C   UNL     1       8.579   8.815  18.055  0.00  0.00    +0.000 C 
BRANCH  19  20
ATOM     20  C   UNL     1       8.643  10.259  18.426  0.00  0.00    +0.000 C 
ATOM     21  C   UNL     1       9.438  10.690  19.631  0.00  0.00    +0.000 C 
ATOM     22  C   UNL     1       9.932  11.033  18.256  0.00  0.00    +0.000 C 
ENDBRANCH  19  20
ENDBRANCH  18  19
ENDBRANCH  16  18
ENDBRANCH  13  16
ENDBRANCH   1  12
TORSDOF 6
ENDMDL
MODEL 9
REMARK VINA RESULT:      -6.5      2.888      4.098
REMARK  Name = 
REMARK  9 active torsions:
REMARK  status: ('A' for Active; 'I' for Inactive)
REMARK    1  A    between atoms: C_1  and  C_2
REMARK    2  A    between atoms: C_4  and  C_5
REMARK    3  A    between atoms: C_6  and  C_7
REMARK    4  A    between atoms: C_7  and  N_8
REMARK    5  A    between atoms: C_9  and  C_11
REMARK    6  A    between atoms: C_11  and  C_12
REMARK    7  A    between atoms: C_11  and  O_13
REMARK    8  A    between atoms: O_13  and  C_14
REMARK    9  A    between atoms: C_14  and  C_15
REMARK                            x       y       z     vdW  Elec       q    Type
REMARK                         _______ _______ _______ _____ _____    ______ ____
ROOT
ATOM      1  C   UNL     1       2.904   5.003  17.448  0.00  0.00    +0.000 C 
ENDROOT
BRANCH   1   7
ATOM      2  C   UNL     1       1.126   2.266  22.287  0.00  0.00    +0.000 C 
ATOM      3  C   UNL     1       1.580   3.034  21.082  0.00  0.00    +0.000 A 
ATOM      4  C   UNL     1       1.775   4.361  21.083  0.00  0.00    +0.000 A 
ATOM      5  C   UNL     1       2.223   5.052  19.886  0.00  0.00    +0.000 A 
ATOM      6  C   UNL     1       2.354   6.546  19.986  0.00  0.00    +0.000 C 
ATOM      7  C   UNL     1       2.503   4.367  18.753  0.00  0.00    +0.000 A 
ATOM      8  C   UNL     1       2.256   2.884  18.743  0.00  0.00    +0.000 A 
ATOM      9  O   UNL     1       2.427   2.206  17.740  0.00  0.00    +0.000 OA
ATOM     10  N   UNL     1       1.813   2.331  19.924  0.00  0.00    +0.000 N 
ATOM     11  H   UNL     1       1.649   1.331  19.898  0.00  0.00    +0.000 HD
ENDBRANCH   1   7
BRANCH   1  12
ATOM     12  N   UNL     1       4.182   4.487  16.974  0.00  0.00    +0.000 N 
ATOM     13  C   UNL     1       5.349   5.201  17.127  0.00  0.00    +0.000 C 
ATOM     14  O   UNL     1       5.406   6.227  17.806  0.00  0.00    +0.000 OA
ATOM     15  H   UNL     1       4.168   3.796  16.228  0.00  0.00    +0.000 HD
BRANCH  13  16
ATOM     16  C   UNL     1       6.606   4.588  16.453  0.00  0.00    +0.000 C 
ATOM     17  C   UNL     1       7.732   4.561  17.493  0.00  0.00    +0.000 C 
BRANCH  16  18
ATOM     18  O   UNL     1       7.003   5.291  15.269  0.00  0.00    +0.000 OA
BRANCH  18  19
ATOM     19  C   UNL     1       6.085   5.115  14.184  0.00  0.00    +0.000 C 
BRANCH  19  20
ATOM     20  C   UNL     1       6.340   3.803  13.520  0.00  0.00    +0.000 C 
ATOM     21  C   UNL     1       5.454   3.350  12.389  0.00  0.00    +0.000 C 
ATOM     22  C   UNL     1       6.871   3.756  12.105  0.00  0.00    +0.000 C 
ENDBRANCH  19  20
ENDBRANCH  18  19
ENDBRANCH  16  18
ENDBRANCH  13  16
ENDBRANCH   1  12
TORSDOF 6
ENDMDL
