MODEL 1
REMARK VINA RESULT:      -6.7      0.000      0.000
REMARK  Name = 
REMARK  9 active torsions:
REMARK  status: ('A' for Active; 'I' for Inactive)
REMARK    1  A    between atoms: C_1  and  O_2
REMARK    2  A    between atoms: O_2  and  C_3
REMARK    3  A    between atoms: C_6  and  C_7
REMARK    4  A    between atoms: C_8  and  C_9
REMARK    5  A    between atoms: C_11  and  N_12
REMARK    6  A    between atoms: N_14  and  C_15
REMARK    7  A    between atoms: N_14  and  C_16
REMARK    8  A    between atoms: C_20  and  C_21
REMARK    9  A    between atoms: N_23  and  C_24
REMARK                            x       y       z     vdW  Elec       q    Type
REMARK                         _______ _______ _______ _____ _____    ______ ____
ROOT
ATOM      1  C   UNL     1      -0.328  11.872  18.873  0.00  0.00    +0.000 C 
ATOM      2  C   UNL     1      -0.284  12.760  20.103  0.00  0.00    +0.000 C 
ATOM      3  C   UNL     1      -1.374  13.332  20.668  0.00  0.00    +0.000 C 
ATOM      4  O   UNL     1      -2.665  13.094  20.144  0.00  0.00    +0.000 OA
ATOM      5  C   UNL     1      -2.767  12.142  19.206  0.00  0.00    +0.000 A 
ATOM      6  C   UNL     1      -1.731  11.474  18.588  0.00  0.00    +0.000 A 
ATOM      7  C   UNL     1      -2.351  10.514  17.763  0.00  0.00    +0.000 A 
ATOM      8  C   UNL     1      -1.764   9.486  16.866  0.00  0.00    +0.000 C 
ATOM      9  N   UNL     1      -3.682  10.578  17.867  0.00  0.00    +0.000 NA
ATOM     10  N   UNL     1      -3.943  11.642  18.679  0.00  0.00    +0.000 N 
ENDROOT
BRANCH   1  14
ATOM     11  C   UNL     1       1.951   8.202  19.238  0.00  0.00    +0.000 A 
ATOM     12  C   UNL     1       2.095   9.004  18.106  0.00  0.00    +0.000 A 
ATOM     13  C   UNL     1       1.389  10.201  17.983  0.00  0.00    +0.000 A 
ATOM     14  C   UNL     1       0.507  10.610  18.992  0.00  0.00    +0.000 A 
ATOM     15  C   UNL     1       0.349   9.782  20.122  0.00  0.00    +0.000 A 
ATOM     16  C   UNL     1       1.073   8.592  20.248  0.00  0.00    +0.000 A 
BRANCH  11  18
ATOM     17  C   UNL     1       3.384   6.766  18.020  0.00  0.00    +0.000 C 
ATOM     18  O   UNL     1       2.678   7.045  19.221  0.00  0.00    +0.000 OA
ENDBRANCH  11  18
ENDBRANCH   1  14
BRANCH  10  19
ATOM     19  C   UNL     1      -5.283  12.097  18.819  0.00  0.00    +0.000 A 
ATOM     20  C   UNL     1      -5.931  12.633  17.691  0.00  0.00    +0.000 A 
ATOM     21  C   UNL     1      -7.214  13.165  17.799  0.00  0.00    +0.000 A 
ATOM     22  C   UNL     1      -7.861  13.170  19.032  0.00  0.00    +0.000 A 
ATOM     23  C   UNL     1      -7.231  12.629  20.153  0.00  0.00    +0.000 A 
ATOM     24  C   UNL     1      -5.947  12.087  20.051  0.00  0.00    +0.000 A 
ENDBRANCH  10  19
BRANCH   3  25
ATOM     25  N   UNL     1      -1.206  14.192  21.730  0.00  0.00    +0.000 NA
ATOM     26  C   UNL     1      -2.047  14.156  22.709  0.00  0.00    +0.000 C 
ATOM     27  N   UNL     1      -2.014  14.970  23.826  0.00  0.00    +0.000 N 
ATOM     28  C   UNL     1      -2.915  14.752  24.948  0.00  0.00    +0.000 C 
ATOM     29  C   UNL     1      -0.859  15.809  24.123  0.00  0.00    +0.000 C 
ENDBRANCH   3  25
BRANCH   2  30
ATOM     30  C   UNL     1       1.087  12.933  20.736  0.00  0.00    +0.000 C 
ATOM     31  N   UNL     1       2.225  13.078  21.260  0.00  0.00    +0.000 NA
ENDBRANCH   2  30
TORSDOF 5
ENDMDL
MODEL 2
REMARK VINA RESULT:      -6.6      0.264      1.252
REMARK  Name = 
REMARK  9 active torsions:
REMARK  status: ('A' for Active; 'I' for Inactive)
REMARK    1  A    between atoms: C_1  and  O_2
REMARK    2  A    between atoms: O_2  and  C_3
REMARK    3  A    between atoms: C_6  and  C_7
REMARK    4  A    between atoms: C_8  and  C_9
REMARK    5  A    between atoms: C_11  and  N_12
REMARK    6  A    between atoms: N_14  and  C_15
REMARK    7  A    between atoms: N_14  and  C_16
REMARK    8  A    between atoms: C_20  and  C_21
REMARK    9  A    between atoms: N_23  and  C_24
REMARK                            x       y       z     vdW  Elec       q    Type
REMARK                         _______ _______ _______ _____ _____    ______ ____
ROOT
ATOM      1  C   UNL     1      -0.334  11.880  18.905  0.00  0.00    +0.000 C 
ATOM      2  C   UNL     1      -0.244  12.764  20.135  0.00  0.00    +0.000 C 
ATOM      3  C   UNL     1      -1.304  13.387  20.703  0.00  0.00    +0.000 C 
ATOM      4  O   UNL     1      -2.606  13.212  20.183  0.00  0.00    +0.000 OA
ATOM      5  C   UNL     1      -2.756  12.267  19.245  0.00  0.00    +0.000 A 
ATOM      6  C   UNL     1      -1.756  11.550  18.623  0.00  0.00    +0.000 A 
ATOM      7  C   UNL     1      -2.424  10.622  17.799  0.00  0.00    +0.000 A 
ATOM      8  C   UNL     1      -1.889   9.568  16.900  0.00  0.00    +0.000 C 
ATOM      9  N   UNL     1      -3.749  10.751  17.906  0.00  0.00    +0.000 NA
ATOM     10  N   UNL     1      -3.956  11.825  18.720  0.00  0.00    +0.000 N 
ENDROOT
BRANCH   1  14
ATOM     11  C   UNL     1       1.983   8.229  19.217  0.00  0.00    +0.000 A 
ATOM     12  C   UNL     1       1.082   8.574  20.225  0.00  0.00    +0.000 A 
ATOM     13  C   UNL     1       0.310   9.731  20.129  0.00  0.00    +0.000 A 
ATOM     14  C   UNL     1       0.439  10.579  19.021  0.00  0.00    +0.000 A 
ATOM     15  C   UNL     1       1.369  10.237  18.018  0.00  0.00    +0.000 A 
ATOM     16  C   UNL     1       2.128   9.065  18.112  0.00  0.00    +0.000 A 
BRANCH  11  18
ATOM     17  C   UNL     1       2.578   6.066  18.464  0.00  0.00    +0.000 C 
ATOM     18  O   UNL     1       2.695   7.086  19.447  0.00  0.00    +0.000 OA
ENDBRANCH  11  18
ENDBRANCH   1  14
BRANCH  10  19
ATOM     19  C   UNL     1      -5.273  12.344  18.864  0.00  0.00    +0.000 A 
ATOM     20  C   UNL     1      -5.829  12.413  20.155  0.00  0.00    +0.000 A 
ATOM     21  C   UNL     1      -7.144  12.837  20.336  0.00  0.00    +0.000 A 
ATOM     22  C   UNL     1      -7.916  13.193  19.233  0.00  0.00    +0.000 A 
ATOM     23  C   UNL     1      -7.368  13.138  17.951  0.00  0.00    +0.000 A 
ATOM     24  C   UNL     1      -6.048  12.720  17.762  0.00  0.00    +0.000 A 
ENDBRANCH  10  19
BRANCH   3  25
ATOM     25  N   UNL     1      -1.091  14.237  21.766  0.00  0.00    +0.000 NA
ATOM     26  C   UNL     1      -1.932  14.243  22.746  0.00  0.00    +0.000 C 
ATOM     27  N   UNL     1      -1.858  15.053  23.863  0.00  0.00    +0.000 N 
ATOM     28  C   UNL     1      -2.767  14.879  24.986  0.00  0.00    +0.000 C 
ATOM     29  C   UNL     1      -0.662  15.833  24.159  0.00  0.00    +0.000 C 
ENDBRANCH   3  25
BRANCH   2  30
ATOM     30  C   UNL     1       1.135  12.870  20.765  0.00  0.00    +0.000 C 
ATOM     31  N   UNL     1       2.280  12.959  21.286  0.00  0.00    +0.000 NA
ENDBRANCH   2  30
TORSDOF 5
ENDMDL
MODEL 3
REMARK VINA RESULT:      -6.5      0.687      1.105
REMARK  Name = 
REMARK  9 active torsions:
REMARK  status: ('A' for Active; 'I' for Inactive)
REMARK    1  A    between atoms: C_1  and  O_2
REMARK    2  A    between atoms: O_2  and  C_3
REMARK    3  A    between atoms: C_6  and  C_7
REMARK    4  A    between atoms: C_8  and  C_9
REMARK    5  A    between atoms: C_11  and  N_12
REMARK    6  A    between atoms: N_14  and  C_15
REMARK    7  A    between atoms: N_14  and  C_16
REMARK    8  A    between atoms: C_20  and  C_21
REMARK    9  A    between atoms: N_23  and  C_24
REMARK                            x       y       z     vdW  Elec       q    Type
REMARK                         _______ _______ _______ _____ _____    ______ ____
ROOT
ATOM      1  C   UNL     1      -0.265  11.994  18.922  0.00  0.00    +0.000 C 
ATOM      2  C   UNL     1      -0.167  12.861  20.163  0.00  0.00    +0.000 C 
ATOM      3  C   UNL     1      -1.229  13.441  20.772  0.00  0.00    +0.000 C 
ATOM      4  O   UNL     1      -2.539  13.231  20.287  0.00  0.00    +0.000 OA
ATOM      5  C   UNL     1      -2.687  12.296  19.339  0.00  0.00    +0.000 A 
ATOM      6  C   UNL     1      -1.683  11.622  18.677  0.00  0.00    +0.000 A 
ATOM      7  C   UNL     1      -2.345  10.684  17.859  0.00  0.00    +0.000 A 
ATOM      8  C   UNL     1      -1.803   9.662  16.928  0.00  0.00    +0.000 C 
ATOM      9  N   UNL     1      -3.670  10.768  18.007  0.00  0.00    +0.000 NA
ATOM     10  N   UNL     1      -3.887  11.822  18.843  0.00  0.00    +0.000 N 
ENDROOT
BRANCH   1  14
ATOM     11  C   UNL     1       1.965   8.282  19.151  0.00  0.00    +0.000 A 
ATOM     12  C   UNL     1       2.131   9.131  18.057  0.00  0.00    +0.000 A 
ATOM     13  C   UNL     1       1.441  10.341  17.979  0.00  0.00    +0.000 A 
ATOM     14  C   UNL     1       0.553  10.717  18.995  0.00  0.00    +0.000 A 
ATOM     15  C   UNL     1       0.373   9.843  20.087  0.00  0.00    +0.000 A 
ATOM     16  C   UNL     1       1.081   8.639  20.168  0.00  0.00    +0.000 A 
BRANCH  11  18
ATOM     17  C   UNL     1       2.268   6.085  19.976  0.00  0.00    +0.000 C 
ATOM     18  O   UNL     1       2.678   7.118  19.091  0.00  0.00    +0.000 OA
ENDBRANCH  11  18
ENDBRANCH   1  14
BRANCH  10  19
ATOM     19  C   UNL     1      -5.215  12.296  19.034  0.00  0.00    +0.000 A 
ATOM     20  C   UNL     1      -5.757  12.268  20.332  0.00  0.00    +0.000 A 
ATOM     21  C   UNL     1      -7.081  12.644  20.553  0.00  0.00    +0.000 A 
ATOM     22  C   UNL     1      -7.875  13.049  19.484  0.00  0.00    +0.000 A 
ATOM     23  C   UNL     1      -7.341  13.091  18.196  0.00  0.00    +0.000 A 
ATOM     24  C   UNL     1      -6.013  12.721  17.966  0.00  0.00    +0.000 A 
ENDBRANCH  10  19
BRANCH   3  25
ATOM     25  N   UNL     1      -1.012  14.283  21.841  0.00  0.00    +0.000 NA
ATOM     26  C   UNL     1      -1.968  15.056  22.238  0.00  0.00    +0.000 C 
ATOM     27  N   UNL     1      -1.888  15.961  23.278  0.00  0.00    +0.000 N 
ATOM     28  C   UNL     1      -3.064  16.679  23.749  0.00  0.00    +0.000 C 
ATOM     29  C   UNL     1      -0.760  15.961  24.203  0.00  0.00    +0.000 C 
ENDBRANCH   3  25
BRANCH   2  30
ATOM     30  C   UNL     1       1.227  13.004  20.753  0.00  0.00    +0.000 C 
ATOM     31  N   UNL     1       2.383  13.122  21.244  0.00  0.00    +0.000 NA
ENDBRANCH   2  30
TORSDOF 5
ENDMDL
MODEL 4
REMARK VINA RESULT:      -6.4      0.748      1.280
REMARK  Name = 
REMARK  9 active torsions:
REMARK  status: ('A' for Active; 'I' for Inactive)
REMARK    1  A    between atoms: C_1  and  O_2
REMARK    2  A    between atoms: O_2  and  C_3
REMARK    3  A    between atoms: C_6  and  C_7
REMARK    4  A    between atoms: C_8  and  C_9
REMARK    5  A    between atoms: C_11  and  N_12
REMARK    6  A    between atoms: N_14  and  C_15
REMARK    7  A    between atoms: N_14  and  C_16
REMARK    8  A    between atoms: C_20  and  C_21
REMARK    9  A    between atoms: N_23  and  C_24
REMARK                            x       y       z     vdW  Elec       q    Type
REMARK                         _______ _______ _______ _____ _____    ______ ____
ROOT
ATOM      1  C   UNL     1      -0.417  11.870  18.824  0.00  0.00    +0.000 C 
ATOM      2  C   UNL     1      -0.342  12.743  20.063  0.00  0.00    +0.000 C 
ATOM      3  C   UNL     1      -1.413  13.337  20.641  0.00  0.00    +0.000 C 
ATOM      4  O   UNL     1      -2.712  13.138  20.123  0.00  0.00    +0.000 OA
ATOM      5  C   UNL     1      -2.846  12.199  19.177  0.00  0.00    +0.000 A 
ATOM      6  C   UNL     1      -1.832  11.511  18.545  0.00  0.00    +0.000 A 
ATOM      7  C   UNL     1      -2.482  10.576  17.714  0.00  0.00    +0.000 A 
ATOM      8  C   UNL     1      -1.928   9.543  16.803  0.00  0.00    +0.000 C 
ATOM      9  N   UNL     1      -3.810  10.674  17.828  0.00  0.00    +0.000 NA
ATOM     10  N   UNL     1      -4.038  11.736  18.653  0.00  0.00    +0.000 N 
ENDROOT
BRANCH   1  14
ATOM     11  C   UNL     1       1.981   8.267  19.090  0.00  0.00    +0.000 A 
ATOM     12  C   UNL     1       1.099   8.597  20.119  0.00  0.00    +0.000 A 
ATOM     13  C   UNL     1       0.301   9.739  20.039  0.00  0.00    +0.000 A 
ATOM     14  C   UNL     1       0.386  10.585  18.925  0.00  0.00    +0.000 A 
ATOM     15  C   UNL     1       1.296  10.258  17.901  0.00  0.00    +0.000 A 
ATOM     16  C   UNL     1       2.081   9.102  17.979  0.00  0.00    +0.000 A 
BRANCH  11  18
ATOM     17  C   UNL     1       2.651   6.140  18.298  0.00  0.00    +0.000 C 
ATOM     18  O   UNL     1       2.722   7.140  19.306  0.00  0.00    +0.000 OA
ENDBRANCH  11  18
ENDBRANCH   1  14
BRANCH  10  19
ATOM     19  C   UNL     1      -5.365  12.224  18.807  0.00  0.00    +0.000 A 
ATOM     20  C   UNL     1      -6.045  12.686  17.666  0.00  0.00    +0.000 A 
ATOM     21  C   UNL     1      -7.316  13.248  17.780  0.00  0.00    +0.000 A 
ATOM     22  C   UNL     1      -7.917  13.356  19.031  0.00  0.00    +0.000 A 
ATOM     23  C   UNL     1      -7.253  12.888  20.165  0.00  0.00    +0.000 A 
ATOM     24  C   UNL     1      -5.982  12.318  20.059  0.00  0.00    +0.000 A 
ENDBRANCH  10  19
BRANCH   3  25
ATOM     25  N   UNL     1      -1.215  14.182  21.710  0.00  0.00    +0.000 NA
ATOM     26  C   UNL     1      -1.398  15.451  21.553  0.00  0.00    +0.000 C 
ATOM     27  N   UNL     1      -1.218  16.416  22.526  0.00  0.00    +0.000 N 
ATOM     28  C   UNL     1      -1.596  17.802  22.297  0.00  0.00    +0.000 C 
ATOM     29  C   UNL     1      -1.027  16.057  23.927  0.00  0.00    +0.000 C 
ENDBRANCH   3  25
BRANCH   2  30
ATOM     30  C   UNL     1       1.037  12.874  20.688  0.00  0.00    +0.000 C 
ATOM     31  N   UNL     1       2.182  12.983  21.206  0.00  0.00    +0.000 NA
ENDBRANCH   2  30
TORSDOF 5
ENDMDL
MODEL 5
REMARK VINA RESULT:      -6.2      3.197      7.636
REMARK  Name = 
REMARK  9 active torsions:
REMARK  status: ('A' for Active; 'I' for Inactive)
REMARK    1  A    between atoms: C_1  and  O_2
REMARK    2  A    between atoms: O_2  and  C_3
REMARK    3  A    between atoms: C_6  and  C_7
REMARK    4  A    between atoms: C_8  and  C_9
REMARK    5  A    between atoms: C_11  and  N_12
REMARK    6  A    between atoms: N_14  and  C_15
REMARK    7  A    between atoms: N_14  and  C_16
REMARK    8  A    between atoms: C_20  and  C_21
REMARK    9  A    between atoms: N_23  and  C_24
REMARK                            x       y       z     vdW  Elec       q    Type
REMARK                         _______ _______ _______ _____ _____    ______ ____
ROOT
ATOM      1  C   UNL     1       0.074  13.537  22.101  0.00  0.00    +0.000 C 
ATOM      2  C   UNL     1       0.755  14.330  21.001  0.00  0.00    +0.000 C 
ATOM      3  C   UNL     1       1.416  13.772  19.958  0.00  0.00    +0.000 C 
ATOM      4  O   UNL     1       1.479  12.369  19.814  0.00  0.00    +0.000 OA
ATOM      5  C   UNL     1       0.704  11.644  20.633  0.00  0.00    +0.000 A 
ATOM      6  C   UNL     1      -0.034  12.110  21.701  0.00  0.00    +0.000 A 
ATOM      7  C   UNL     1      -0.745  10.988  22.174  0.00  0.00    +0.000 A 
ATOM      8  C   UNL     1      -1.717  10.861  23.289  0.00  0.00    +0.000 C 
ATOM      9  N   UNL     1      -0.471   9.902  21.446  0.00  0.00    +0.000 NA
ATOM     10  N   UNL     1       0.493  10.281  20.559  0.00  0.00    +0.000 N 
ENDROOT
BRANCH   1  14
ATOM     11  C   UNL     1      -3.944  14.856  23.059  0.00  0.00    +0.000 A 
ATOM     12  C   UNL     1      -2.954  14.858  24.041  0.00  0.00    +0.000 A 
ATOM     13  C   UNL     1      -1.650  14.462  23.745  0.00  0.00    +0.000 A 
ATOM     14  C   UNL     1      -1.316  14.036  22.453  0.00  0.00    +0.000 A 
ATOM     15  C   UNL     1      -2.327  14.013  21.470  0.00  0.00    +0.000 A 
ATOM     16  C   UNL     1      -3.629  14.429  21.770  0.00  0.00    +0.000 A 
BRANCH  11  18
ATOM     17  C   UNL     1      -6.282  14.505  22.970  0.00  0.00    +0.000 C 
ATOM     18  O   UNL     1      -5.182  15.241  23.487  0.00  0.00    +0.000 OA
ENDBRANCH  11  18
ENDBRANCH   1  14
BRANCH  10  19
ATOM     19  C   UNL     1       1.145   9.287  19.775  0.00  0.00    +0.000 A 
ATOM     20  C   UNL     1       1.602   8.122  20.417  0.00  0.00    +0.000 A 
ATOM     21  C   UNL     1       2.317   7.159  19.706  0.00  0.00    +0.000 A 
ATOM     22  C   UNL     1       2.584   7.351  18.354  0.00  0.00    +0.000 A 
ATOM     23  C   UNL     1       2.123   8.498  17.708  0.00  0.00    +0.000 A 
ATOM     24  C   UNL     1       1.400   9.466  18.412  0.00  0.00    +0.000 A 
ENDBRANCH  10  19
BRANCH   3  25
ATOM     25  N   UNL     1       2.073  14.591  19.066  0.00  0.00    +0.000 NA
ATOM     26  C   UNL     1       3.340  14.426  18.876  0.00  0.00    +0.000 C 
ATOM     27  N   UNL     1       4.130  15.182  18.031  0.00  0.00    +0.000 N 
ATOM     28  C   UNL     1       5.516  14.824  17.768  0.00  0.00    +0.000 C 
ATOM     29  C   UNL     1       3.545  16.111  17.070  0.00  0.00    +0.000 C 
ENDBRANCH   3  25
BRANCH   2  30
ATOM     30  C   UNL     1       0.599  15.839  21.090  0.00  0.00    +0.000 C 
ATOM     31  N   UNL     1       0.469  17.092  21.164  0.00  0.00    +0.000 NA
ENDBRANCH   2  30
TORSDOF 5
ENDMDL
MODEL 6
REMARK VINA RESULT:      -6.2      2.832      7.162
REMARK  Name = 
REMARK  9 active torsions:
REMARK  status: ('A' for Active; 'I' for Inactive)
REMARK    1  A    between atoms: C_1  and  O_2
REMARK    2  A    between atoms: O_2  and  C_3
REMARK    3  A    between atoms: C_6  and  C_7
REMARK    4  A    between atoms: C_8  and  C_9
REMARK    5  A    between atoms: C_11  and  N_12
REMARK    6  A    between atoms: N_14  and  C_15
REMARK    7  A    between atoms: N_14  and  C_16
REMARK    8  A    between atoms: C_20  and  C_21
REMARK    9  A    between atoms: N_23  and  C_24
REMARK                            x       y       z     vdW  Elec       q    Type
REMARK                         _______ _______ _______ _____ _____    ______ ____
ROOT
ATOM      1  C   UNL     1      -3.358  13.372  22.265  0.00  0.00    +0.000 C 
ATOM      2  C   UNL     1      -1.867  13.597  22.099  0.00  0.00    +0.000 C 
ATOM      3  C   UNL     1      -1.144  13.155  21.042  0.00  0.00    +0.000 C 
ATOM      4  O   UNL     1      -1.769  12.467  19.979  0.00  0.00    +0.000 OA
ATOM      5  C   UNL     1      -3.109  12.449  19.980  0.00  0.00    +0.000 A 
ATOM      6  C   UNL     1      -3.943  12.898  20.983  0.00  0.00    +0.000 A 
ATOM      7  C   UNL     1      -5.248  12.753  20.471  0.00  0.00    +0.000 A 
ATOM      8  C   UNL     1      -6.564  13.083  21.073  0.00  0.00    +0.000 C 
ATOM      9  N   UNL     1      -5.225  12.254  19.231  0.00  0.00    +0.000 NA
ATOM     10  N   UNL     1      -3.917  11.975  18.964  0.00  0.00    +0.000 N 
ENDROOT
BRANCH   1  14
ATOM     11  C   UNL     1      -5.601  16.901  23.410  0.00  0.00    +0.000 A 
ATOM     12  C   UNL     1      -5.619  15.767  24.223  0.00  0.00    +0.000 A 
ATOM     13  C   UNL     1      -4.883  14.632  23.883  0.00  0.00    +0.000 A 
ATOM     14  C   UNL     1      -4.124  14.607  22.706  0.00  0.00    +0.000 A 
ATOM     15  C   UNL     1      -4.130  15.747  21.877  0.00  0.00    +0.000 A 
ATOM     16  C   UNL     1      -4.856  16.889  22.232  0.00  0.00    +0.000 A 
BRANCH  11  18
ATOM     17  C   UNL     1      -7.437  18.330  22.974  0.00  0.00    +0.000 C 
ATOM     18  O   UNL     1      -6.385  17.933  23.843  0.00  0.00    +0.000 OA
ENDBRANCH  11  18
ENDBRANCH   1  14
BRANCH  10  19
ATOM     19  C   UNL     1      -3.590  11.239  17.792  0.00  0.00    +0.000 A 
ATOM     20  C   UNL     1      -2.512  10.337  17.846  0.00  0.00    +0.000 A 
ATOM     21  C   UNL     1      -2.103   9.655  16.702  0.00  0.00    +0.000 A 
ATOM     22  C   UNL     1      -2.763   9.867  15.495  0.00  0.00    +0.000 A 
ATOM     23  C   UNL     1      -3.841  10.750  15.436  0.00  0.00    +0.000 A 
ATOM     24  C   UNL     1      -4.262  11.434  16.580  0.00  0.00    +0.000 A 
ENDBRANCH  10  19
BRANCH   3  25
ATOM     25  N   UNL     1       0.221  13.339  21.040  0.00  0.00    +0.000 NA
ATOM     26  C   UNL     1       0.870  13.234  19.928  0.00  0.00    +0.000 C 
ATOM     27  N   UNL     1       2.236  13.372  19.778  0.00  0.00    +0.000 N 
ATOM     28  C   UNL     1       2.857  13.387  18.462  0.00  0.00    +0.000 C 
ATOM     29  C   UNL     1       3.070  13.898  20.854  0.00  0.00    +0.000 C 
ENDBRANCH   3  25
BRANCH   2  30
ATOM     30  C   UNL     1      -1.206  14.430  23.185  0.00  0.00    +0.000 C 
ATOM     31  N   UNL     1      -0.658  15.120  24.087  0.00  0.00    +0.000 NA
ENDBRANCH   2  30
TORSDOF 5
ENDMDL
MODEL 7
REMARK VINA RESULT:      -6.2      3.160      7.573
REMARK  Name = 
REMARK  9 active torsions:
REMARK  status: ('A' for Active; 'I' for Inactive)
REMARK    1  A    between atoms: C_1  and  O_2
REMARK    2  A    between atoms: O_2  and  C_3
REMARK    3  A    between atoms: C_6  and  C_7
REMARK    4  A    between atoms: C_8  and  C_9
REMARK    5  A    between atoms: C_11  and  N_12
REMARK    6  A    between atoms: N_14  and  C_15
REMARK    7  A    between atoms: N_14  and  C_16
REMARK    8  A    between atoms: C_20  and  C_21
REMARK    9  A    between atoms: N_23  and  C_24
REMARK                            x       y       z     vdW  Elec       q    Type
REMARK                         _______ _______ _______ _____ _____    ______ ____
ROOT
ATOM      1  C   UNL     1       0.026  13.528  22.076  0.00  0.00    +0.000 C 
ATOM      2  C   UNL     1       0.717  14.313  20.977  0.00  0.00    +0.000 C 
ATOM      3  C   UNL     1       1.417  13.748  19.964  0.00  0.00    +0.000 C 
ATOM      4  O   UNL     1       1.515  12.343  19.853  0.00  0.00    +0.000 OA
ATOM      5  C   UNL     1       0.735  11.619  20.667  0.00  0.00    +0.000 A 
ATOM      6  C   UNL     1      -0.041  12.091  21.705  0.00  0.00    +0.000 A 
ATOM      7  C   UNL     1      -0.739  10.964  22.185  0.00  0.00    +0.000 A 
ATOM      8  C   UNL     1      -1.737  10.839  23.277  0.00  0.00    +0.000 C 
ATOM      9  N   UNL     1      -0.422   9.869  21.488  0.00  0.00    +0.000 NA
ATOM     10  N   UNL     1       0.556  10.250  20.617  0.00  0.00    +0.000 N 
ENDROOT
BRANCH   1  14
ATOM     11  C   UNL     1      -3.950  14.993  22.996  0.00  0.00    +0.000 A 
ATOM     12  C   UNL     1      -3.652  14.540  21.710  0.00  0.00    +0.000 A 
ATOM     13  C   UNL     1      -2.386  14.042  21.403  0.00  0.00    +0.000 A 
ATOM     14  C   UNL     1      -1.384  14.003  22.382  0.00  0.00    +0.000 A 
ATOM     15  C   UNL     1      -1.685  14.485  23.672  0.00  0.00    +0.000 A 
ATOM     16  C   UNL     1      -2.962  14.968  23.978  0.00  0.00    +0.000 A 
BRANCH  11  18
ATOM     17  C   UNL     1      -6.165  15.099  22.168  0.00  0.00    +0.000 C 
ATOM     18  O   UNL     1      -5.217  15.480  23.156  0.00  0.00    +0.000 OA
ENDBRANCH  11  18
ENDBRANCH   1  14
BRANCH  10  19
ATOM     19  C   UNL     1       1.249   9.255  19.873  0.00  0.00    +0.000 A 
ATOM     20  C   UNL     1       1.437   9.459  18.494  0.00  0.00    +0.000 A 
ATOM     21  C   UNL     1       2.037   8.476  17.709  0.00  0.00    +0.000 A 
ATOM     22  C   UNL     1       2.453   7.282  18.292  0.00  0.00    +0.000 A 
ATOM     23  C   UNL     1       2.282   7.077  19.661  0.00  0.00    +0.000 A 
ATOM     24  C   UNL     1       1.686   8.061  20.456  0.00  0.00    +0.000 A 
ENDBRANCH  10  19
BRANCH   3  25
ATOM     25  N   UNL     1       2.079  14.562  19.071  0.00  0.00    +0.000 NA
ATOM     26  C   UNL     1       3.348  14.399  18.891  0.00  0.00    +0.000 C 
ATOM     27  N   UNL     1       4.142  15.150  18.047  0.00  0.00    +0.000 N 
ATOM     28  C   UNL     1       5.531  14.794  17.796  0.00  0.00    +0.000 C 
ATOM     29  C   UNL     1       3.562  16.071  17.075  0.00  0.00    +0.000 C 
ENDBRANCH   3  25
BRANCH   2  30
ATOM     30  C   UNL     1       0.525  15.820  21.029  0.00  0.00    +0.000 C 
ATOM     31  N   UNL     1       0.367  17.070  21.072  0.00  0.00    +0.000 NA
ENDBRANCH   2  30
TORSDOF 5
ENDMDL
MODEL 8
REMARK VINA RESULT:      -6.1      2.826      7.037
REMARK  Name = 
REMARK  9 active torsions:
REMARK  status: ('A' for Active; 'I' for Inactive)
REMARK    1  A    between atoms: C_1  and  O_2
REMARK    2  A    between atoms: O_2  and  C_3
REMARK    3  A    between atoms: C_6  and  C_7
REMARK    4  A    between atoms: C_8  and  C_9
REMARK    5  A    between atoms: C_11  and  N_12
REMARK    6  A    between atoms: N_14  and  C_15
REMARK    7  A    between atoms: N_14  and  C_16
REMARK    8  A    between atoms: C_20  and  C_21
REMARK    9  A    between atoms: N_23  and  C_24
REMARK                            x       y       z     vdW  Elec       q    Type
REMARK                         _______ _______ _______ _____ _____    ______ ____
ROOT
ATOM      1  C   UNL     1      -3.412  13.236  22.144  0.00  0.00    +0.000 C 
ATOM      2  C   UNL     1      -1.921  13.502  22.048  0.00  0.00    +0.000 C 
ATOM      3  C   UNL     1      -1.142  13.102  21.015  0.00  0.00    +0.000 C 
ATOM      4  O   UNL     1      -1.704  12.423  19.911  0.00  0.00    +0.000 OA
ATOM      5  C   UNL     1      -3.041  12.372  19.853  0.00  0.00    +0.000 A 
ATOM      6  C   UNL     1      -3.928  12.777  20.828  0.00  0.00    +0.000 A 
ATOM      7  C   UNL     1      -5.206  12.612  20.257  0.00  0.00    +0.000 A 
ATOM      8  C   UNL     1      -6.555  12.895  20.808  0.00  0.00    +0.000 C 
ATOM      9  N   UNL     1      -5.118  12.141  19.009  0.00  0.00    +0.000 NA
ATOM     10  N   UNL     1      -3.793  11.901  18.793  0.00  0.00    +0.000 N 
ENDROOT
BRANCH   1  14
ATOM     11  C   UNL     1      -5.690  16.668  23.498  0.00  0.00    +0.000 A 
ATOM     12  C   UNL     1      -4.893  16.764  22.358  0.00  0.00    +0.000 A 
ATOM     13  C   UNL     1      -4.174  15.663  21.893  0.00  0.00    +0.000 A 
ATOM     14  C   UNL     1      -4.227  14.442  22.577  0.00  0.00    +0.000 A 
ATOM     15  C   UNL     1      -5.015  14.359  23.743  0.00  0.00    +0.000 A 
ATOM     16  C   UNL     1      -5.749  15.462  24.194  0.00  0.00    +0.000 A 
BRANCH  11  18
ATOM     17  C   UNL     1      -7.227  18.369  22.910  0.00  0.00    +0.000 C 
ATOM     18  O   UNL     1      -6.321  17.824  23.860  0.00  0.00    +0.000 OA
ENDBRANCH  11  18
ENDBRANCH   1  14
BRANCH  10  19
ATOM     19  C   UNL     1      -3.396  11.199  17.621  0.00  0.00    +0.000 A 
ATOM     20  C   UNL     1      -4.134  11.398  16.440  0.00  0.00    +0.000 A 
ATOM     21  C   UNL     1      -3.834  10.671  15.289  0.00  0.00    +0.000 A 
ATOM     22  C   UNL     1      -2.799   9.740  15.306  0.00  0.00    +0.000 A 
ATOM     23  C   UNL     1      -2.055   9.547  16.470  0.00  0.00    +0.000 A 
ATOM     24  C   UNL     1      -2.345  10.276  17.627  0.00  0.00    +0.000 A 
ENDBRANCH  10  19
BRANCH   3  25
ATOM     25  N   UNL     1       0.217  13.320  21.076  0.00  0.00    +0.000 NA
ATOM     26  C   UNL     1       0.904  13.328  19.982  0.00  0.00    +0.000 C 
ATOM     27  N   UNL     1       2.270  13.513  19.892  0.00  0.00    +0.000 N 
ATOM     28  C   UNL     1       2.932  13.658  18.604  0.00  0.00    +0.000 C 
ATOM     29  C   UNL     1       3.053  13.964  21.037  0.00  0.00    +0.000 C 
ENDBRANCH   3  25
BRANCH   2  30
ATOM     30  C   UNL     1      -1.329  14.327  23.180  0.00  0.00    +0.000 C 
ATOM     31  N   UNL     1      -0.839  15.011  24.119  0.00  0.00    +0.000 NA
ENDBRANCH   2  30
TORSDOF 5
ENDMDL
MODEL 9
REMARK VINA RESULT:      -6.0      1.144      1.514
REMARK  Name = 
REMARK  9 active torsions:
REMARK  status: ('A' for Active; 'I' for Inactive)
REMARK    1  A    between atoms: C_1  and  O_2
REMARK    2  A    between atoms: O_2  and  C_3
REMARK    3  A    between atoms: C_6  and  C_7
REMARK    4  A    between atoms: C_8  and  C_9
REMARK    5  A    between atoms: C_11  and  N_12
REMARK    6  A    between atoms: N_14  and  C_15
REMARK    7  A    between atoms: N_14  and  C_16
REMARK    8  A    between atoms: C_20  and  C_21
REMARK    9  A    between atoms: N_23  and  C_24
REMARK                            x       y       z     vdW  Elec       q    Type
REMARK                         _______ _______ _______ _____ _____    ______ ____
ROOT
ATOM      1  C   UNL     1      -0.665  12.479  19.307  0.00  0.00    +0.000 C 
ATOM      2  C   UNL     1      -0.347  13.377  20.489  0.00  0.00    +0.000 C 
ATOM      3  C   UNL     1      -1.281  14.035  21.216  0.00  0.00    +0.000 C 
ATOM      4  O   UNL     1      -2.656  13.887  20.926  0.00  0.00    +0.000 OA
ATOM      5  C   UNL     1      -2.985  12.934  20.044  0.00  0.00    +0.000 A 
ATOM      6  C   UNL     1      -2.121  12.183  19.275  0.00  0.00    +0.000 A 
ATOM      7  C   UNL     1      -2.940  11.261  18.592  0.00  0.00    +0.000 A 
ATOM      8  C   UNL     1      -2.589  10.181  17.635  0.00  0.00    +0.000 C 
ATOM      9  N   UNL     1      -4.225  11.426  18.919  0.00  0.00    +0.000 NA
ATOM     10  N   UNL     1      -4.266  12.516  19.737  0.00  0.00    +0.000 N 
ENDROOT
BRANCH   1  14
ATOM     11  C   UNL     1       1.588   8.774  19.302  0.00  0.00    +0.000 A 
ATOM     12  C   UNL     1       0.797   9.110  20.401  0.00  0.00    +0.000 A 
ATOM     13  C   UNL     1       0.046  10.285  20.409  0.00  0.00    +0.000 A 
ATOM     14  C   UNL     1       0.087  11.160  19.315  0.00  0.00    +0.000 A 
ATOM     15  C   UNL     1       0.906  10.826  18.218  0.00  0.00    +0.000 A 
ATOM     16  C   UNL     1       1.644   9.637  18.209  0.00  0.00    +0.000 A 
BRANCH  11  18
ATOM     17  C   UNL     1       2.920   7.122  18.255  0.00  0.00    +0.000 C 
ATOM     18  O   UNL     1       2.292   7.611  19.432  0.00  0.00    +0.000 OA
ENDBRANCH  11  18
ENDBRANCH   1  14
BRANCH  10  19
ATOM     19  C   UNL     1      -5.527  13.071  20.091  0.00  0.00    +0.000 A 
ATOM     20  C   UNL     1      -5.971  14.217  19.406  0.00  0.00    +0.000 A 
ATOM     21  C   UNL     1      -7.161  14.843  19.774  0.00  0.00    +0.000 A 
ATOM     22  C   UNL     1      -7.916  14.335  20.827  0.00  0.00    +0.000 A 
ATOM     23  C   UNL     1      -7.488  13.191  21.503  0.00  0.00    +0.000 A 
ATOM     24  C   UNL     1      -6.300  12.554  21.136  0.00  0.00    +0.000 A 
ENDBRANCH  10  19
BRANCH   3  25
ATOM     25  N   UNL     1      -0.872  14.895  22.212  0.00  0.00    +0.000 NA
ATOM     26  C   UNL     1      -1.602  15.026  23.270  0.00  0.00    +0.000 C 
ATOM     27  N   UNL     1      -1.329  15.861  24.336  0.00  0.00    +0.000 N 
ATOM     28  C   UNL     1      -2.130  15.827  25.550  0.00  0.00    +0.000 C 
ATOM     29  C   UNL     1      -0.033  16.517  24.475  0.00  0.00    +0.000 C 
ENDBRANCH   3  25
BRANCH   2  30
ATOM     30  C   UNL     1       1.120  13.456  20.875  0.00  0.00    +0.000 C 
ATOM     31  N   UNL     1       2.338  13.522  21.196  0.00  0.00    +0.000 NA
ENDBRANCH   2  30
TORSDOF 5
ENDMDL
