MODEL 1
REMARK VINA RESULT:      -7.6      0.000      0.000
REMARK  Name = 
REMARK  8 active torsions:
REMARK  status: ('A' for Active; 'I' for Inactive)
REMARK    1  A    between atoms: N_6  and  C_7
REMARK    2  A    between atoms: C_9  and  O_10
REMARK    3  A    between atoms: C_11  and  C_12
REMARK    4  A    between atoms: C_12  and  O_13
REMARK    5  A    between atoms: O_13  and  P_14
REMARK    6  A    between atoms: P_14  and  O_16
REMARK    7  A    between atoms: P_14  and  O_17
REMARK    8  A    between atoms: C_20  and  C_21
REMARK                            x       y       z     vdW  Elec       q    Type
REMARK                         _______ _______ _______ _____ _____    ______ ____
ROOT
ATOM      1  C   UNL     1       2.164   4.449  17.834  0.00  0.00    +0.000 C 
ATOM      2  C   UNL     1       2.293   2.928  17.775  0.00  0.00    +0.000 C 
ATOM      3  C   UNL     1       1.411   2.462  18.905  0.00  0.00    +0.000 C 
ATOM      4  C   UNL     1       1.602   3.550  19.948  0.00  0.00    +0.000 C 
ATOM      5  O   UNL     1       1.846   4.771  19.206  0.00  0.00    +0.000 OA
ENDROOT
BRANCH   1  11
ATOM      6  O   UNL     1       6.696   7.274  16.604  0.00  0.00    +0.000 OA
ATOM      7  C   UNL     1       5.683   6.620  16.807  0.00  0.00    +0.000 A 
ATOM      8  N   UNL     1       4.593   7.193  17.398  0.00  0.00    +0.000 N 
ATOM      9  C   UNL     1       3.456   6.550  17.811  0.00  0.00    +0.000 A 
ATOM     10  O   UNL     1       2.646   7.149  18.511  0.00  0.00    +0.000 OA
ATOM     11  N   UNL     1       3.329   5.230  17.389  0.00  0.00    +0.000 N 
ATOM     12  C   UNL     1       4.397   4.586  16.775  0.00  0.00    +0.000 A 
ATOM     13  C   UNL     1       5.552   5.197  16.474  0.00  0.00    +0.000 A 
ATOM     14  H   UNL     1       4.686   8.156  17.685  0.00  0.00    +0.000 HD
BRANCH  13  15
ATOM     15  C   UNL     1       6.715   4.501  15.866  0.00  0.00    +0.000 C 
ATOM     16  F   UNL     1       7.291   5.101  14.800  0.00  0.00    +0.000 F 
ATOM     17  F   UNL     1       7.702   4.319  16.785  0.00  0.00    +0.000 F 
ATOM     18  F   UNL     1       6.361   3.249  15.455  0.00  0.00    +0.000 F 
ENDBRANCH  13  15
ENDBRANCH   1  11
BRANCH   3  19
ATOM     19  O   UNL     1       0.054   2.407  18.459  0.00  0.00    +0.000 OA
ATOM     20  H   UNL     1      -0.495   1.997  19.150  0.00  0.00    +0.000 HD
ENDBRANCH   3  19
BRANCH   4  21
ATOM     21  C   UNL     1       2.787   3.269  20.875  0.00  0.00    +0.000 C 
BRANCH  21  22
ATOM     22  O   UNL     1       3.200   1.926  20.669  0.00  0.00    +0.000 OA
BRANCH  22  23
ATOM     23  P   UNL     1       4.753   1.674  20.397  0.00  0.00    +0.000 P 
ATOM     24  O   UNL     1       5.586   1.251  21.552  0.00  0.00    +0.000 OA
BRANCH  23  25
ATOM     25  O   UNL     1       4.693   0.635  19.187  0.00  0.00    +0.000 OA
ATOM     26  H   UNL     1       3.797   0.264  19.094  0.00  0.00    +0.000 HD
ENDBRANCH  23  25
BRANCH  23  27
ATOM     27  O   UNL     1       5.225   3.005  19.656  0.00  0.00    +0.000 OA
ATOM     28  H   UNL     1       5.062   3.787  20.213  0.00  0.00    +0.000 HD
ENDBRANCH  23  27
ENDBRANCH  22  23
ENDBRANCH  21  22
ENDBRANCH   4  21
TORSDOF 8
ENDMDL
MODEL 2
REMARK VINA RESULT:      -7.6      3.337      5.673
REMARK  Name = 
REMARK  8 active torsions:
REMARK  status: ('A' for Active; 'I' for Inactive)
REMARK    1  A    between atoms: N_6  and  C_7
REMARK    2  A    between atoms: C_9  and  O_10
REMARK    3  A    between atoms: C_11  and  C_12
REMARK    4  A    between atoms: C_12  and  O_13
REMARK    5  A    between atoms: O_13  and  P_14
REMARK    6  A    between atoms: P_14  and  O_16
REMARK    7  A    between atoms: P_14  and  O_17
REMARK    8  A    between atoms: C_20  and  C_21
REMARK                            x       y       z     vdW  Elec       q    Type
REMARK                         _______ _______ _______ _____ _____    ______ ____
ROOT
ATOM      1  C   UNL     1       5.594   6.168  18.630  0.00  0.00    +0.000 C 
ATOM      2  C   UNL     1       6.628   5.421  19.473  0.00  0.00    +0.000 C 
ATOM      3  C   UNL     1       7.935   5.782  18.815  0.00  0.00    +0.000 C 
ATOM      4  C   UNL     1       7.557   5.869  17.345  0.00  0.00    +0.000 C 
ATOM      5  O   UNL     1       6.179   6.316  17.317  0.00  0.00    +0.000 OA
ENDROOT
BRANCH   1  11
ATOM      6  O   UNL     1       0.707   3.845  17.764  0.00  0.00    +0.000 OA
ATOM      7  C   UNL     1       1.801   4.326  18.022  0.00  0.00    +0.000 A 
ATOM      8  N   UNL     1       2.001   5.676  17.949  0.00  0.00    +0.000 N 
ATOM      9  C   UNL     1       3.198   6.331  18.071  0.00  0.00    +0.000 A 
ATOM     10  O   UNL     1       3.265   7.521  17.778  0.00  0.00    +0.000 OA
ATOM     11  N   UNL     1       4.260   5.555  18.522  0.00  0.00    +0.000 N 
ATOM     12  C   UNL     1       4.126   4.176  18.628  0.00  0.00    +0.000 A 
ATOM     13  C   UNL     1       2.974   3.528  18.398  0.00  0.00    +0.000 A 
ATOM     14  H   UNL     1       1.220   6.234  17.637  0.00  0.00    +0.000 HD
BRANCH  13  15
ATOM     15  C   UNL     1       2.837   2.050  18.457  0.00  0.00    +0.000 C 
ATOM     16  F   UNL     1       1.885   1.564  19.285  0.00  0.00    +0.000 F 
ATOM     17  F   UNL     1       2.571   1.541  17.223  0.00  0.00    +0.000 F 
ATOM     18  F   UNL     1       4.012   1.477  18.846  0.00  0.00    +0.000 F 
ENDBRANCH  13  15
ENDBRANCH   1  11
BRANCH   3  19
ATOM     19  O   UNL     1       8.384   7.046  19.309  0.00  0.00    +0.000 OA
ATOM     20  H   UNL     1       8.960   7.465  18.644  0.00  0.00    +0.000 HD
ENDBRANCH   3  19
BRANCH   4  21
ATOM     21  C   UNL     1       7.673   4.520  16.632  0.00  0.00    +0.000 C 
BRANCH  21  22
ATOM     22  O   UNL     1       7.511   4.741  15.239  0.00  0.00    +0.000 OA
BRANCH  22  23
ATOM     23  P   UNL     1       6.199   4.144  14.553  0.00  0.00    +0.000 P 
ATOM     24  O   UNL     1       6.301   3.740  13.126  0.00  0.00    +0.000 OA
BRANCH  23  25
ATOM     25  O   UNL     1       5.824   2.970  15.565  0.00  0.00    +0.000 OA
ATOM     26  H   UNL     1       6.627   2.539  15.909  0.00  0.00    +0.000 HD
ENDBRANCH  23  25
BRANCH  23  27
ATOM     27  O   UNL     1       5.077   5.228  14.884  0.00  0.00    +0.000 OA
ATOM     28  H   UNL     1       5.261   5.669  15.732  0.00  0.00    +0.000 HD
ENDBRANCH  23  27
ENDBRANCH  22  23
ENDBRANCH  21  22
ENDBRANCH   4  21
TORSDOF 8
ENDMDL
MODEL 3
REMARK VINA RESULT:      -7.6      3.479      5.097
REMARK  Name = 
REMARK  8 active torsions:
REMARK  status: ('A' for Active; 'I' for Inactive)
REMARK    1  A    between atoms: N_6  and  C_7
REMARK    2  A    between atoms: C_9  and  O_10
REMARK    3  A    between atoms: C_11  and  C_12
REMARK    4  A    between atoms: C_12  and  O_13
REMARK    5  A    between atoms: O_13  and  P_14
REMARK    6  A    between atoms: P_14  and  O_16
REMARK    7  A    between atoms: P_14  and  O_17
REMARK    8  A    between atoms: C_20  and  C_21
REMARK                            x       y       z     vdW  Elec       q    Type
REMARK                         _______ _______ _______ _____ _____    ______ ____
ROOT
ATOM      1  C   UNL     1       3.226   3.849  19.158  0.00  0.00    +0.000 C 
ATOM      2  C   UNL     1       2.477   2.946  18.178  0.00  0.00    +0.000 C 
ATOM      3  C   UNL     1       3.585   2.199  17.481  0.00  0.00    +0.000 C 
ATOM      4  C   UNL     1       4.693   3.237  17.406  0.00  0.00    +0.000 C 
ATOM      5  O   UNL     1       4.531   4.073  18.578  0.00  0.00    +0.000 OA
ENDROOT
BRANCH   1  11
ATOM      6  O   UNL     1       1.288   8.777  20.568  0.00  0.00    +0.000 OA
ATOM      7  C   UNL     1       1.677   7.680  20.192  0.00  0.00    +0.000 A 
ATOM      8  N   UNL     1       1.658   6.608  21.040  0.00  0.00    +0.000 N 
ATOM      9  C   UNL     1       2.190   5.369  20.800  0.00  0.00    +0.000 A 
ATOM     10  O   UNL     1       2.285   4.566  21.723  0.00  0.00    +0.000 OA
ATOM     11  N   UNL     1       2.593   5.135  19.489  0.00  0.00    +0.000 N 
ATOM     12  C   UNL     1       2.631   6.178  18.571  0.00  0.00    +0.000 A 
ATOM     13  C   UNL     1       2.210   7.421  18.850  0.00  0.00    +0.000 A 
ATOM     14  H   UNL     1       1.347   6.782  21.984  0.00  0.00    +0.000 HD
BRANCH  13  15
ATOM     15  C   UNL     1       2.297   8.552  17.891  0.00  0.00    +0.000 C 
ATOM     16  F   UNL     1       2.866   9.690  18.348  0.00  0.00    +0.000 F 
ATOM     17  F   UNL     1       2.997   8.190  16.781  0.00  0.00    +0.000 F 
ATOM     18  F   UNL     1       1.054   8.897  17.445  0.00  0.00    +0.000 F 
ENDBRANCH  13  15
ENDBRANCH   1  11
BRANCH   3  19
ATOM     19  O   UNL     1       3.979   1.079  18.277  0.00  0.00    +0.000 OA
ATOM     20  H   UNL     1       4.747   0.645  17.864  0.00  0.00    +0.000 HD
ENDBRANCH   3  19
BRANCH   4  21
ATOM     21  C   UNL     1       4.601   4.098  16.145  0.00  0.00    +0.000 C 
BRANCH  21  22
ATOM     22  O   UNL     1       5.832   3.990  15.446  0.00  0.00    +0.000 OA
BRANCH  22  23
ATOM     23  P   UNL     1       7.018   4.958  15.899  0.00  0.00    +0.000 P 
ATOM     24  O   UNL     1       7.967   4.440  16.918  0.00  0.00    +0.000 OA
BRANCH  23  25
ATOM     25  O   UNL     1       7.670   5.333  14.493  0.00  0.00    +0.000 OA
ATOM     26  H   UNL     1       8.417   4.740  14.288  0.00  0.00    +0.000 HD
ENDBRANCH  23  25
BRANCH  23  27
ATOM     27  O   UNL     1       6.269   6.314  16.280  0.00  0.00    +0.000 OA
ATOM     28  H   UNL     1       6.212   6.905  15.509  0.00  0.00    +0.000 HD
ENDBRANCH  23  27
ENDBRANCH  22  23
ENDBRANCH  21  22
ENDBRANCH   4  21
TORSDOF 8
ENDMDL
MODEL 4
REMARK VINA RESULT:      -7.3      3.430      5.735
REMARK  Name = 
REMARK  8 active torsions:
REMARK  status: ('A' for Active; 'I' for Inactive)
REMARK    1  A    between atoms: N_6  and  C_7
REMARK    2  A    between atoms: C_9  and  O_10
REMARK    3  A    between atoms: C_11  and  C_12
REMARK    4  A    between atoms: C_12  and  O_13
REMARK    5  A    between atoms: O_13  and  P_14
REMARK    6  A    between atoms: P_14  and  O_16
REMARK    7  A    between atoms: P_14  and  O_17
REMARK    8  A    between atoms: C_20  and  C_21
REMARK                            x       y       z     vdW  Elec       q    Type
REMARK                         _______ _______ _______ _____ _____    ______ ____
ROOT
ATOM      1  C   UNL     1       5.578   6.091  18.682  0.00  0.00    +0.000 C 
ATOM      2  C   UNL     1       6.604   5.343  19.531  0.00  0.00    +0.000 C 
ATOM      3  C   UNL     1       7.916   5.695  18.878  0.00  0.00    +0.000 C 
ATOM      4  C   UNL     1       7.545   5.778  17.406  0.00  0.00    +0.000 C 
ATOM      5  O   UNL     1       6.169   6.231  17.370  0.00  0.00    +0.000 OA
ENDROOT
BRANCH   1  11
ATOM      6  O   UNL     1       0.679   3.797  17.802  0.00  0.00    +0.000 OA
ATOM      7  C   UNL     1       1.777   4.271  18.063  0.00  0.00    +0.000 A 
ATOM      8  N   UNL     1       1.980   5.621  18.007  0.00  0.00    +0.000 N 
ATOM      9  C   UNL     1       3.180   6.270  18.134  0.00  0.00    +0.000 A 
ATOM     10  O   UNL     1       3.250   7.464  17.857  0.00  0.00    +0.000 OA
ATOM     11  N   UNL     1       4.242   5.485  18.571  0.00  0.00    +0.000 N 
ATOM     12  C   UNL     1       4.103   4.105  18.658  0.00  0.00    +0.000 A 
ATOM     13  C   UNL     1       2.948   3.464  18.423  0.00  0.00    +0.000 A 
ATOM     14  H   UNL     1       1.200   6.186  17.707  0.00  0.00    +0.000 HD
BRANCH  13  15
ATOM     15  C   UNL     1       2.806   1.986  18.462  0.00  0.00    +0.000 C 
ATOM     16  F   UNL     1       3.915   1.279  18.774  0.00  0.00    +0.000 F 
ATOM     17  F   UNL     1       1.850   1.617  19.358  0.00  0.00    +0.000 F 
ATOM     18  F   UNL     1       2.379   1.515  17.255  0.00  0.00    +0.000 F 
ENDBRANCH  13  15
ENDBRANCH   1  11
BRANCH   3  19
ATOM     19  O   UNL     1       8.369   6.959  19.368  0.00  0.00    +0.000 OA
ATOM     20  H   UNL     1       8.275   6.980  20.338  0.00  0.00    +0.000 HD
ENDBRANCH   3  19
BRANCH   4  21
ATOM     21  C   UNL     1       7.657   4.426  16.699  0.00  0.00    +0.000 C 
BRANCH  21  22
ATOM     22  O   UNL     1       6.444   4.190  16.001  0.00  0.00    +0.000 OA
BRANCH  22  23
ATOM     23  P   UNL     1       6.363   4.691  14.487  0.00  0.00    +0.000 P 
ATOM     24  O   UNL     1       5.917   3.707  13.467  0.00  0.00    +0.000 OA
BRANCH  23  25
ATOM     25  O   UNL     1       5.437   5.982  14.635  0.00  0.00    +0.000 OA
ATOM     26  H   UNL     1       4.854   5.903  15.412  0.00  0.00    +0.000 HD
ENDBRANCH  23  25
BRANCH  23  27
ATOM     27  O   UNL     1       7.794   5.347  14.233  0.00  0.00    +0.000 OA
ATOM     28  H   UNL     1       8.480   4.895  14.756  0.00  0.00    +0.000 HD
ENDBRANCH  23  27
ENDBRANCH  22  23
ENDBRANCH  21  22
ENDBRANCH   4  21
TORSDOF 8
ENDMDL
MODEL 5
REMARK VINA RESULT:      -7.3      3.554      5.540
REMARK  Name = 
REMARK  8 active torsions:
REMARK  status: ('A' for Active; 'I' for Inactive)
REMARK    1  A    between atoms: N_6  and  C_7
REMARK    2  A    between atoms: C_9  and  O_10
REMARK    3  A    between atoms: C_11  and  C_12
REMARK    4  A    between atoms: C_12  and  O_13
REMARK    5  A    between atoms: O_13  and  P_14
REMARK    6  A    between atoms: P_14  and  O_16
REMARK    7  A    between atoms: P_14  and  O_17
REMARK    8  A    between atoms: C_20  and  C_21
REMARK                            x       y       z     vdW  Elec       q    Type
REMARK                         _______ _______ _______ _____ _____    ______ ____
ROOT
ATOM      1  C   UNL     1       4.536   4.181  16.397  0.00  0.00    +0.000 C 
ATOM      2  C   UNL     1       4.884   5.315  15.434  0.00  0.00    +0.000 C 
ATOM      3  C   UNL     1       6.110   4.802  14.724  0.00  0.00    +0.000 C 
ATOM      4  C   UNL     1       6.822   4.014  15.812  0.00  0.00    +0.000 C 
ATOM      5  O   UNL     1       5.777   3.492  16.669  0.00  0.00    +0.000 OA
ENDROOT
BRANCH   1  11
ATOM      6  O   UNL     1       1.730   5.736  20.840  0.00  0.00    +0.000 OA
ATOM      7  C   UNL     1       2.383   5.332  19.888  0.00  0.00    +0.000 A 
ATOM      8  N   UNL     1       3.202   6.180  19.198  0.00  0.00    +0.000 N 
ATOM      9  C   UNL     1       3.874   5.899  18.038  0.00  0.00    +0.000 A 
ATOM     10  O   UNL     1       4.407   6.813  17.415  0.00  0.00    +0.000 OA
ATOM     11  N   UNL     1       3.882   4.561  17.660  0.00  0.00    +0.000 N 
ATOM     12  C   UNL     1       3.079   3.641  18.323  0.00  0.00    +0.000 A 
ATOM     13  C   UNL     1       2.334   3.951  19.395  0.00  0.00    +0.000 A 
ATOM     14  H   UNL     1       3.205   7.146  19.489  0.00  0.00    +0.000 HD
BRANCH  13  15
ATOM     15  C   UNL     1       1.433   2.986  20.075  0.00  0.00    +0.000 C 
ATOM     16  F   UNL     1       1.591   2.849  21.411  0.00  0.00    +0.000 F 
ATOM     17  F   UNL     1       0.129   3.320  19.874  0.00  0.00    +0.000 F 
ATOM     18  F   UNL     1       1.579   1.738  19.542  0.00  0.00    +0.000 F 
ENDBRANCH  13  15
ENDBRANCH   1  11
BRANCH   3  19
ATOM     19  O   UNL     1       5.714   3.951  13.645  0.00  0.00    +0.000 OA
ATOM     20  H   UNL     1       6.502   3.515  13.274  0.00  0.00    +0.000 HD
ENDBRANCH   3  19
BRANCH   4  21
ATOM     21  C   UNL     1       7.773   4.885  16.635  0.00  0.00    +0.000 C 
BRANCH  21  22
ATOM     22  O   UNL     1       7.645   4.512  17.999  0.00  0.00    +0.000 OA
BRANCH  22  23
ATOM     23  P   UNL     1       7.686   5.683  19.084  0.00  0.00    +0.000 P 
ATOM     24  O   UNL     1       8.001   7.051  18.597  0.00  0.00    +0.000 OA
BRANCH  23  25
ATOM     25  O   UNL     1       6.256   5.520  19.772  0.00  0.00    +0.000 OA
ATOM     26  H   UNL     1       6.258   4.777  20.404  0.00  0.00    +0.000 HD
ENDBRANCH  23  25
BRANCH  23  27
ATOM     27  O   UNL     1       8.656   5.113  20.214  0.00  0.00    +0.000 OA
ATOM     28  H   UNL     1       8.949   5.825  20.810  0.00  0.00    +0.000 HD
ENDBRANCH  23  27
ENDBRANCH  22  23
ENDBRANCH  21  22
ENDBRANCH   4  21
TORSDOF 8
ENDMDL
MODEL 6
REMARK VINA RESULT:      -7.3      3.822      6.226
REMARK  Name = 
REMARK  8 active torsions:
REMARK  status: ('A' for Active; 'I' for Inactive)
REMARK    1  A    between atoms: N_6  and  C_7
REMARK    2  A    between atoms: C_9  and  O_10
REMARK    3  A    between atoms: C_11  and  C_12
REMARK    4  A    between atoms: C_12  and  O_13
REMARK    5  A    between atoms: O_13  and  P_14
REMARK    6  A    between atoms: P_14  and  O_16
REMARK    7  A    between atoms: P_14  and  O_17
REMARK    8  A    between atoms: C_20  and  C_21
REMARK                            x       y       z     vdW  Elec       q    Type
REMARK                         _______ _______ _______ _____ _____    ______ ____
ROOT
ATOM      1  C   UNL     1       5.170   5.888  17.431  0.00  0.00    +0.000 C 
ATOM      2  C   UNL     1       6.419   5.008  17.428  0.00  0.00    +0.000 C 
ATOM      3  C   UNL     1       7.005   5.244  16.060  0.00  0.00    +0.000 C 
ATOM      4  C   UNL     1       5.769   5.416  15.192  0.00  0.00    +0.000 C 
ATOM      5  O   UNL     1       4.764   6.012  16.049  0.00  0.00    +0.000 OA
ENDROOT
BRANCH   1  11
ATOM      6  O   UNL     1       0.684   4.208  20.093  0.00  0.00    +0.000 OA
ATOM      7  C   UNL     1       1.725   4.535  19.540  0.00  0.00    +0.000 A 
ATOM      8  N   UNL     1       2.068   5.853  19.430  0.00  0.00    +0.000 N 
ATOM      9  C   UNL     1       3.122   6.364  18.719  0.00  0.00    +0.000 A 
ATOM     10  O   UNL     1       3.192   7.576  18.536  0.00  0.00    +0.000 OA
ATOM     11  N   UNL     1       4.037   5.429  18.250  0.00  0.00    +0.000 N 
ATOM     12  C   UNL     1       3.757   4.070  18.336  0.00  0.00    +0.000 A 
ATOM     13  C   UNL     1       2.663   3.580  18.939  0.00  0.00    +0.000 A 
ATOM     14  H   UNL     1       1.408   6.526  19.789  0.00  0.00    +0.000 HD
BRANCH  13  15
ATOM     15  C   UNL     1       2.330   2.133  18.988  0.00  0.00    +0.000 C 
ATOM     16  F   UNL     1       1.204   1.749  18.346  0.00  0.00    +0.000 F 
ATOM     17  F   UNL     1       3.343   1.388  18.468  0.00  0.00    +0.000 F 
ATOM     18  F   UNL     1       2.195   1.718  20.280  0.00  0.00    +0.000 F 
ENDBRANCH  13  15
ENDBRANCH   1  11
BRANCH   3  19
ATOM     19  O   UNL     1       7.794   6.436  16.078  0.00  0.00    +0.000 OA
ATOM     20  H   UNL     1       7.913   6.757  15.166  0.00  0.00    +0.000 HD
ENDBRANCH   3  19
BRANCH   4  21
ATOM     21  C   UNL     1       5.251   4.085  14.643  0.00  0.00    +0.000 C 
BRANCH  21  22
ATOM     22  O   UNL     1       6.286   3.493  13.872  0.00  0.00    +0.000 OA
BRANCH  22  23
ATOM     23  P   UNL     1       6.078   3.438  12.290  0.00  0.00    +0.000 P 
ATOM     24  O   UNL     1       4.704   3.673  11.775  0.00  0.00    +0.000 OA
BRANCH  23  25
ATOM     25  O   UNL     1       7.176   4.483  11.795  0.00  0.00    +0.000 OA
ATOM     26  H   UNL     1       7.487   4.261  10.898  0.00  0.00    +0.000 HD
ENDBRANCH  23  25
BRANCH  23  27
ATOM     27  O   UNL     1       6.743   2.049  11.873  0.00  0.00    +0.000 OA
ATOM     28  H   UNL     1       7.697   2.157  11.713  0.00  0.00    +0.000 HD
ENDBRANCH  23  27
ENDBRANCH  22  23
ENDBRANCH  21  22
ENDBRANCH   4  21
TORSDOF 8
ENDMDL
MODEL 7
REMARK VINA RESULT:      -7.2      3.365      4.968
REMARK  Name = 
REMARK  8 active torsions:
REMARK  status: ('A' for Active; 'I' for Inactive)
REMARK    1  A    between atoms: N_6  and  C_7
REMARK    2  A    between atoms: C_9  and  O_10
REMARK    3  A    between atoms: C_11  and  C_12
REMARK    4  A    between atoms: C_12  and  O_13
REMARK    5  A    between atoms: O_13  and  P_14
REMARK    6  A    between atoms: P_14  and  O_16
REMARK    7  A    between atoms: P_14  and  O_17
REMARK    8  A    between atoms: C_20  and  C_21
REMARK                            x       y       z     vdW  Elec       q    Type
REMARK                         _______ _______ _______ _____ _____    ______ ____
ROOT
ATOM      1  C   UNL     1       3.120   3.635  19.191  0.00  0.00    +0.000 C 
ATOM      2  C   UNL     1       2.512   2.882  18.008  0.00  0.00    +0.000 C 
ATOM      3  C   UNL     1       3.673   2.082  17.474  0.00  0.00    +0.000 C 
ATOM      4  C   UNL     1       4.854   3.010  17.708  0.00  0.00    +0.000 C 
ATOM      5  O   UNL     1       4.528   3.772  18.897  0.00  0.00    +0.000 OA
ENDROOT
BRANCH   1  11
ATOM      6  O   UNL     1       1.386   8.656  20.537  0.00  0.00    +0.000 OA
ATOM      7  C   UNL     1       1.729   7.539  20.176  0.00  0.00    +0.000 A 
ATOM      8  N   UNL     1       1.686   6.485  21.045  0.00  0.00    +0.000 N 
ATOM      9  C   UNL     1       2.169   5.223  20.820  0.00  0.00    +0.000 A 
ATOM     10  O   UNL     1       2.252   4.435  21.757  0.00  0.00    +0.000 OA
ATOM     11  N   UNL     1       2.540   4.949  19.508  0.00  0.00    +0.000 N 
ATOM     12  C   UNL     1       2.599   5.972  18.569  0.00  0.00    +0.000 A 
ATOM     13  C   UNL     1       2.227   7.235  18.830  0.00  0.00    +0.000 A 
ATOM     14  H   UNL     1       1.398   6.688  21.990  0.00  0.00    +0.000 HD
BRANCH  13  15
ATOM     15  C   UNL     1       2.338   8.343  17.847  0.00  0.00    +0.000 C 
ATOM     16  F   UNL     1       3.054   8.091  16.728  0.00  0.00    +0.000 F 
ATOM     17  F   UNL     1       1.105   8.745  17.433  0.00  0.00    +0.000 F 
ATOM     18  F   UNL     1       2.907   9.440  18.427  0.00  0.00    +0.000 F 
ENDBRANCH  13  15
ENDBRANCH   1  11
BRANCH   3  19
ATOM     19  O   UNL     1       3.807   0.875  18.228  0.00  0.00    +0.000 OA
ATOM     20  H   UNL     1       3.836   0.117  17.617  0.00  0.00    +0.000 HD
ENDBRANCH   3  19
BRANCH   4  21
ATOM     21  C   UNL     1       5.087   3.965  16.536  0.00  0.00    +0.000 C 
BRANCH  21  22
ATOM     22  O   UNL     1       5.539   5.205  17.059  0.00  0.00    +0.000 OA
BRANCH  22  23
ATOM     23  P   UNL     1       7.116   5.457  17.081  0.00  0.00    +0.000 P 
ATOM     24  O   UNL     1       7.589   6.834  16.787  0.00  0.00    +0.000 OA
BRANCH  23  25
ATOM     25  O   UNL     1       7.501   4.900  18.525  0.00  0.00    +0.000 OA
ATOM     26  H   UNL     1       8.194   4.217  18.460  0.00  0.00    +0.000 HD
ENDBRANCH  23  25
BRANCH  23  27
ATOM     27  O   UNL     1       7.691   4.312  16.130  0.00  0.00    +0.000 OA
ATOM     28  H   UNL     1       7.218   3.474  16.273  0.00  0.00    +0.000 HD
ENDBRANCH  23  27
ENDBRANCH  22  23
ENDBRANCH  21  22
ENDBRANCH   4  21
TORSDOF 8
ENDMDL
MODEL 8
REMARK VINA RESULT:      -7.2      3.407      5.956
REMARK  Name = 
REMARK  8 active torsions:
REMARK  status: ('A' for Active; 'I' for Inactive)
REMARK    1  A    between atoms: N_6  and  C_7
REMARK    2  A    between atoms: C_9  and  O_10
REMARK    3  A    between atoms: C_11  and  C_12
REMARK    4  A    between atoms: C_12  and  O_13
REMARK    5  A    between atoms: O_13  and  P_14
REMARK    6  A    between atoms: P_14  and  O_16
REMARK    7  A    between atoms: P_14  and  O_17
REMARK    8  A    between atoms: C_20  and  C_21
REMARK                            x       y       z     vdW  Elec       q    Type
REMARK                         _______ _______ _______ _____ _____    ______ ____
ROOT
ATOM      1  C   UNL     1       5.461   5.999  19.034  0.00  0.00    +0.000 C 
ATOM      2  C   UNL     1       6.706   5.328  19.614  0.00  0.00    +0.000 C 
ATOM      3  C   UNL     1       7.799   5.750  18.666  0.00  0.00    +0.000 C 
ATOM      4  C   UNL     1       7.083   5.788  17.326  0.00  0.00    +0.000 C 
ATOM      5  O   UNL     1       5.713   6.155  17.620  0.00  0.00    +0.000 OA
ENDROOT
BRANCH   1  11
ATOM      6  O   UNL     1       0.577   3.535  19.371  0.00  0.00    +0.000 OA
ATOM      7  C   UNL     1       1.695   4.031  19.340  0.00  0.00    +0.000 A 
ATOM      8  N   UNL     1       1.874   5.357  19.616  0.00  0.00    +0.000 N 
ATOM      9  C   UNL     1       3.037   6.068  19.481  0.00  0.00    +0.000 A 
ATOM     10  O   UNL     1       3.007   7.293  19.564  0.00  0.00    +0.000 OA
ATOM     11  N   UNL     1       4.178   5.310  19.246  0.00  0.00    +0.000 N 
ATOM     12  C   UNL     1       4.072   3.952  18.965  0.00  0.00    +0.000 A 
ATOM     13  C   UNL     1       2.909   3.284  18.991  0.00  0.00    +0.000 A 
ATOM     14  H   UNL     1       1.043   5.898  19.803  0.00  0.00    +0.000 HD
BRANCH  13  15
ATOM     15  C   UNL     1       2.780   1.846  18.640  0.00  0.00    +0.000 C 
ATOM     16  F   UNL     1       1.897   1.123  19.365  0.00  0.00    +0.000 F 
ATOM     17  F   UNL     1       2.420   1.698  17.336  0.00  0.00    +0.000 F 
ATOM     18  F   UNL     1       3.984   1.215  18.762  0.00  0.00    +0.000 F 
ENDBRANCH  13  15
ENDBRANCH   1  11
BRANCH   3  19
ATOM     19  O   UNL     1       8.275   7.046  19.035  0.00  0.00    +0.000 OA
ATOM     20  H   UNL     1       8.257   7.629  18.255  0.00  0.00    +0.000 HD
ENDBRANCH   3  19
BRANCH   4  21
ATOM     21  C   UNL     1       7.109   4.435  16.612  0.00  0.00    +0.000 C 
BRANCH  21  22
ATOM     22  O   UNL     1       7.843   4.585  15.406  0.00  0.00    +0.000 OA
BRANCH  22  23
ATOM     23  P   UNL     1       7.008   4.854  14.072  0.00  0.00    +0.000 P 
ATOM     24  O   UNL     1       7.732   5.464  12.927  0.00  0.00    +0.000 OA
BRANCH  23  25
ATOM     25  O   UNL     1       6.391   3.410  13.793  0.00  0.00    +0.000 OA
ATOM     26  H   UNL     1       7.088   2.779  13.533  0.00  0.00    +0.000 HD
ENDBRANCH  23  25
BRANCH  23  27
ATOM     27  O   UNL     1       5.729   5.657  14.586  0.00  0.00    +0.000 OA
ATOM     28  H   UNL     1       4.934   5.398  14.087  0.00  0.00    +0.000 HD
ENDBRANCH  23  27
ENDBRANCH  22  23
ENDBRANCH  21  22
ENDBRANCH   4  21
TORSDOF 8
ENDMDL
MODEL 9
REMARK VINA RESULT:      -7.2      3.757      5.415
REMARK  Name = 
REMARK  8 active torsions:
REMARK  status: ('A' for Active; 'I' for Inactive)
REMARK    1  A    between atoms: N_6  and  C_7
REMARK    2  A    between atoms: C_9  and  O_10
REMARK    3  A    between atoms: C_11  and  C_12
REMARK    4  A    between atoms: C_12  and  O_13
REMARK    5  A    between atoms: O_13  and  P_14
REMARK    6  A    between atoms: P_14  and  O_16
REMARK    7  A    between atoms: P_14  and  O_17
REMARK    8  A    between atoms: C_20  and  C_21
REMARK                            x       y       z     vdW  Elec       q    Type
REMARK                         _______ _______ _______ _____ _____    ______ ____
ROOT
ATOM      1  C   UNL     1       3.122   4.234  18.984  0.00  0.00    +0.000 C 
ATOM      2  C   UNL     1       3.079   3.889  17.496  0.00  0.00    +0.000 C 
ATOM      3  C   UNL     1       4.347   3.101  17.287  0.00  0.00    +0.000 C 
ATOM      4  C   UNL     1       5.320   3.775  18.240  0.00  0.00    +0.000 C 
ATOM      5  O   UNL     1       4.520   4.251  19.351  0.00  0.00    +0.000 OA
ENDROOT
BRANCH   1  11
ATOM      6  O   UNL     1       1.143   9.060  20.665  0.00  0.00    +0.000 OA
ATOM      7  C   UNL     1       1.540   7.987  20.231  0.00  0.00    +0.000 A 
ATOM      8  N   UNL     1       1.570   6.882  21.033  0.00  0.00    +0.000 N 
ATOM      9  C   UNL     1       2.117   5.665  20.723  0.00  0.00    +0.000 A 
ATOM     10  O   UNL     1       2.260   4.826  21.608  0.00  0.00    +0.000 OA
ATOM     11  N   UNL     1       2.478   5.493  19.391  0.00  0.00    +0.000 N 
ATOM     12  C   UNL     1       2.463   6.573  18.516  0.00  0.00    +0.000 A 
ATOM     13  C   UNL     1       2.029   7.794  18.861  0.00  0.00    +0.000 A 
ATOM     14  H   UNL     1       1.290   7.010  21.994  0.00  0.00    +0.000 HD
BRANCH  13  15
ATOM     15  C   UNL     1       2.061   8.965  17.947  0.00  0.00    +0.000 C 
ATOM     16  F   UNL     1       2.599  10.103  18.440  0.00  0.00    +0.000 F 
ATOM     17  F   UNL     1       2.752   8.672  16.812  0.00  0.00    +0.000 F 
ATOM     18  F   UNL     1       0.799   9.285  17.537  0.00  0.00    +0.000 F 
ENDBRANCH  13  15
ENDBRANCH   1  11
BRANCH   3  19
ATOM     19  O   UNL     1       4.127   1.737  17.653  0.00  0.00    +0.000 OA
ATOM     20  H   UNL     1       3.375   1.687  18.270  0.00  0.00    +0.000 HD
ENDBRANCH   3  19
BRANCH   4  21
ATOM     21  C   UNL     1       6.051   4.953  17.592  0.00  0.00    +0.000 C 
BRANCH  21  22
ATOM     22  O   UNL     1       6.862   4.447  16.543  0.00  0.00    +0.000 OA
BRANCH  22  23
ATOM     23  P   UNL     1       6.512   4.917  15.058  0.00  0.00    +0.000 P 
ATOM     24  O   UNL     1       5.410   5.900  14.897  0.00  0.00    +0.000 OA
BRANCH  23  25
ATOM     25  O   UNL     1       7.939   5.406  14.540  0.00  0.00    +0.000 OA
ATOM     26  H   UNL     1       8.311   6.083  15.136  0.00  0.00    +0.000 HD
ENDBRANCH  23  25
BRANCH  23  27
ATOM     27  O   UNL     1       6.333   3.545  14.264  0.00  0.00    +0.000 OA
ATOM     28  H   UNL     1       7.093   3.384  13.677  0.00  0.00    +0.000 HD
ENDBRANCH  23  27
ENDBRANCH  22  23
ENDBRANCH  21  22
ENDBRANCH   4  21
TORSDOF 8
ENDMDL
