MODEL 1
REMARK VINA RESULT:      -8.3      0.000      0.000
REMARK  Name = 
REMARK  10 active torsions:
REMARK  status: ('A' for Active; 'I' for Inactive)
REMARK    1  A    between atoms: C_1  and  C_2
REMARK    2  A    between atoms: C_2  and  C_3
REMARK    3  A    between atoms: C_6  and  C_7
REMARK    4  A    between atoms: C_7  and  O_8
REMARK    5  A    between atoms: O_8  and  C_9
REMARK    6  A    between atoms: C_12  and  C_13
REMARK    7  A    between atoms: C_16  and  C_18
REMARK    8  A    between atoms: C_22  and  C_23
REMARK    9  A    between atoms: C_27  and  O_28
REMARK   10  A    between atoms: O_28  and  C_29
REMARK                            x       y       z     vdW  Elec       q    Type
REMARK                         _______ _______ _______ _____ _____    ______ ____
ROOT
ATOM      1  C   UNL     1      -0.769  11.008  21.218  0.00  0.00    +0.000 A 
ATOM      2  C   UNL     1      -0.472  10.162  22.309  0.00  0.00    +0.000 A 
ATOM      3  C   UNL     1       0.346   9.028  22.171  0.00  0.00    +0.000 A 
ATOM      4  C   UNL     1       0.920   8.689  20.943  0.00  0.00    +0.000 A 
ATOM      5  C   UNL     1       0.606   9.556  19.871  0.00  0.00    +0.000 A 
ATOM      6  C   UNL     1      -0.218  10.699  19.972  0.00  0.00    +0.000 A 
ENDROOT
BRANCH   4   7
ATOM      7  C   UNL     1       1.925   7.492  20.732  0.00  0.00    +0.000 C 
ATOM      8  C   UNL     1       1.451   6.013  20.713  0.00  0.00    +0.000 C 
ATOM      9  N   UNL     1       2.544   5.822  19.774  0.00  0.00    +0.000 N 
ATOM     10  C   UNL     1       3.059   4.678  19.219  0.00  0.00    +0.000 C 
ATOM     11  O   UNL     1       2.567   3.569  19.426  0.00  0.00    +0.000 OA
ATOM     12  C   UNL     1       2.465   7.196  19.309  0.00  0.00    +0.000 C 
BRANCH  10  13
ATOM     13  C   UNL     1       4.310   4.808  18.395  0.00  0.00    +0.000 A 
ATOM     14  C   UNL     1       4.313   4.373  17.076  0.00  0.00    +0.000 A 
ATOM     15  C   UNL     1       5.513   4.417  16.370  0.00  0.00    +0.000 A 
ATOM     16  C   UNL     1       6.665   4.887  16.999  0.00  0.00    +0.000 A 
ATOM     17  C   UNL     1       6.583   5.302  18.321  0.00  0.00    +0.000 A 
ATOM     18  C   UNL     1       7.782   5.819  19.055  0.00  0.00    +0.000 C 
ATOM     19  N   UNL     1       5.427   5.265  19.020  0.00  0.00    +0.000 NA
ENDBRANCH  10  13
ENDBRANCH   4   7
BRANCH   6  20
ATOM     20  O   UNL     1      -0.313  11.281  18.743  0.00  0.00    +0.000 OA
ATOM     21  C   UNL     1      -1.539  11.604  18.130  0.00  0.00    +0.000 C 
ENDBRANCH   6  20
BRANCH   1  22
ATOM     22  O   UNL     1      -1.540  12.069  21.597  0.00  0.00    +0.000 OA
BRANCH  22  23
ATOM     23  C   UNL     1      -1.874  12.154  22.974  0.00  0.00    +0.000 C 
BRANCH  23  27
ATOM     24  C   UNL     1      -6.093  12.849  23.540  0.00  0.00    +0.000 A 
ATOM     25  C   UNL     1      -5.526  12.932  22.263  0.00  0.00    +0.000 A 
ATOM     26  C   UNL     1      -4.154  12.754  22.089  0.00  0.00    +0.000 A 
ATOM     27  C   UNL     1      -3.329  12.476  23.188  0.00  0.00    +0.000 A 
ATOM     28  C   UNL     1      -3.901  12.357  24.458  0.00  0.00    +0.000 A 
ATOM     29  C   UNL     1      -5.273  12.541  24.633  0.00  0.00    +0.000 A 
BRANCH  24  31
ATOM     30  C   UNL     1      -7.913  14.549  23.898  0.00  0.00    +0.000 C 
ATOM     31  C   UNL     1      -7.568  13.079  23.734  0.00  0.00    +0.000 C 
ENDBRANCH  24  31
ENDBRANCH  23  27
ENDBRANCH  22  23
ENDBRANCH   1  22
TORSDOF 7
ENDMDL
MODEL 2
REMARK VINA RESULT:      -8.2      2.607     11.586
REMARK  Name = 
REMARK  10 active torsions:
REMARK  status: ('A' for Active; 'I' for Inactive)
REMARK    1  A    between atoms: C_1  and  C_2
REMARK    2  A    between atoms: C_2  and  C_3
REMARK    3  A    between atoms: C_6  and  C_7
REMARK    4  A    between atoms: C_7  and  O_8
REMARK    5  A    between atoms: O_8  and  C_9
REMARK    6  A    between atoms: C_12  and  C_13
REMARK    7  A    between atoms: C_16  and  C_18
REMARK    8  A    between atoms: C_22  and  C_23
REMARK    9  A    between atoms: C_27  and  O_28
REMARK   10  A    between atoms: O_28  and  C_29
REMARK                            x       y       z     vdW  Elec       q    Type
REMARK                         _______ _______ _______ _____ _____    ______ ____
ROOT
ATOM      1  C   UNL     1       3.477   5.764  18.814  0.00  0.00    +0.000 A 
ATOM      2  C   UNL     1       3.663   6.757  17.827  0.00  0.00    +0.000 A 
ATOM      3  C   UNL     1       2.966   7.977  17.858  0.00  0.00    +0.000 A 
ATOM      4  C   UNL     1       2.060   8.273  18.881  0.00  0.00    +0.000 A 
ATOM      5  C   UNL     1       1.898   7.261  19.854  0.00  0.00    +0.000 A 
ATOM      6  C   UNL     1       2.576   6.021  19.851  0.00  0.00    +0.000 A 
ENDROOT
BRANCH   4   7
ATOM      7  C   UNL     1       1.318   9.655  19.037  0.00  0.00    +0.000 C 
ATOM      8  C   UNL     1       0.046  10.003  18.215  0.00  0.00    +0.000 C 
ATOM      9  N   UNL     1      -0.332  10.771  19.391  0.00  0.00    +0.000 N 
ATOM     10  C   UNL     1      -1.376  11.635  19.598  0.00  0.00    +0.000 C 
ATOM     11  O   UNL     1      -2.240  11.838  18.745  0.00  0.00    +0.000 OA
ATOM     12  C   UNL     1       0.418   9.898  20.277  0.00  0.00    +0.000 C 
BRANCH  10  13
ATOM     13  C   UNL     1      -1.398  12.401  20.892  0.00  0.00    +0.000 A 
ATOM     14  C   UNL     1      -0.349  13.257  21.202  0.00  0.00    +0.000 A 
ATOM     15  C   UNL     1      -0.351  13.877  22.449  0.00  0.00    +0.000 A 
ATOM     16  C   UNL     1      -1.389  13.623  23.343  0.00  0.00    +0.000 A 
ATOM     17  C   UNL     1      -2.402  12.753  22.961  0.00  0.00    +0.000 A 
ATOM     18  C   UNL     1      -3.548  12.439  23.873  0.00  0.00    +0.000 C 
ATOM     19  N   UNL     1      -2.415  12.143  21.756  0.00  0.00    +0.000 NA
ENDBRANCH  10  13
ENDBRANCH   4   7
BRANCH   6  20
ATOM     20  O   UNL     1       2.162   5.291  20.925  0.00  0.00    +0.000 OA
ATOM     21  C   UNL     1       1.342   4.150  20.819  0.00  0.00    +0.000 C 
ENDBRANCH   6  20
BRANCH   1  22
ATOM     22  O   UNL     1       4.291   4.688  18.607  0.00  0.00    +0.000 OA
BRANCH  22  23
ATOM     23  C   UNL     1       5.645   4.966  18.282  0.00  0.00    +0.000 C 
BRANCH  23  27
ATOM     24  C   UNL     1       6.418   4.243  14.100  0.00  0.00    +0.000 A 
ATOM     25  C   UNL     1       5.290   3.690  14.719  0.00  0.00    +0.000 A 
ATOM     26  C   UNL     1       5.068   3.886  16.081  0.00  0.00    +0.000 A 
ATOM     27  C   UNL     1       5.962   4.649  16.845  0.00  0.00    +0.000 A 
ATOM     28  C   UNL     1       7.068   5.232  16.219  0.00  0.00    +0.000 A 
ATOM     29  C   UNL     1       7.294   5.032  14.857  0.00  0.00    +0.000 A 
BRANCH  24  31
ATOM     30  C   UNL     1       5.694   3.020  12.024  0.00  0.00    +0.000 C 
ATOM     31  C   UNL     1       6.678   4.001  12.638  0.00  0.00    +0.000 C 
ENDBRANCH  24  31
ENDBRANCH  23  27
ENDBRANCH  22  23
ENDBRANCH   1  22
TORSDOF 7
ENDMDL
MODEL 3
REMARK VINA RESULT:      -7.9      1.904      3.098
REMARK  Name = 
REMARK  10 active torsions:
REMARK  status: ('A' for Active; 'I' for Inactive)
REMARK    1  A    between atoms: C_1  and  C_2
REMARK    2  A    between atoms: C_2  and  C_3
REMARK    3  A    between atoms: C_6  and  C_7
REMARK    4  A    between atoms: C_7  and  O_8
REMARK    5  A    between atoms: O_8  and  C_9
REMARK    6  A    between atoms: C_12  and  C_13
REMARK    7  A    between atoms: C_16  and  C_18
REMARK    8  A    between atoms: C_22  and  C_23
REMARK    9  A    between atoms: C_27  and  O_28
REMARK   10  A    between atoms: O_28  and  C_29
REMARK                            x       y       z     vdW  Elec       q    Type
REMARK                         _______ _______ _______ _____ _____    ______ ____
ROOT
ATOM      1  C   UNL     1      -0.519  10.536  19.676  0.00  0.00    +0.000 A 
ATOM      2  C   UNL     1       0.175  10.234  18.483  0.00  0.00    +0.000 A 
ATOM      3  C   UNL     1       1.172   9.246  18.432  0.00  0.00    +0.000 A 
ATOM      4  C   UNL     1       1.517   8.501  19.563  0.00  0.00    +0.000 A 
ATOM      5  C   UNL     1       0.804   8.824  20.740  0.00  0.00    +0.000 A 
ATOM      6  C   UNL     1      -0.198   9.816  20.829  0.00  0.00    +0.000 A 
ENDROOT
BRANCH   4   7
ATOM      7  C   UNL     1       2.552   7.311  19.561  0.00  0.00    +0.000 C 
ATOM      8  C   UNL     1       2.113   5.838  19.789  0.00  0.00    +0.000 C 
ATOM      9  N   UNL     1       3.218   5.518  18.899  0.00  0.00    +0.000 N 
ATOM     10  C   UNL     1       3.763   4.310  18.547  0.00  0.00    +0.000 C 
ATOM     11  O   UNL     1       3.295   3.240  18.936  0.00  0.00    +0.000 OA
ATOM     12  C   UNL     1       3.110   6.793  18.209  0.00  0.00    +0.000 C 
BRANCH  10  13
ATOM     13  C   UNL     1       5.018   4.330  17.718  0.00  0.00    +0.000 A 
ATOM     14  C   UNL     1       6.235   4.621  18.321  0.00  0.00    +0.000 A 
ATOM     15  C   UNL     1       7.363   4.726  17.510  0.00  0.00    +0.000 A 
ATOM     16  C   UNL     1       7.242   4.543  16.134  0.00  0.00    +0.000 A 
ATOM     17  C   UNL     1       5.990   4.258  15.606  0.00  0.00    +0.000 A 
ATOM     18  C   UNL     1       5.791   4.048  14.136  0.00  0.00    +0.000 C 
ATOM     19  N   UNL     1       4.886   4.153  16.378  0.00  0.00    +0.000 NA
ENDBRANCH  10  13
ENDBRANCH   4   7
BRANCH   6  20
ATOM     20  O   UNL     1      -0.653   9.867  22.113  0.00  0.00    +0.000 OA
ATOM     21  C   UNL     1       0.120   9.482  23.226  0.00  0.00    +0.000 C 
ENDBRANCH   6  20
BRANCH   1  22
ATOM     22  O   UNL     1      -1.472  11.493  19.476  0.00  0.00    +0.000 OA
BRANCH  22  23
ATOM     23  C   UNL     1      -1.090  12.837  19.730  0.00  0.00    +0.000 C 
BRANCH  23  27
ATOM     24  C   UNL     1      -2.574  14.032  23.600  0.00  0.00    +0.000 A 
ATOM     25  C   UNL     1      -3.462  13.765  22.551  0.00  0.00    +0.000 A 
ATOM     26  C   UNL     1      -2.979  13.425  21.288  0.00  0.00    +0.000 A 
ATOM     27  C   UNL     1      -1.599  13.333  21.056  0.00  0.00    +0.000 A 
ATOM     28  C   UNL     1      -0.713  13.563  22.114  0.00  0.00    +0.000 A 
ATOM     29  C   UNL     1      -1.198  13.909  23.376  0.00  0.00    +0.000 A 
BRANCH  24  31
ATOM     30  C   UNL     1      -2.128  15.331  25.707  0.00  0.00    +0.000 C 
ATOM     31  C   UNL     1      -3.095  14.435  24.953  0.00  0.00    +0.000 C 
ENDBRANCH  24  31
ENDBRANCH  23  27
ENDBRANCH  22  23
ENDBRANCH   1  22
TORSDOF 7
ENDMDL
MODEL 4
REMARK VINA RESULT:      -7.9      3.082      4.965
REMARK  Name = 
REMARK  10 active torsions:
REMARK  status: ('A' for Active; 'I' for Inactive)
REMARK    1  A    between atoms: C_1  and  C_2
REMARK    2  A    between atoms: C_2  and  C_3
REMARK    3  A    between atoms: C_6  and  C_7
REMARK    4  A    between atoms: C_7  and  O_8
REMARK    5  A    between atoms: O_8  and  C_9
REMARK    6  A    between atoms: C_12  and  C_13
REMARK    7  A    between atoms: C_16  and  C_18
REMARK    8  A    between atoms: C_22  and  C_23
REMARK    9  A    between atoms: C_27  and  O_28
REMARK   10  A    between atoms: O_28  and  C_29
REMARK                            x       y       z     vdW  Elec       q    Type
REMARK                         _______ _______ _______ _____ _____    ______ ____
ROOT
ATOM      1  C   UNL     1      -0.131  10.832  19.730  0.00  0.00    +0.000 A 
ATOM      2  C   UNL     1       0.633  10.584  18.568  0.00  0.00    +0.000 A 
ATOM      3  C   UNL     1       1.533   9.509  18.484  0.00  0.00    +0.000 A 
ATOM      4  C   UNL     1       1.706   8.619  19.548  0.00  0.00    +0.000 A 
ATOM      5  C   UNL     1       0.925   8.891  20.695  0.00  0.00    +0.000 A 
ATOM      6  C   UNL     1       0.018   9.967  20.817  0.00  0.00    +0.000 A 
ENDROOT
BRANCH   4   7
ATOM      7  C   UNL     1       2.619   7.335  19.492  0.00  0.00    +0.000 C 
ATOM      8  C   UNL     1       2.024   5.900  19.525  0.00  0.00    +0.000 C 
ATOM      9  N   UNL     1       3.165   5.559  18.690  0.00  0.00    +0.000 N 
ATOM     10  C   UNL     1       3.621   4.343  18.249  0.00  0.00    +0.000 C 
ATOM     11  O   UNL     1       3.023   3.293  18.483  0.00  0.00    +0.000 OA
ATOM     12  C   UNL     1       3.238   6.901  18.137  0.00  0.00    +0.000 C 
BRANCH  10  13
ATOM     13  C   UNL     1       4.937   4.317  17.523  0.00  0.00    +0.000 A 
ATOM     14  C   UNL     1       6.109   4.598  18.213  0.00  0.00    +0.000 A 
ATOM     15  C   UNL     1       7.300   4.661  17.493  0.00  0.00    +0.000 A 
ATOM     16  C   UNL     1       7.283   4.446  16.116  0.00  0.00    +0.000 A 
ATOM     17  C   UNL     1       6.071   4.172  15.496  0.00  0.00    +0.000 A 
ATOM     18  C   UNL     1       5.984   3.929  14.021  0.00  0.00    +0.000 C 
ATOM     19  N   UNL     1       4.908   4.109  16.181  0.00  0.00    +0.000 NA
ENDBRANCH  10  13
ENDBRANCH   4   7
BRANCH   6  20
ATOM     20  O   UNL     1      -0.542   9.930  22.059  0.00  0.00    +0.000 OA
ATOM     21  C   UNL     1       0.116   9.412  23.192  0.00  0.00    +0.000 C 
ENDBRANCH   6  20
BRANCH   1  22
ATOM     22  O   UNL     1      -0.968  11.898  19.566  0.00  0.00    +0.000 OA
BRANCH  22  23
ATOM     23  C   UNL     1      -2.355  11.612  19.468  0.00  0.00    +0.000 C 
BRANCH  23  27
ATOM     24  C   UNL     1      -3.645  10.490  15.508  0.00  0.00    +0.000 A 
ATOM     25  C   UNL     1      -2.417  10.043  16.007  0.00  0.00    +0.000 A 
ATOM     26  C   UNL     1      -1.980  10.444  17.269  0.00  0.00    +0.000 A 
ATOM     27  C   UNL     1      -2.771  11.290  18.058  0.00  0.00    +0.000 A 
ATOM     28  C   UNL     1      -4.015  11.708  17.575  0.00  0.00    +0.000 A 
ATOM     29  C   UNL     1      -4.449  11.310  16.310  0.00  0.00    +0.000 A 
BRANCH  24  31
ATOM     30  C   UNL     1      -2.950   9.643  13.244  0.00  0.00    +0.000 C 
ATOM     31  C   UNL     1      -4.100  10.087  14.131  0.00  0.00    +0.000 C 
ENDBRANCH  24  31
ENDBRANCH  23  27
ENDBRANCH  22  23
ENDBRANCH   1  22
TORSDOF 7
ENDMDL
MODEL 5
REMARK VINA RESULT:      -7.8      3.248     11.714
REMARK  Name = 
REMARK  10 active torsions:
REMARK  status: ('A' for Active; 'I' for Inactive)
REMARK    1  A    between atoms: C_1  and  C_2
REMARK    2  A    between atoms: C_2  and  C_3
REMARK    3  A    between atoms: C_6  and  C_7
REMARK    4  A    between atoms: C_7  and  O_8
REMARK    5  A    between atoms: O_8  and  C_9
REMARK    6  A    between atoms: C_12  and  C_13
REMARK    7  A    between atoms: C_16  and  C_18
REMARK    8  A    between atoms: C_22  and  C_23
REMARK    9  A    between atoms: C_27  and  O_28
REMARK   10  A    between atoms: O_28  and  C_29
REMARK                            x       y       z     vdW  Elec       q    Type
REMARK                         _______ _______ _______ _____ _____    ______ ____
ROOT
ATOM      1  C   UNL     1       5.725   5.374  17.846  0.00  0.00    +0.000 A 
ATOM      2  C   UNL     1       5.231   6.568  17.273  0.00  0.00    +0.000 A 
ATOM      3  C   UNL     1       4.033   7.160  17.705  0.00  0.00    +0.000 A 
ATOM      4  C   UNL     1       3.275   6.601  18.739  0.00  0.00    +0.000 A 
ATOM      5  C   UNL     1       3.797   5.410  19.293  0.00  0.00    +0.000 A 
ATOM      6  C   UNL     1       4.993   4.782  18.878  0.00  0.00    +0.000 A 
ENDROOT
BRANCH   4   7
ATOM      7  C   UNL     1       1.977   7.260  19.344  0.00  0.00    +0.000 C 
ATOM      8  C   UNL     1       1.883   7.668  20.841  0.00  0.00    +0.000 C 
ATOM      9  N   UNL     1       1.018   8.730  20.351  0.00  0.00    +0.000 N 
ATOM     10  C   UNL     1       0.257   9.649  21.027  0.00  0.00    +0.000 C 
ATOM     11  O   UNL     1       0.264   9.731  22.256  0.00  0.00    +0.000 OA
ATOM     12  C   UNL     1       1.679   8.755  19.057  0.00  0.00    +0.000 C 
BRANCH  10  13
ATOM     13  C   UNL     1      -0.661  10.521  20.217  0.00  0.00    +0.000 A 
ATOM     14  C   UNL     1      -1.138  11.708  20.760  0.00  0.00    +0.000 A 
ATOM     15  C   UNL     1      -2.062  12.445  20.023  0.00  0.00    +0.000 A 
ATOM     16  C   UNL     1      -2.482  11.977  18.779  0.00  0.00    +0.000 A 
ATOM     17  C   UNL     1      -1.961  10.780  18.305  0.00  0.00    +0.000 A 
ATOM     18  C   UNL     1      -2.368  10.222  16.975  0.00  0.00    +0.000 C 
ATOM     19  N   UNL     1      -1.065  10.053  19.007  0.00  0.00    +0.000 NA
ENDBRANCH  10  13
ENDBRANCH   4   7
BRANCH   6  20
ATOM     20  O   UNL     1       5.175   3.652  19.617  0.00  0.00    +0.000 OA
ATOM     21  C   UNL     1       4.206   2.635  19.731  0.00  0.00    +0.000 C 
ENDBRANCH   6  20
BRANCH   1  22
ATOM     22  O   UNL     1       6.923   5.012  17.301  0.00  0.00    +0.000 OA
BRANCH  22  23
ATOM     23  C   UNL     1       7.275   5.623  16.069  0.00  0.00    +0.000 C 
BRANCH  23  27
ATOM     24  C   UNL     1       5.831   3.490  12.608  0.00  0.00    +0.000 A 
ATOM     25  C   UNL     1       5.127   3.440  13.817  0.00  0.00    +0.000 A 
ATOM     26  C   UNL     1       5.620   4.091  14.947  0.00  0.00    +0.000 A 
ATOM     27  C   UNL     1       6.819   4.815  14.883  0.00  0.00    +0.000 A 
ATOM     28  C   UNL     1       7.503   4.896  13.666  0.00  0.00    +0.000 A 
ATOM     29  C   UNL     1       7.011   4.239  12.537  0.00  0.00    +0.000 A 
BRANCH  24  31
ATOM     30  C   UNL     1       3.904   3.167  11.022  0.00  0.00    +0.000 C 
ATOM     31  C   UNL     1       5.317   2.756  11.399  0.00  0.00    +0.000 C 
ENDBRANCH  24  31
ENDBRANCH  23  27
ENDBRANCH  22  23
ENDBRANCH   1  22
TORSDOF 7
ENDMDL
MODEL 6
REMARK VINA RESULT:      -7.7      2.603     11.697
REMARK  Name = 
REMARK  10 active torsions:
REMARK  status: ('A' for Active; 'I' for Inactive)
REMARK    1  A    between atoms: C_1  and  C_2
REMARK    2  A    between atoms: C_2  and  C_3
REMARK    3  A    between atoms: C_6  and  C_7
REMARK    4  A    between atoms: C_7  and  O_8
REMARK    5  A    between atoms: O_8  and  C_9
REMARK    6  A    between atoms: C_12  and  C_13
REMARK    7  A    between atoms: C_16  and  C_18
REMARK    8  A    between atoms: C_22  and  C_23
REMARK    9  A    between atoms: C_27  and  O_28
REMARK   10  A    between atoms: O_28  and  C_29
REMARK                            x       y       z     vdW  Elec       q    Type
REMARK                         _______ _______ _______ _____ _____    ______ ____
ROOT
ATOM      1  C   UNL     1       2.684   5.946  18.805  0.00  0.00    +0.000 A 
ATOM      2  C   UNL     1       2.699   7.077  17.958  0.00  0.00    +0.000 A 
ATOM      3  C   UNL     1       2.154   8.310  18.352  0.00  0.00    +0.000 A 
ATOM      4  C   UNL     1       1.579   8.482  19.615  0.00  0.00    +0.000 A 
ATOM      5  C   UNL     1       1.582   7.334  20.440  0.00  0.00    +0.000 A 
ATOM      6  C   UNL     1       2.113   6.077  20.074  0.00  0.00    +0.000 A 
ENDROOT
BRANCH   4   7
ATOM      7  C   UNL     1       1.038   9.857  20.164  0.00  0.00    +0.000 C 
ATOM      8  C   UNL     1       0.994  11.135  19.282  0.00  0.00    +0.000 C 
ATOM      9  N   UNL     1      -0.183  11.467  20.069  0.00  0.00    +0.000 N 
ATOM     10  C   UNL     1      -0.941  12.610  20.108  0.00  0.00    +0.000 C 
ATOM     11  O   UNL     1      -0.728  13.565  19.361  0.00  0.00    +0.000 OA
ATOM     12  C   UNL     1      -0.492  10.068  20.309  0.00  0.00    +0.000 C 
BRANCH  10  13
ATOM     13  C   UNL     1      -2.012  12.696  21.160  0.00  0.00    +0.000 A 
ATOM     14  C   UNL     1      -1.666  12.618  22.502  0.00  0.00    +0.000 A 
ATOM     15  C   UNL     1      -2.689  12.604  23.447  0.00  0.00    +0.000 A 
ATOM     16  C   UNL     1      -4.016  12.665  23.026  0.00  0.00    +0.000 A 
ATOM     17  C   UNL     1      -4.283  12.740  21.666  0.00  0.00    +0.000 A 
ATOM     18  C   UNL     1      -5.686  12.811  21.146  0.00  0.00    +0.000 C 
ATOM     19  N   UNL     1      -3.302  12.754  20.737  0.00  0.00    +0.000 NA
ENDBRANCH  10  13
ENDBRANCH   4   7
BRANCH   6  20
ATOM     20  O   UNL     1       1.927   5.205  21.104  0.00  0.00    +0.000 OA
ATOM     21  C   UNL     1       1.418   3.902  20.935  0.00  0.00    +0.000 C 
ENDBRANCH   6  20
BRANCH   1  22
ATOM     22  O   UNL     1       3.310   4.877  18.231  0.00  0.00    +0.000 OA
BRANCH  22  23
ATOM     23  C   UNL     1       4.709   4.768  18.443  0.00  0.00    +0.000 C 
BRANCH  23  27
ATOM     24  C   UNL     1       6.731   4.806  14.633  0.00  0.00    +0.000 A 
ATOM     25  C   UNL     1       5.929   3.719  14.999  0.00  0.00    +0.000 A 
ATOM     26  C   UNL     1       5.314   3.687  16.250  0.00  0.00    +0.000 A 
ATOM     27  C   UNL     1       5.481   4.749  17.151  0.00  0.00    +0.000 A 
ATOM     28  C   UNL     1       6.252   5.852  16.770  0.00  0.00    +0.000 A 
ATOM     29  C   UNL     1       6.871   5.881  15.520  0.00  0.00    +0.000 A 
BRANCH  24  31
ATOM     30  C   UNL     1       6.751   3.920  12.278  0.00  0.00    +0.000 C 
ATOM     31  C   UNL     1       7.424   4.824  13.297  0.00  0.00    +0.000 C 
ENDBRANCH  24  31
ENDBRANCH  23  27
ENDBRANCH  22  23
ENDBRANCH   1  22
TORSDOF 7
ENDMDL
MODEL 7
REMARK VINA RESULT:      -7.6      1.324      2.543
REMARK  Name = 
REMARK  10 active torsions:
REMARK  status: ('A' for Active; 'I' for Inactive)
REMARK    1  A    between atoms: C_1  and  C_2
REMARK    2  A    between atoms: C_2  and  C_3
REMARK    3  A    between atoms: C_6  and  C_7
REMARK    4  A    between atoms: C_7  and  O_8
REMARK    5  A    between atoms: O_8  and  C_9
REMARK    6  A    between atoms: C_12  and  C_13
REMARK    7  A    between atoms: C_16  and  C_18
REMARK    8  A    between atoms: C_22  and  C_23
REMARK    9  A    between atoms: C_27  and  O_28
REMARK   10  A    between atoms: O_28  and  C_29
REMARK                            x       y       z     vdW  Elec       q    Type
REMARK                         _______ _______ _______ _____ _____    ______ ____
ROOT
ATOM      1  C   UNL     1      -0.312  10.873  19.921  0.00  0.00    +0.000 A 
ATOM      2  C   UNL     1       0.095  10.368  18.666  0.00  0.00    +0.000 A 
ATOM      3  C   UNL     1       0.989   9.290  18.552  0.00  0.00    +0.000 A 
ATOM      4  C   UNL     1       1.511   8.654  19.682  0.00  0.00    +0.000 A 
ATOM      5  C   UNL     1       1.082   9.180  20.922  0.00  0.00    +0.000 A 
ATOM      6  C   UNL     1       0.192  10.267  21.074  0.00  0.00    +0.000 A 
ENDROOT
BRANCH   4   7
ATOM      7  C   UNL     1       2.438   7.379  19.635  0.00  0.00    +0.000 C 
ATOM      8  C   UNL     1       1.858   5.938  19.689  0.00  0.00    +0.000 C 
ATOM      9  N   UNL     1       2.996   5.600  18.850  0.00  0.00    +0.000 N 
ATOM     10  C   UNL     1       3.462   4.384  18.420  0.00  0.00    +0.000 C 
ATOM     11  O   UNL     1       2.876   3.330  18.671  0.00  0.00    +0.000 OA
ATOM     12  C   UNL     1       3.051   6.936  18.280  0.00  0.00    +0.000 C 
BRANCH  10  13
ATOM     13  C   UNL     1       4.773   4.363  17.684  0.00  0.00    +0.000 A 
ATOM     14  C   UNL     1       5.954   4.594  18.377  0.00  0.00    +0.000 A 
ATOM     15  C   UNL     1       7.141   4.664  17.651  0.00  0.00    +0.000 A 
ATOM     16  C   UNL     1       7.112   4.505  16.267  0.00  0.00    +0.000 A 
ATOM     17  C   UNL     1       5.892   4.279  15.645  0.00  0.00    +0.000 A 
ATOM     18  C   UNL     1       5.791   4.098  14.162  0.00  0.00    +0.000 C 
ATOM     19  N   UNL     1       4.732   4.209  16.335  0.00  0.00    +0.000 NA
ENDBRANCH  10  13
ENDBRANCH   4   7
BRANCH   6  20
ATOM     20  O   UNL     1       0.020  10.511  22.404  0.00  0.00    +0.000 OA
ATOM     21  C   UNL     1       0.023   9.500  23.385  0.00  0.00    +0.000 C 
ENDBRANCH   6  20
BRANCH   1  22
ATOM     22  O   UNL     1      -1.217  11.887  19.787  0.00  0.00    +0.000 OA
BRANCH  22  23
ATOM     23  C   UNL     1      -1.449  12.691  20.934  0.00  0.00    +0.000 C 
BRANCH  23  27
ATOM     24  C   UNL     1      -5.583  12.862  22.152  0.00  0.00    +0.000 A 
ATOM     25  C   UNL     1      -4.559  12.961  23.102  0.00  0.00    +0.000 A 
ATOM     26  C   UNL     1      -3.224  12.858  22.712  0.00  0.00    +0.000 A 
ATOM     27  C   UNL     1      -2.891  12.668  21.363  0.00  0.00    +0.000 A 
ATOM     28  C   UNL     1      -3.912  12.606  20.410  0.00  0.00    +0.000 A 
ATOM     29  C   UNL     1      -5.248  12.703  20.802  0.00  0.00    +0.000 A 
BRANCH  24  31
ATOM     30  C   UNL     1      -7.181  13.170  24.071  0.00  0.00    +0.000 C 
ATOM     31  C   UNL     1      -7.025  12.935  22.578  0.00  0.00    +0.000 C 
ENDBRANCH  24  31
ENDBRANCH  23  27
ENDBRANCH  22  23
ENDBRANCH   1  22
TORSDOF 7
ENDMDL
MODEL 8
REMARK VINA RESULT:      -7.6      3.953     11.737
REMARK  Name = 
REMARK  10 active torsions:
REMARK  status: ('A' for Active; 'I' for Inactive)
REMARK    1  A    between atoms: C_1  and  C_2
REMARK    2  A    between atoms: C_2  and  C_3
REMARK    3  A    between atoms: C_6  and  C_7
REMARK    4  A    between atoms: C_7  and  O_8
REMARK    5  A    between atoms: O_8  and  C_9
REMARK    6  A    between atoms: C_12  and  C_13
REMARK    7  A    between atoms: C_16  and  C_18
REMARK    8  A    between atoms: C_22  and  C_23
REMARK    9  A    between atoms: C_27  and  O_28
REMARK   10  A    between atoms: O_28  and  C_29
REMARK                            x       y       z     vdW  Elec       q    Type
REMARK                         _______ _______ _______ _____ _____    ______ ____
ROOT
ATOM      1  C   UNL     1       5.723   5.024  17.329  0.00  0.00    +0.000 A 
ATOM      2  C   UNL     1       5.535   6.385  16.999  0.00  0.00    +0.000 A 
ATOM      3  C   UNL     1       4.393   7.098  17.400  0.00  0.00    +0.000 A 
ATOM      4  C   UNL     1       3.388   6.495  18.162  0.00  0.00    +0.000 A 
ATOM      5  C   UNL     1       3.606   5.134  18.478  0.00  0.00    +0.000 A 
ATOM      6  C   UNL     1       4.737   4.385  18.085  0.00  0.00    +0.000 A 
ENDROOT
BRANCH   4   7
ATOM      7  C   UNL     1       2.129   7.254  18.732  0.00  0.00    +0.000 C 
ATOM      8  C   UNL     1       1.984   7.586  20.243  0.00  0.00    +0.000 C 
ATOM      9  N   UNL     1       1.266   8.759  19.772  0.00  0.00    +0.000 N 
ATOM     10  C   UNL     1       0.564   9.716  20.460  0.00  0.00    +0.000 C 
ATOM     11  O   UNL     1       0.502   9.728  21.690  0.00  0.00    +0.000 OA
ATOM     12  C   UNL     1       2.008   8.786  18.523  0.00  0.00    +0.000 C 
BRANCH  10  13
ATOM     13  C   UNL     1      -0.206  10.726  19.655  0.00  0.00    +0.000 A 
ATOM     14  C   UNL     1      -1.304  10.317  18.910  0.00  0.00    +0.000 A 
ATOM     15  C   UNL     1      -1.937  11.257  18.100  0.00  0.00    +0.000 A 
ATOM     16  C   UNL     1      -1.456  12.564  18.056  0.00  0.00    +0.000 A 
ATOM     17  C   UNL     1      -0.351  12.896  18.828  0.00  0.00    +0.000 A 
ATOM     18  C   UNL     1       0.216  14.283  18.829  0.00  0.00    +0.000 C 
ATOM     19  N   UNL     1       0.275  11.996  19.619  0.00  0.00    +0.000 NA
ENDBRANCH  10  13
ENDBRANCH   4   7
BRANCH   6  20
ATOM     20  O   UNL     1       4.603   3.111  18.550  0.00  0.00    +0.000 OA
ATOM     21  C   UNL     1       3.621   2.214  18.085  0.00  0.00    +0.000 C 
ENDBRANCH   6  20
BRANCH   1  22
ATOM     22  O   UNL     1       6.922   4.556  16.875  0.00  0.00    +0.000 OA
BRANCH  22  23
ATOM     23  C   UNL     1       7.418   5.129  15.675  0.00  0.00    +0.000 C 
BRANCH  23  27
ATOM     24  C   UNL     1       5.525   3.386  12.213  0.00  0.00    +0.000 A 
ATOM     25  C   UNL     1       6.770   4.015  12.099  0.00  0.00    +0.000 A 
ATOM     26  C   UNL     1       7.359   4.619  13.210  0.00  0.00    +0.000 A 
ATOM     27  C   UNL     1       6.717   4.592  14.456  0.00  0.00    +0.000 A 
ATOM     28  C   UNL     1       5.490   3.932  14.578  0.00  0.00    +0.000 A 
ATOM     29  C   UNL     1       4.899   3.333  13.465  0.00  0.00    +0.000 A 
BRANCH  24  31
ATOM     30  C   UNL     1       3.541   3.414  10.666  0.00  0.00    +0.000 C 
ATOM     31  C   UNL     1       4.872   2.767  11.006  0.00  0.00    +0.000 C 
ENDBRANCH  24  31
ENDBRANCH  23  27
ENDBRANCH  22  23
ENDBRANCH   1  22
TORSDOF 7
ENDMDL
MODEL 9
REMARK VINA RESULT:      -7.6      2.429     10.895
REMARK  Name = 
REMARK  10 active torsions:
REMARK  status: ('A' for Active; 'I' for Inactive)
REMARK    1  A    between atoms: C_1  and  C_2
REMARK    2  A    between atoms: C_2  and  C_3
REMARK    3  A    between atoms: C_6  and  C_7
REMARK    4  A    between atoms: C_7  and  O_8
REMARK    5  A    between atoms: O_8  and  C_9
REMARK    6  A    between atoms: C_12  and  C_13
REMARK    7  A    between atoms: C_16  and  C_18
REMARK    8  A    between atoms: C_22  and  C_23
REMARK    9  A    between atoms: C_27  and  O_28
REMARK   10  A    between atoms: O_28  and  C_29
REMARK                            x       y       z     vdW  Elec       q    Type
REMARK                         _______ _______ _______ _____ _____    ______ ____
ROOT
ATOM      1  C   UNL     1       2.545   4.963  18.834  0.00  0.00    +0.000 A 
ATOM      2  C   UNL     1       2.353   5.928  17.821  0.00  0.00    +0.000 A 
ATOM      3  C   UNL     1       1.959   7.245  18.113  0.00  0.00    +0.000 A 
ATOM      4  C   UNL     1       1.751   7.668  19.428  0.00  0.00    +0.000 A 
ATOM      5  C   UNL     1       1.954   6.680  20.419  0.00  0.00    +0.000 A 
ATOM      6  C   UNL     1       2.341   5.346  20.162  0.00  0.00    +0.000 A 
ENDROOT
BRANCH   4   7
ATOM      7  C   UNL     1       1.407   9.151  19.840  0.00  0.00    +0.000 C 
ATOM      8  C   UNL     1       1.282  10.289  18.789  0.00  0.00    +0.000 C 
ATOM      9  N   UNL     1       0.293  10.834  19.705  0.00  0.00    +0.000 N 
ATOM     10  C   UNL     1      -0.373  12.033  19.694  0.00  0.00    +0.000 C 
ATOM     11  O   UNL     1      -0.241  12.849  18.781  0.00  0.00    +0.000 OA
ATOM     12  C   UNL     1      -0.054   9.516  20.210  0.00  0.00    +0.000 C 
BRANCH  10  13
ATOM     13  C   UNL     1      -1.226  12.365  20.887  0.00  0.00    +0.000 A 
ATOM     14  C   UNL     1      -0.646  12.443  22.146  0.00  0.00    +0.000 A 
ATOM     15  C   UNL     1      -1.479  12.656  23.243  0.00  0.00    +0.000 A 
ATOM     16  C   UNL     1      -2.853  12.780  23.050  0.00  0.00    +0.000 A 
ATOM     17  C   UNL     1      -3.359  12.688  21.760  0.00  0.00    +0.000 A 
ATOM     18  C   UNL     1      -4.825  12.815  21.483  0.00  0.00    +0.000 C 
ATOM     19  N   UNL     1      -2.565  12.481  20.686  0.00  0.00    +0.000 NA
ENDBRANCH  10  13
ENDBRANCH   4   7
BRANCH   6  20
ATOM     20  O   UNL     1       2.423   4.676  21.346  0.00  0.00    +0.000 OA
ATOM     21  C   UNL     1       1.786   3.443  21.586  0.00  0.00    +0.000 C 
ENDBRANCH   6  20
BRANCH   1  22
ATOM     22  O   UNL     1       2.970   3.771  18.321  0.00  0.00    +0.000 OA
BRANCH  22  23
ATOM     23  C   UNL     1       3.873   3.833  17.227  0.00  0.00    +0.000 C 
BRANCH  23  27
ATOM     24  C   UNL     1       7.133   6.502  18.152  0.00  0.00    +0.000 A 
ATOM     25  C   UNL     1       6.455   6.607  16.932  0.00  0.00    +0.000 A 
ATOM     26  C   UNL     1       5.432   5.713  16.615  0.00  0.00    +0.000 A 
ATOM     27  C   UNL     1       5.062   4.708  17.519  0.00  0.00    +0.000 A 
ATOM     28  C   UNL     1       5.715   4.626  18.753  0.00  0.00    +0.000 A 
ATOM     29  C   UNL     1       6.741   5.517  19.068  0.00  0.00    +0.000 A 
BRANCH  24  31
ATOM     30  C   UNL     1       8.097   8.802  17.821  0.00  0.00    +0.000 C 
ATOM     31  C   UNL     1       8.261   7.443  18.478  0.00  0.00    +0.000 C 
ENDBRANCH  24  31
ENDBRANCH  23  27
ENDBRANCH  22  23
ENDBRANCH   1  22
TORSDOF 7
ENDMDL
