MODEL 1
REMARK VINA RESULT:      -8.7      0.000      0.000
REMARK  Name = 
REMARK  6 active torsions:
REMARK  status: ('A' for Active; 'I' for Inactive)
REMARK    1  A    between atoms: C_1  and  O_2
REMARK    2  A    between atoms: O_2  and  C_3
REMARK    3  A    between atoms: C_3  and  C_5
REMARK    4  A    between atoms: C_9  and  C_10
REMARK    5  A    between atoms: C_14  and  C_15
REMARK    6  A    between atoms: C_15  and  N_16
REMARK                            x       y       z     vdW  Elec       q    Type
REMARK                         _______ _______ _______ _____ _____    ______ ____
ROOT
ATOM      1  C   UNL     1       2.222   7.279  19.601  0.00  0.00    +0.000 A 
ATOM      2  C   UNL     1       1.803   8.451  19.010  0.00  0.00    +0.000 A 
ATOM      3  C   UNL     1       1.087   9.201  19.990  0.00  0.00    +0.000 A 
ATOM      4  C   UNL     1       0.384  10.428  19.971  0.00  0.00    +0.000 A 
ATOM      5  C   UNL     1      -0.263  10.882  21.137  0.00  0.00    +0.000 A 
ATOM      6  C   UNL     1      -0.185  10.109  22.301  0.00  0.00    +0.000 A 
ATOM      7  C   UNL     1       0.521   8.900  22.348  0.00  0.00    +0.000 A 
ATOM      8  C   UNL     1       1.134   8.471  21.173  0.00  0.00    +0.000 A 
ATOM      9  N   UNL     1       1.842   7.322  20.915  0.00  0.00    +0.000 N 
ATOM     10  H   UNL     1       2.033   6.579  21.573  0.00  0.00    +0.000 HD
ENDROOT
BRANCH   1  15
ATOM     11  C   UNL     1       5.647   5.253  15.952  0.00  0.00    +0.000 A 
ATOM     12  C   UNL     1       5.277   6.599  16.042  0.00  0.00    +0.000 A 
ATOM     13  C   UNL     1       4.370   7.026  17.016  0.00  0.00    +0.000 A 
ATOM     14  C   UNL     1       3.831   6.090  17.919  0.00  0.00    +0.000 A 
ATOM     15  C   UNL     1       2.940   6.112  19.024  0.00  0.00    +0.000 A 
ATOM     16  N   UNL     1       2.768   4.895  19.559  0.00  0.00    +0.000 NA
ATOM     17  N   UNL     1       3.530   4.098  18.793  0.00  0.00    +0.000 N 
ATOM     18  C   UNL     1       4.205   4.755  17.798  0.00  0.00    +0.000 A 
ATOM     19  C   UNL     1       5.100   4.297  16.826  0.00  0.00    +0.000 A 
ATOM     20  H   UNL     1       3.555   3.106  19.004  0.00  0.00    +0.000 HD
BRANCH  11  21
ATOM     21  C   UNL     1       6.636   4.782  14.949  0.00  0.00    +0.000 C 
ATOM     22  O   UNL     1       7.647   5.399  14.655  0.00  0.00    +0.000 OA
BRANCH  21  24
ATOM     23  C   UNL     1       6.128   3.640  12.978  0.00  0.00    +0.000 C 
ATOM     24  O   UNL     1       6.232   3.606  14.401  0.00  0.00    +0.000 OA
ENDBRANCH  21  24
ENDBRANCH  11  21
ENDBRANCH   1  15
BRANCH   5  25
ATOM     25  C   UNL     1      -1.111  12.136  21.122  0.00  0.00    +0.000 C 
BRANCH  25  26
ATOM     26  N   UNL     1      -1.845  12.523  22.325  0.00  0.00    +0.000 NA
ATOM     27  C   UNL     1      -3.288  12.722  22.175  0.00  0.00    +0.000 C 
ATOM     28  C   UNL     1      -3.697  14.158  21.814  0.00  0.00    +0.000 C 
ATOM     29  O   UNL     1      -3.156  15.108  22.741  0.00  0.00    +0.000 OA
ATOM     30  C   UNL     1      -1.728  15.010  22.817  0.00  0.00    +0.000 C 
ATOM     31  C   UNL     1      -1.262  13.583  23.152  0.00  0.00    +0.000 C 
ENDBRANCH  25  26
ENDBRANCH   5  25
TORSDOF 5
ENDMDL
MODEL 2
REMARK VINA RESULT:      -8.6      0.845      1.569
REMARK  Name = 
REMARK  6 active torsions:
REMARK  status: ('A' for Active; 'I' for Inactive)
REMARK    1  A    between atoms: C_1  and  O_2
REMARK    2  A    between atoms: O_2  and  C_3
REMARK    3  A    between atoms: C_3  and  C_5
REMARK    4  A    between atoms: C_9  and  C_10
REMARK    5  A    between atoms: C_14  and  C_15
REMARK    6  A    between atoms: C_15  and  N_16
REMARK                            x       y       z     vdW  Elec       q    Type
REMARK                         _______ _______ _______ _____ _____    ______ ____
ROOT
ATOM      1  C   UNL     1       2.246   7.057  19.781  0.00  0.00    +0.000 A 
ATOM      2  C   UNL     1       1.601   7.184  20.993  0.00  0.00    +0.000 A 
ATOM      3  C   UNL     1       0.976   8.466  21.021  0.00  0.00    +0.000 A 
ATOM      4  C   UNL     1       0.236   9.179  21.993  0.00  0.00    +0.000 A 
ATOM      5  C   UNL     1      -0.221  10.481  21.707  0.00  0.00    +0.000 A 
ATOM      6  C   UNL     1       0.059  11.038  20.455  0.00  0.00    +0.000 A 
ATOM      7  C   UNL     1       0.773  10.344  19.471  0.00  0.00    +0.000 A 
ATOM      8  C   UNL     1       1.227   9.066  19.792  0.00  0.00    +0.000 A 
ATOM      9  N   UNL     1       1.981   8.186  19.054  0.00  0.00    +0.000 N 
ATOM     10  H   UNL     1       2.337   8.342  18.121  0.00  0.00    +0.000 HD
ENDROOT
BRANCH   1  15
ATOM     11  C   UNL     1       5.747   5.240  16.094  0.00  0.00    +0.000 A 
ATOM     12  C   UNL     1       5.177   6.517  16.096  0.00  0.00    +0.000 A 
ATOM     13  C   UNL     1       4.267   6.892  17.089  0.00  0.00    +0.000 A 
ATOM     14  C   UNL     1       3.930   5.974  18.101  0.00  0.00    +0.000 A 
ATOM     15  C   UNL     1       3.106   5.963  19.257  0.00  0.00    +0.000 A 
ATOM     16  N   UNL     1       3.155   4.789  19.903  0.00  0.00    +0.000 NA
ATOM     17  N   UNL     1       3.990   4.049  19.157  0.00  0.00    +0.000 N 
ATOM     18  C   UNL     1       4.501   4.705  18.068  0.00  0.00    +0.000 A 
ATOM     19  C   UNL     1       5.404   4.299  17.079  0.00  0.00    +0.000 A 
ATOM     20  H   UNL     1       4.181   3.096  19.448  0.00  0.00    +0.000 HD
BRANCH  11  21
ATOM     21  C   UNL     1       6.742   4.833  15.070  0.00  0.00    +0.000 C 
ATOM     22  O   UNL     1       7.719   5.501  14.773  0.00  0.00    +0.000 OA
BRANCH  21  24
ATOM     23  C   UNL     1       6.167   3.722  13.100  0.00  0.00    +0.000 C 
ATOM     24  O   UNL     1       6.386   3.648  14.508  0.00  0.00    +0.000 OA
ENDBRANCH  21  24
ENDBRANCH  11  21
ENDBRANCH   1  15
BRANCH   5  25
ATOM     25  C   UNL     1      -0.923  11.311  22.761  0.00  0.00    +0.000 C 
BRANCH  25  26
ATOM     26  N   UNL     1      -1.677  12.497  22.359  0.00  0.00    +0.000 NA
ATOM     27  C   UNL     1      -1.091  13.793  22.707  0.00  0.00    +0.000 C 
ATOM     28  C   UNL     1      -1.523  14.337  24.076  0.00  0.00    +0.000 C 
ATOM     29  O   UNL     1      -2.951  14.386  24.198  0.00  0.00    +0.000 OA
ATOM     30  C   UNL     1      -3.539  13.099  23.975  0.00  0.00    +0.000 C 
ATOM     31  C   UNL     1      -3.118  12.494  22.625  0.00  0.00    +0.000 C 
ENDBRANCH  25  26
ENDBRANCH   5  25
TORSDOF 5
ENDMDL
MODEL 3
REMARK VINA RESULT:      -8.6      1.603      1.948
REMARK  Name = 
REMARK  6 active torsions:
REMARK  status: ('A' for Active; 'I' for Inactive)
REMARK    1  A    between atoms: C_1  and  O_2
REMARK    2  A    between atoms: O_2  and  C_3
REMARK    3  A    between atoms: C_3  and  C_5
REMARK    4  A    between atoms: C_9  and  C_10
REMARK    5  A    between atoms: C_14  and  C_15
REMARK    6  A    between atoms: C_15  and  N_16
REMARK                            x       y       z     vdW  Elec       q    Type
REMARK                         _______ _______ _______ _____ _____    ______ ____
ROOT
ATOM      1  C   UNL     1       2.282   7.331  19.484  0.00  0.00    +0.000 A 
ATOM      2  C   UNL     1       1.776   8.430  18.824  0.00  0.00    +0.000 A 
ATOM      3  C   UNL     1       1.032   9.199  19.767  0.00  0.00    +0.000 A 
ATOM      4  C   UNL     1       0.249  10.374  19.680  0.00  0.00    +0.000 A 
ATOM      5  C   UNL     1      -0.404  10.867  20.827  0.00  0.00    +0.000 A 
ATOM      6  C   UNL     1      -0.252  10.184  22.039  0.00  0.00    +0.000 A 
ATOM      7  C   UNL     1       0.533   9.030  22.153  0.00  0.00    +0.000 A 
ATOM      8  C   UNL     1       1.149   8.558  20.995  0.00  0.00    +0.000 A 
ATOM      9  N   UNL     1       1.926   7.442  20.801  0.00  0.00    +0.000 N 
ATOM     10  H   UNL     1       2.178   6.761  21.504  0.00  0.00    +0.000 HD
ENDROOT
BRANCH   1  15
ATOM     11  C   UNL     1       5.761   5.276  15.902  0.00  0.00    +0.000 A 
ATOM     12  C   UNL     1       5.305   6.599  15.908  0.00  0.00    +0.000 A 
ATOM     13  C   UNL     1       4.391   7.035  16.872  0.00  0.00    +0.000 A 
ATOM     14  C   UNL     1       3.933   6.132  17.850  0.00  0.00    +0.000 A 
ATOM     15  C   UNL     1       3.064   6.175  18.972  0.00  0.00    +0.000 A 
ATOM     16  N   UNL     1       2.983   4.990  19.594  0.00  0.00    +0.000 NA
ATOM     17  N   UNL     1       3.781   4.191  18.866  0.00  0.00    +0.000 N 
ATOM     18  C   UNL     1       4.392   4.819  17.813  0.00  0.00    +0.000 A 
ATOM     19  C   UNL     1       5.296   4.352  16.853  0.00  0.00    +0.000 A 
ATOM     20  H   UNL     1       3.875   3.221  19.145  0.00  0.00    +0.000 HD
BRANCH  11  21
ATOM     21  C   UNL     1       6.758   4.800  14.910  0.00  0.00    +0.000 C 
ATOM     22  O   UNL     1       7.755   5.432  14.597  0.00  0.00    +0.000 OA
BRANCH  21  24
ATOM     23  C   UNL     1       5.876   3.679  13.063  0.00  0.00    +0.000 C 
ATOM     24  O   UNL     1       6.381   3.601  14.396  0.00  0.00    +0.000 OA
ENDBRANCH  21  24
ENDBRANCH  11  21
ENDBRANCH   1  15
BRANCH   5  25
ATOM     25  C   UNL     1      -1.333  12.059  20.746  0.00  0.00    +0.000 C 
BRANCH  25  26
ATOM     26  N   UNL     1      -0.774  13.409  20.753  0.00  0.00    +0.000 NA
ATOM     27  C   UNL     1      -0.676  14.083  19.456  0.00  0.00    +0.000 C 
ATOM     28  C   UNL     1       0.651  13.849  18.718  0.00  0.00    +0.000 C 
ATOM     29  O   UNL     1       1.777  14.182  19.540  0.00  0.00    +0.000 OA
ATOM     30  C   UNL     1       1.764  13.445  20.768  0.00  0.00    +0.000 C 
ATOM     31  C   UNL     1       0.445  13.624  21.539  0.00  0.00    +0.000 C 
ENDBRANCH  25  26
ENDBRANCH   5  25
TORSDOF 5
ENDMDL
MODEL 4
REMARK VINA RESULT:      -8.5      0.903      1.271
REMARK  Name = 
REMARK  6 active torsions:
REMARK  status: ('A' for Active; 'I' for Inactive)
REMARK    1  A    between atoms: C_1  and  O_2
REMARK    2  A    between atoms: O_2  and  C_3
REMARK    3  A    between atoms: C_3  and  C_5
REMARK    4  A    between atoms: C_9  and  C_10
REMARK    5  A    between atoms: C_14  and  C_15
REMARK    6  A    between atoms: C_15  and  N_16
REMARK                            x       y       z     vdW  Elec       q    Type
REMARK                         _______ _______ _______ _____ _____    ______ ____
ROOT
ATOM      1  C   UNL     1       2.221   7.283  19.601  0.00  0.00    +0.000 A 
ATOM      2  C   UNL     1       1.778   8.433  18.985  0.00  0.00    +0.000 A 
ATOM      3  C   UNL     1       1.067   9.201  19.954  0.00  0.00    +0.000 A 
ATOM      4  C   UNL     1       0.346  10.417  19.911  0.00  0.00    +0.000 A 
ATOM      5  C   UNL     1      -0.290  10.895  21.074  0.00  0.00    +0.000 A 
ATOM      6  C   UNL     1      -0.185  10.155  22.257  0.00  0.00    +0.000 A 
ATOM      7  C   UNL     1       0.538   8.958  22.327  0.00  0.00    +0.000 A 
ATOM      8  C   UNL     1       1.140   8.504  21.155  0.00  0.00    +0.000 A 
ATOM      9  N   UNL     1       1.860   7.358  20.919  0.00  0.00    +0.000 N 
ATOM     10  H   UNL     1       2.070   6.636  21.594  0.00  0.00    +0.000 HD
ENDROOT
BRANCH   1  15
ATOM     11  C   UNL     1       5.670   5.214  15.998  0.00  0.00    +0.000 A 
ATOM     12  C   UNL     1       5.293   6.559  16.065  0.00  0.00    +0.000 A 
ATOM     13  C   UNL     1       4.380   6.998  17.029  0.00  0.00    +0.000 A 
ATOM     14  C   UNL     1       3.843   6.075  17.945  0.00  0.00    +0.000 A 
ATOM     15  C   UNL     1       2.947   6.111  19.046  0.00  0.00    +0.000 A 
ATOM     16  N   UNL     1       2.778   4.902  19.601  0.00  0.00    +0.000 NA
ATOM     17  N   UNL     1       3.547   4.096  18.850  0.00  0.00    +0.000 N 
ATOM     18  C   UNL     1       4.223   4.739  17.847  0.00  0.00    +0.000 A 
ATOM     19  C   UNL     1       5.124   4.270  16.886  0.00  0.00    +0.000 A 
ATOM     20  H   UNL     1       3.576   3.107  19.077  0.00  0.00    +0.000 HD
BRANCH  11  21
ATOM     21  C   UNL     1       6.664   4.731  15.007  0.00  0.00    +0.000 C 
ATOM     22  O   UNL     1       7.707   5.314  14.756  0.00  0.00    +0.000 OA
BRANCH  21  24
ATOM     23  C   UNL     1       6.139   3.674  12.993  0.00  0.00    +0.000 C 
ATOM     24  O   UNL     1       6.227   3.588  14.414  0.00  0.00    +0.000 OA
ENDBRANCH  21  24
ENDBRANCH  11  21
ENDBRANCH   1  15
BRANCH   5  25
ATOM     25  C   UNL     1      -1.156  12.136  21.037  0.00  0.00    +0.000 C 
BRANCH  25  26
ATOM     26  N   UNL     1      -0.532  13.442  20.834  0.00  0.00    +0.000 NA
ATOM     27  C   UNL     1       0.212  13.994  21.968  0.00  0.00    +0.000 C 
ATOM     28  C   UNL     1      -0.627  14.864  22.916  0.00  0.00    +0.000 C 
ATOM     29  O   UNL     1      -1.306  15.909  22.209  0.00  0.00    +0.000 OA
ATOM     30  C   UNL     1      -2.135  15.382  21.166  0.00  0.00    +0.000 C 
ATOM     31  C   UNL     1      -1.349  14.481  20.199  0.00  0.00    +0.000 C 
ENDBRANCH  25  26
ENDBRANCH   5  25
TORSDOF 5
ENDMDL
MODEL 5
REMARK VINA RESULT:      -8.5      1.201      1.315
REMARK  Name = 
REMARK  6 active torsions:
REMARK  status: ('A' for Active; 'I' for Inactive)
REMARK    1  A    between atoms: C_1  and  O_2
REMARK    2  A    between atoms: O_2  and  C_3
REMARK    3  A    between atoms: C_3  and  C_5
REMARK    4  A    between atoms: C_9  and  C_10
REMARK    5  A    between atoms: C_14  and  C_15
REMARK    6  A    between atoms: C_15  and  N_16
REMARK                            x       y       z     vdW  Elec       q    Type
REMARK                         _______ _______ _______ _____ _____    ______ ____
ROOT
ATOM      1  C   UNL     1       2.266   7.310  19.566  0.00  0.00    +0.000 A 
ATOM      2  C   UNL     1       1.837   8.466  18.950  0.00  0.00    +0.000 A 
ATOM      3  C   UNL     1       1.100   9.223  19.908  0.00  0.00    +0.000 A 
ATOM      4  C   UNL     1       0.379  10.439  19.859  0.00  0.00    +0.000 A 
ATOM      5  C   UNL     1      -0.287  10.905  21.009  0.00  0.00    +0.000 A 
ATOM      6  C   UNL     1      -0.211  10.153  22.187  0.00  0.00    +0.000 A 
ATOM      7  C   UNL     1       0.512   8.956  22.265  0.00  0.00    +0.000 A 
ATOM      8  C   UNL     1       1.144   8.514  21.104  0.00  0.00    +0.000 A 
ATOM      9  N   UNL     1       1.871   7.372  20.875  0.00  0.00    +0.000 N 
ATOM     10  H   UNL     1       2.065   6.643  21.549  0.00  0.00    +0.000 HD
ENDROOT
BRANCH   1  15
ATOM     11  C   UNL     1       5.651   5.240  15.904  0.00  0.00    +0.000 A 
ATOM     12  C   UNL     1       5.238   6.576  15.948  0.00  0.00    +0.000 A 
ATOM     13  C   UNL     1       4.345   7.015  16.930  0.00  0.00    +0.000 A 
ATOM     14  C   UNL     1       3.866   6.103  17.888  0.00  0.00    +0.000 A 
ATOM     15  C   UNL     1       3.007   6.144  19.018  0.00  0.00    +0.000 A 
ATOM     16  N   UNL     1       2.893   4.946  19.611  0.00  0.00    +0.000 NA
ATOM     17  N   UNL     1       3.659   4.142  18.856  0.00  0.00    +0.000 N 
ATOM     18  C   UNL     1       4.282   4.777  17.814  0.00  0.00    +0.000 A 
ATOM     19  C   UNL     1       5.164   4.307  16.835  0.00  0.00    +0.000 A 
ATOM     20  H   UNL     1       3.725   3.162  19.109  0.00  0.00    +0.000 HD
BRANCH  11  21
ATOM     21  C   UNL     1       6.626   4.758  14.893  0.00  0.00    +0.000 C 
ATOM     22  O   UNL     1       7.679   5.323  14.646  0.00  0.00    +0.000 OA
BRANCH  21  24
ATOM     23  C   UNL     1       6.324   3.650  12.861  0.00  0.00    +0.000 C 
ATOM     24  O   UNL     1       6.158   3.640  14.278  0.00  0.00    +0.000 OA
ENDBRANCH  21  24
ENDBRANCH  11  21
ENDBRANCH   1  15
BRANCH   5  25
ATOM     25  C   UNL     1      -1.153  12.145  20.962  0.00  0.00    +0.000 C 
BRANCH  25  26
ATOM     26  N   UNL     1      -0.727  13.347  21.676  0.00  0.00    +0.000 NA
ATOM     27  C   UNL     1      -1.683  14.456  21.717  0.00  0.00    +0.000 C 
ATOM     28  C   UNL     1      -1.553  15.450  20.554  0.00  0.00    +0.000 C 
ATOM     29  O   UNL     1      -0.214  15.950  20.436  0.00  0.00    +0.000 OA
ATOM     30  C   UNL     1       0.730  14.884  20.277  0.00  0.00    +0.000 C 
ATOM     31  C   UNL     1       0.625  13.843  21.404  0.00  0.00    +0.000 C 
ENDBRANCH  25  26
ENDBRANCH   5  25
TORSDOF 5
ENDMDL
MODEL 6
REMARK VINA RESULT:      -8.4      3.593     10.383
REMARK  Name = 
REMARK  6 active torsions:
REMARK  status: ('A' for Active; 'I' for Inactive)
REMARK    1  A    between atoms: C_1  and  O_2
REMARK    2  A    between atoms: O_2  and  C_3
REMARK    3  A    between atoms: C_3  and  C_5
REMARK    4  A    between atoms: C_9  and  C_10
REMARK    5  A    between atoms: C_14  and  C_15
REMARK    6  A    between atoms: C_15  and  N_16
REMARK                            x       y       z     vdW  Elec       q    Type
REMARK                         _______ _______ _______ _____ _____    ______ ____
ROOT
ATOM      1  C   UNL     1       0.913  10.612  18.755  0.00  0.00    +0.000 A 
ATOM      2  C   UNL     1       1.694  10.082  17.750  0.00  0.00    +0.000 A 
ATOM      3  C   UNL     1       2.151   8.802  18.183  0.00  0.00    +0.000 A 
ATOM      4  C   UNL     1       3.012   7.826  17.630  0.00  0.00    +0.000 A 
ATOM      5  C   UNL     1       3.295   6.651  18.355  0.00  0.00    +0.000 A 
ATOM      6  C   UNL     1       2.705   6.471  19.611  0.00  0.00    +0.000 A 
ATOM      7  C   UNL     1       1.834   7.415  20.170  0.00  0.00    +0.000 A 
ATOM      8  C   UNL     1       1.590   8.574  19.435  0.00  0.00    +0.000 A 
ATOM      9  N   UNL     1       0.831   9.675  19.749  0.00  0.00    +0.000 N 
ATOM     10  H   UNL     1       0.311   9.816  20.604  0.00  0.00    +0.000 HD
ENDROOT
BRANCH   1  15
ATOM     11  C   UNL     1       1.227  16.002  18.682  0.00  0.00    +0.000 A 
ATOM     12  C   UNL     1       2.311  15.134  18.514  0.00  0.00    +0.000 A 
ATOM     13  C   UNL     1       2.131  13.749  18.563  0.00  0.00    +0.000 A 
ATOM     14  C   UNL     1       0.842  13.225  18.775  0.00  0.00    +0.000 A 
ATOM     15  C   UNL     1       0.249  11.938  18.862  0.00  0.00    +0.000 A 
ATOM     16  N   UNL     1      -1.073  12.003  19.073  0.00  0.00    +0.000 NA
ATOM     17  N   UNL     1      -1.322  13.321  19.137  0.00  0.00    +0.000 N 
ATOM     18  C   UNL     1      -0.217  14.110  18.952  0.00  0.00    +0.000 A 
ATOM     19  C   UNL     1      -0.064  15.500  18.922  0.00  0.00    +0.000 A 
ATOM     20  H   UNL     1      -2.276  13.625  19.302  0.00  0.00    +0.000 HD
BRANCH  11  21
ATOM     21  C   UNL     1       1.387  17.475  18.599  0.00  0.00    +0.000 C 
ATOM     22  O   UNL     1       1.046  18.244  19.484  0.00  0.00    +0.000 OA
BRANCH  21  24
ATOM     23  C   UNL     1       1.001  18.445  16.511  0.00  0.00    +0.000 C 
ATOM     24  O   UNL     1       1.928  17.827  17.403  0.00  0.00    +0.000 OA
ENDBRANCH  21  24
ENDBRANCH  11  21
ENDBRANCH   1  15
BRANCH   5  25
ATOM     25  C   UNL     1       4.294   5.637  17.840  0.00  0.00    +0.000 C 
BRANCH  25  26
ATOM     26  N   UNL     1       5.510   6.098  17.174  0.00  0.00    +0.000 NA
ATOM     27  C   UNL     1       5.756   5.576  15.828  0.00  0.00    +0.000 C 
ATOM     28  C   UNL     1       6.574   4.277  15.791  0.00  0.00    +0.000 C 
ATOM     29  O   UNL     1       7.808   4.410  16.507  0.00  0.00    +0.000 OA
ATOM     30  C   UNL     1       7.584   4.808  17.865  0.00  0.00    +0.000 C 
ATOM     31  C   UNL     1       6.746   6.095  17.962  0.00  0.00    +0.000 C 
ENDBRANCH  25  26
ENDBRANCH   5  25
TORSDOF 5
ENDMDL
MODEL 7
REMARK VINA RESULT:      -8.3      1.766      2.106
REMARK  Name = 
REMARK  6 active torsions:
REMARK  status: ('A' for Active; 'I' for Inactive)
REMARK    1  A    between atoms: C_1  and  O_2
REMARK    2  A    between atoms: O_2  and  C_3
REMARK    3  A    between atoms: C_3  and  C_5
REMARK    4  A    between atoms: C_9  and  C_10
REMARK    5  A    between atoms: C_14  and  C_15
REMARK    6  A    between atoms: C_15  and  N_16
REMARK                            x       y       z     vdW  Elec       q    Type
REMARK                         _______ _______ _______ _____ _____    ______ ____
ROOT
ATOM      1  C   UNL     1       2.412   7.218  19.192  0.00  0.00    +0.000 A 
ATOM      2  C   UNL     1       1.960   8.369  18.584  0.00  0.00    +0.000 A 
ATOM      3  C   UNL     1       1.300   9.155  19.574  0.00  0.00    +0.000 A 
ATOM      4  C   UNL     1       0.595  10.381  19.550  0.00  0.00    +0.000 A 
ATOM      5  C   UNL     1       0.014  10.878  20.733  0.00  0.00    +0.000 A 
ATOM      6  C   UNL     1       0.157  10.147  21.917  0.00  0.00    +0.000 A 
ATOM      7  C   UNL     1       0.866   8.941  21.970  0.00  0.00    +0.000 A 
ATOM      8  C   UNL     1       1.413   8.468  20.778  0.00  0.00    +0.000 A 
ATOM      9  N   UNL     1       2.106   7.310  20.524  0.00  0.00    +0.000 N 
ATOM     10  H   UNL     1       2.334   6.591  21.197  0.00  0.00    +0.000 HD
ENDROOT
BRANCH   1  15
ATOM     11  C   UNL     1       5.648   5.060  15.447  0.00  0.00    +0.000 A 
ATOM     12  C   UNL     1       5.287   6.410  15.512  0.00  0.00    +0.000 A 
ATOM     13  C   UNL     1       4.430   6.873  16.515  0.00  0.00    +0.000 A 
ATOM     14  C   UNL     1       3.934   5.969  17.473  0.00  0.00    +0.000 A 
ATOM     15  C   UNL     1       3.098   6.030  18.619  0.00  0.00    +0.000 A 
ATOM     16  N   UNL     1       2.949   4.832  19.202  0.00  0.00    +0.000 NA
ATOM     17  N   UNL     1       3.671   4.007  18.425  0.00  0.00    +0.000 N 
ATOM     18  C   UNL     1       4.298   4.629  17.378  0.00  0.00    +0.000 A 
ATOM     19  C   UNL     1       5.143   4.136  16.378  0.00  0.00    +0.000 A 
ATOM     20  H   UNL     1       3.704   3.023  18.667  0.00  0.00    +0.000 HD
BRANCH  11  21
ATOM     21  C   UNL     1       6.585   4.553  14.413  0.00  0.00    +0.000 C 
ATOM     22  O   UNL     1       6.386   3.542  13.758  0.00  0.00    +0.000 OA
BRANCH  21  24
ATOM     23  C   UNL     1       8.157   5.550  13.005  0.00  0.00    +0.000 C 
ATOM     24  O   UNL     1       7.684   5.349  14.336  0.00  0.00    +0.000 OA
ENDBRANCH  21  24
ENDBRANCH  11  21
ENDBRANCH   1  15
BRANCH   5  25
ATOM     25  C   UNL     1      -0.835  12.131  20.719  0.00  0.00    +0.000 C 
BRANCH  25  26
ATOM     26  N   UNL     1      -0.221  13.420  21.032  0.00  0.00    +0.000 NA
ATOM     27  C   UNL     1      -0.829  14.601  20.415  0.00  0.00    +0.000 C 
ATOM     28  C   UNL     1      -0.238  14.977  19.048  0.00  0.00    +0.000 C 
ATOM     29  O   UNL     1       1.186  15.126  19.112  0.00  0.00    +0.000 OA
ATOM     30  C   UNL     1       1.814  13.936  19.606  0.00  0.00    +0.000 C 
ATOM     31  C   UNL     1       1.241  13.498  20.964  0.00  0.00    +0.000 C 
ENDBRANCH  25  26
ENDBRANCH   5  25
TORSDOF 5
ENDMDL
MODEL 8
REMARK VINA RESULT:      -8.3      6.706      8.723
REMARK  Name = 
REMARK  6 active torsions:
REMARK  status: ('A' for Active; 'I' for Inactive)
REMARK    1  A    between atoms: C_1  and  O_2
REMARK    2  A    between atoms: O_2  and  C_3
REMARK    3  A    between atoms: C_3  and  C_5
REMARK    4  A    between atoms: C_9  and  C_10
REMARK    5  A    between atoms: C_14  and  C_15
REMARK    6  A    between atoms: C_15  and  N_16
REMARK                            x       y       z     vdW  Elec       q    Type
REMARK                         _______ _______ _______ _____ _____    ______ ____
ROOT
ATOM      1  C   UNL     1       7.699   7.665  18.076  0.00  0.00    +0.000 A 
ATOM      2  C   UNL     1       7.497   8.777  17.287  0.00  0.00    +0.000 A 
ATOM      3  C   UNL     1       8.238   9.855  17.856  0.00  0.00    +0.000 A 
ATOM      4  C   UNL     1       8.379  11.227  17.542  0.00  0.00    +0.000 A 
ATOM      5  C   UNL     1       9.183  12.052  18.353  0.00  0.00    +0.000 A 
ATOM      6  C   UNL     1       9.839  11.488  19.453  0.00  0.00    +0.000 A 
ATOM      7  C   UNL     1       9.729  10.128  19.773  0.00  0.00    +0.000 A 
ATOM      8  C   UNL     1       8.911   9.345  18.961  0.00  0.00    +0.000 A 
ATOM      9  N   UNL     1       8.583   8.015  19.061  0.00  0.00    +0.000 N 
ATOM     10  H   UNL     1       8.902   7.373  19.774  0.00  0.00    +0.000 HD
ENDROOT
BRANCH   1  15
ATOM     11  C   UNL     1       3.361   4.456  17.868  0.00  0.00    +0.000 A 
ATOM     12  C   UNL     1       3.322   5.851  17.972  0.00  0.00    +0.000 A 
ATOM     13  C   UNL     1       4.503   6.596  18.033  0.00  0.00    +0.000 A 
ATOM     14  C   UNL     1       5.743   5.933  17.980  0.00  0.00    +0.000 A 
ATOM     15  C   UNL     1       7.115   6.301  17.986  0.00  0.00    +0.000 A 
ATOM     16  N   UNL     1       7.925   5.236  17.903  0.00  0.00    +0.000 NA
ATOM     17  N   UNL     1       7.079   4.194  17.862  0.00  0.00    +0.000 N 
ATOM     18  C   UNL     1       5.755   4.544  17.891  0.00  0.00    +0.000 A 
ATOM     19  C   UNL     1       4.589   3.773  17.842  0.00  0.00    +0.000 A 
ATOM     20  H   UNL     1       7.468   3.258  17.805  0.00  0.00    +0.000 HD
BRANCH  11  21
ATOM     21  C   UNL     1       2.121   3.647  17.766  0.00  0.00    +0.000 C 
ATOM     22  O   UNL     1       1.147   3.981  17.111  0.00  0.00    +0.000 OA
BRANCH  21  24
ATOM     23  C   UNL     1       1.772   2.689  19.866  0.00  0.00    +0.000 C 
ATOM     24  O   UNL     1       2.224   2.523  18.523  0.00  0.00    +0.000 OA
ENDBRANCH  21  24
ENDBRANCH  11  21
ENDBRANCH   1  15
BRANCH   5  25
ATOM     25  C   UNL     1       9.271  13.542  18.108  0.00  0.00    +0.000 C 
BRANCH  25  26
ATOM     26  N   UNL     1      10.533  14.239  18.350  0.00  0.00    +0.000 NA
ATOM     27  C   UNL     1      10.524  15.262  19.397  0.00  0.00    +0.000 C 
ATOM     28  C   UNL     1      10.174  16.673  18.903  0.00  0.00    +0.000 C 
ATOM     29  O   UNL     1      11.019  17.077  17.818  0.00  0.00    +0.000 OA
ATOM     30  C   UNL     1      10.953  16.147  16.730  0.00  0.00    +0.000 C 
ATOM     31  C   UNL     1      11.272  14.709  17.175  0.00  0.00    +0.000 C 
ENDBRANCH  25  26
ENDBRANCH   5  25
TORSDOF 5
ENDMDL
MODEL 9
REMARK VINA RESULT:      -8.3      0.966      1.324
REMARK  Name = 
REMARK  6 active torsions:
REMARK  status: ('A' for Active; 'I' for Inactive)
REMARK    1  A    between atoms: C_1  and  O_2
REMARK    2  A    between atoms: O_2  and  C_3
REMARK    3  A    between atoms: C_3  and  C_5
REMARK    4  A    between atoms: C_9  and  C_10
REMARK    5  A    between atoms: C_14  and  C_15
REMARK    6  A    between atoms: C_15  and  N_16
REMARK                            x       y       z     vdW  Elec       q    Type
REMARK                         _______ _______ _______ _____ _____    ______ ____
ROOT
ATOM      1  C   UNL     1       2.018   7.357  19.649  0.00  0.00    +0.000 A 
ATOM      2  C   UNL     1       1.843   8.649  19.204  0.00  0.00    +0.000 A 
ATOM      3  C   UNL     1       1.159   9.374  20.225  0.00  0.00    +0.000 A 
ATOM      4  C   UNL     1       0.657  10.692  20.329  0.00  0.00    +0.000 A 
ATOM      5  C   UNL     1      -0.023  11.091  21.497  0.00  0.00    +0.000 A 
ATOM      6  C   UNL     1      -0.178  10.171  22.539  0.00  0.00    +0.000 A 
ATOM      7  C   UNL     1       0.326   8.867  22.466  0.00  0.00    +0.000 A 
ATOM      8  C   UNL     1       0.977   8.498  21.290  0.00  0.00    +0.000 A 
ATOM      9  N   UNL     1       1.522   7.291  20.924  0.00  0.00    +0.000 N 
ATOM     10  H   UNL     1       1.532   6.448  21.481  0.00  0.00    +0.000 HD
ENDROOT
BRANCH   1  15
ATOM     11  C   UNL     1       5.377   5.287  15.964  0.00  0.00    +0.000 A 
ATOM     12  C   UNL     1       5.199   6.653  16.208  0.00  0.00    +0.000 A 
ATOM     13  C   UNL     1       4.293   7.093  17.178  0.00  0.00    +0.000 A 
ATOM     14  C   UNL     1       3.560   6.148  17.919  0.00  0.00    +0.000 A 
ATOM     15  C   UNL     1       2.601   6.172  18.966  0.00  0.00    +0.000 A 
ATOM     16  N   UNL     1       2.215   4.940  19.328  0.00  0.00    +0.000 NA
ATOM     17  N   UNL     1       2.910   4.135  18.508  0.00  0.00    +0.000 N 
ATOM     18  C   UNL     1       3.745   4.796  17.647  0.00  0.00    +0.000 A 
ATOM     19  C   UNL     1       4.635   4.328  16.674  0.00  0.00    +0.000 A 
ATOM     20  H   UNL     1       2.776   3.132  18.589  0.00  0.00    +0.000 HD
BRANCH  11  21
ATOM     21  C   UNL     1       6.359   4.795  14.965  0.00  0.00    +0.000 C 
ATOM     22  O   UNL     1       7.470   5.278  14.814  0.00  0.00    +0.000 OA
BRANCH  21  24
ATOM     23  C   UNL     1       6.337   3.686  12.911  0.00  0.00    +0.000 C 
ATOM     24  O   UNL     1       5.830   3.773  14.243  0.00  0.00    +0.000 OA
ENDBRANCH  21  24
ENDBRANCH  11  21
ENDBRANCH   1  15
BRANCH   5  25
ATOM     25  C   UNL     1      -0.663  12.459  21.598  0.00  0.00    +0.000 C 
BRANCH  25  26
ATOM     26  N   UNL     1      -1.415  12.988  20.462  0.00  0.00    +0.000 NA
ATOM     27  C   UNL     1      -1.616  14.438  20.431  0.00  0.00    +0.000 C 
ATOM     28  C   UNL     1      -2.897  14.916  21.130  0.00  0.00    +0.000 C 
ATOM     29  O   UNL     1      -4.057  14.240  20.626  0.00  0.00    +0.000 OA
ATOM     30  C   UNL     1      -3.930  12.819  20.755  0.00  0.00    +0.000 C 
ATOM     31  C   UNL     1      -2.648  12.288  20.092  0.00  0.00    +0.000 C 
ENDBRANCH  25  26
ENDBRANCH   5  25
TORSDOF 5
ENDMDL
