MODEL 1
REMARK VINA RESULT:      -6.9      0.000      0.000
REMARK  Name = 
REMARK  5 active torsions:
REMARK  status: ('A' for Active; 'I' for Inactive)
REMARK    1  A    between atoms: C_1  and  C_2
REMARK    2  A    between atoms: C_2  and  C_4
REMARK    3  A    between atoms: C_6  and  C_7
REMARK    4  A    between atoms: C_9  and  C_10
REMARK    5  A    between atoms: C_13  and  C_14
REMARK                            x       y       z     vdW  Elec       q    Type
REMARK                         _______ _______ _______ _____ _____    ______ ____
ROOT
ATOM      1  C   UNL     1       6.492   4.895  16.522  0.00  0.00    +0.000 A 
ATOM      2  S   UNL     1       7.297   4.830  15.000  0.00  0.00    +0.000 S 
ATOM      3  C   UNL     1       5.932   4.087  14.293  0.00  0.00    +0.000 A 
ATOM      4  C   UNL     1       5.950   3.680  12.860  0.00  0.00    +0.000 C 
ATOM      5  N   UNL     1       4.909   3.915  15.096  0.00  0.00    +0.000 NA
ATOM      6  C   UNL     1       5.205   4.386  16.378  0.00  0.00    +0.000 A 
ENDROOT
BRANCH   6   7
ATOM      7  C   UNL     1       4.181   4.303  17.422  0.00  0.00    +0.000 A 
ATOM      8  C   UNL     1       3.387   5.424  17.706  0.00  0.00    +0.000 A 
ATOM      9  C   UNL     1       2.379   5.367  18.676  0.00  0.00    +0.000 A 
ATOM     10  C   UNL     1       2.143   4.184  19.384  0.00  0.00    +0.000 A 
ATOM     11  C   UNL     1       1.034   4.079  20.388  0.00  0.00    +0.000 C 
ATOM     12  C   UNL     1       2.957   3.077  19.135  0.00  0.00    +0.000 A 
ATOM     13  C   UNL     1       3.977   3.143  18.180  0.00  0.00    +0.000 A 
ENDBRANCH   6   7
BRANCH   1  15
ATOM     14  C   UNL     1       7.441   6.869  17.821  0.00  0.00    +0.000 C 
ATOM     15  C   UNL     1       7.203   5.379  17.696  0.00  0.00    +0.000 C 
ATOM     16  O   UNL     1       7.614   4.642  18.594  0.00  0.00    +0.000 OA
ENDBRANCH   1  15
TORSDOF 2
ENDMDL
MODEL 2
REMARK VINA RESULT:      -6.8      0.287      1.218
REMARK  Name = 
REMARK  5 active torsions:
REMARK  status: ('A' for Active; 'I' for Inactive)
REMARK    1  A    between atoms: C_1  and  C_2
REMARK    2  A    between atoms: C_2  and  C_4
REMARK    3  A    between atoms: C_6  and  C_7
REMARK    4  A    between atoms: C_9  and  C_10
REMARK    5  A    between atoms: C_13  and  C_14
REMARK                            x       y       z     vdW  Elec       q    Type
REMARK                         _______ _______ _______ _____ _____    ______ ____
ROOT
ATOM      1  C   UNL     1       6.410   4.875  16.488  0.00  0.00    +0.000 A 
ATOM      2  S   UNL     1       7.318   4.827  15.025  0.00  0.00    +0.000 S 
ATOM      3  C   UNL     1       6.010   4.082  14.220  0.00  0.00    +0.000 A 
ATOM      4  C   UNL     1       6.129   3.686  12.788  0.00  0.00    +0.000 C 
ATOM      5  N   UNL     1       4.935   3.898  14.949  0.00  0.00    +0.000 NA
ATOM      6  C   UNL     1       5.139   4.360  16.252  0.00  0.00    +0.000 A 
ENDROOT
BRANCH   6   7
ATOM      7  C   UNL     1       4.045   4.263  17.222  0.00  0.00    +0.000 A 
ATOM      8  C   UNL     1       3.637   3.003  17.682  0.00  0.00    +0.000 A 
ATOM      9  C   UNL     1       2.617   2.879  18.634  0.00  0.00    +0.000 A 
ATOM     10  C   UNL     1       1.982   4.015  19.145  0.00  0.00    +0.000 A 
ATOM     11  C   UNL     1       0.926   3.914  20.205  0.00  0.00    +0.000 C 
ATOM     12  C   UNL     1       2.357   5.270  18.660  0.00  0.00    +0.000 A 
ATOM     13  C   UNL     1       3.363   5.390  17.695  0.00  0.00    +0.000 A 
ENDBRANCH   6   7
BRANCH   1  15
ATOM     14  C   UNL     1       7.425   6.814  17.789  0.00  0.00    +0.000 C 
ATOM     15  C   UNL     1       7.036   5.354  17.712  0.00  0.00    +0.000 C 
ATOM     16  O   UNL     1       7.257   4.635  18.688  0.00  0.00    +0.000 OA
ENDBRANCH   1  15
TORSDOF 2
ENDMDL
MODEL 3
REMARK VINA RESULT:      -6.8      1.082      1.165
REMARK  Name = 
REMARK  5 active torsions:
REMARK  status: ('A' for Active; 'I' for Inactive)
REMARK    1  A    between atoms: C_1  and  C_2
REMARK    2  A    between atoms: C_2  and  C_4
REMARK    3  A    between atoms: C_6  and  C_7
REMARK    4  A    between atoms: C_9  and  C_10
REMARK    5  A    between atoms: C_13  and  C_14
REMARK                            x       y       z     vdW  Elec       q    Type
REMARK                         _______ _______ _______ _____ _____    ______ ____
ROOT
ATOM      1  C   UNL     1       6.363   5.060  17.473  0.00  0.00    +0.000 A 
ATOM      2  S   UNL     1       7.097   5.202  15.921  0.00  0.00    +0.000 S 
ATOM      3  C   UNL     1       5.889   4.204  15.242  0.00  0.00    +0.000 A 
ATOM      4  C   UNL     1       5.930   3.844  13.797  0.00  0.00    +0.000 C 
ATOM      5  N   UNL     1       4.960   3.802  16.077  0.00  0.00    +0.000 NA
ATOM      6  C   UNL     1       5.207   4.294  17.361  0.00  0.00    +0.000 A 
ENDROOT
BRANCH   6   7
ATOM      7  C   UNL     1       4.268   3.973  18.440  0.00  0.00    +0.000 A 
ATOM      8  C   UNL     1       3.155   4.797  18.659  0.00  0.00    +0.000 A 
ATOM      9  C   UNL     1       2.223   4.499  19.661  0.00  0.00    +0.000 A 
ATOM     10  C   UNL     1       2.386   3.368  20.467  0.00  0.00    +0.000 A 
ATOM     11  C   UNL     1       1.375   2.995  21.510  0.00  0.00    +0.000 C 
ATOM     12  C   UNL     1       3.515   2.566  20.281  0.00  0.00    +0.000 A 
ATOM     13  C   UNL     1       4.455   2.878  19.293  0.00  0.00    +0.000 A 
ENDBRANCH   6   7
BRANCH   1  15
ATOM     14  C   UNL     1       7.877   6.876  18.420  0.00  0.00    +0.000 C 
ATOM     15  C   UNL     1       7.007   5.656  18.635  0.00  0.00    +0.000 C 
ATOM     16  O   UNL     1       6.875   5.223  19.781  0.00  0.00    +0.000 OA
ENDBRANCH   1  15
TORSDOF 2
ENDMDL
MODEL 4
REMARK VINA RESULT:      -6.8      1.080      1.644
REMARK  Name = 
REMARK  5 active torsions:
REMARK  status: ('A' for Active; 'I' for Inactive)
REMARK    1  A    between atoms: C_1  and  C_2
REMARK    2  A    between atoms: C_2  and  C_4
REMARK    3  A    between atoms: C_6  and  C_7
REMARK    4  A    between atoms: C_9  and  C_10
REMARK    5  A    between atoms: C_13  and  C_14
REMARK                            x       y       z     vdW  Elec       q    Type
REMARK                         _______ _______ _______ _____ _____    ______ ____
ROOT
ATOM      1  C   UNL     1       6.290   5.050  17.481  0.00  0.00    +0.000 A 
ATOM      2  S   UNL     1       7.074   5.200  15.954  0.00  0.00    +0.000 S 
ATOM      3  C   UNL     1       5.878   4.221  15.227  0.00  0.00    +0.000 A 
ATOM      4  C   UNL     1       5.961   3.875  13.781  0.00  0.00    +0.000 C 
ATOM      5  N   UNL     1       4.919   3.821  16.028  0.00  0.00    +0.000 NA
ATOM      6  C   UNL     1       5.130   4.298  17.325  0.00  0.00    +0.000 A 
ENDROOT
BRANCH   6   7
ATOM      7  C   UNL     1       4.154   3.976  18.370  0.00  0.00    +0.000 A 
ATOM      8  C   UNL     1       4.368   2.865  19.198  0.00  0.00    +0.000 A 
ATOM      9  C   UNL     1       3.471   2.549  20.227  0.00  0.00    +0.000 A 
ATOM     10  C   UNL     1       2.339   3.341  20.448  0.00  0.00    +0.000 A 
ATOM     11  C   UNL     1       1.393   3.059  21.576  0.00  0.00    +0.000 C 
ATOM     12  C   UNL     1       2.101   4.425  19.600  0.00  0.00    +0.000 A 
ATOM     13  C   UNL     1       2.987   4.726  18.561  0.00  0.00    +0.000 A 
ENDBRANCH   6   7
BRANCH   1  15
ATOM     14  C   UNL     1       7.867   6.780  18.483  0.00  0.00    +0.000 C 
ATOM     15  C   UNL     1       6.903   5.628  18.668  0.00  0.00    +0.000 C 
ATOM     16  O   UNL     1       6.671   5.234  19.812  0.00  0.00    +0.000 OA
ENDBRANCH   1  15
TORSDOF 2
ENDMDL
MODEL 5
REMARK VINA RESULT:      -6.6      1.007      1.596
REMARK  Name = 
REMARK  5 active torsions:
REMARK  status: ('A' for Active; 'I' for Inactive)
REMARK    1  A    between atoms: C_1  and  C_2
REMARK    2  A    between atoms: C_2  and  C_4
REMARK    3  A    between atoms: C_6  and  C_7
REMARK    4  A    between atoms: C_9  and  C_10
REMARK    5  A    between atoms: C_13  and  C_14
REMARK                            x       y       z     vdW  Elec       q    Type
REMARK                         _______ _______ _______ _____ _____    ______ ____
ROOT
ATOM      1  C   UNL     1       6.525   5.430  16.110  0.00  0.00    +0.000 A 
ATOM      2  S   UNL     1       7.295   5.138  14.597  0.00  0.00    +0.000 S 
ATOM      3  C   UNL     1       5.992   4.150  14.107  0.00  0.00    +0.000 A 
ATOM      4  C   UNL     1       6.014   3.471  12.781  0.00  0.00    +0.000 C 
ATOM      5  N   UNL     1       5.009   4.050  14.971  0.00  0.00    +0.000 NA
ATOM      6  C   UNL     1       5.290   4.789  16.123  0.00  0.00    +0.000 A 
ENDROOT
BRANCH   6   7
ATOM      7  C   UNL     1       4.303   4.823  17.206  0.00  0.00    +0.000 A 
ATOM      8  C   UNL     1       3.972   3.638  17.879  0.00  0.00    +0.000 A 
ATOM      9  C   UNL     1       3.057   3.642  18.939  0.00  0.00    +0.000 A 
ATOM     10  C   UNL     1       2.453   4.836  19.349  0.00  0.00    +0.000 A 
ATOM     11  C   UNL     1       1.513   4.878  20.516  0.00  0.00    +0.000 C 
ATOM     12  C   UNL     1       2.748   6.012  18.656  0.00  0.00    +0.000 A 
ATOM     13  C   UNL     1       3.647   6.000  17.584  0.00  0.00    +0.000 A 
ENDBRANCH   6   7
BRANCH   1  15
ATOM     14  C   UNL     1       7.604   5.490  18.416  0.00  0.00    +0.000 C 
ATOM     15  C   UNL     1       7.214   6.198  17.137  0.00  0.00    +0.000 C 
ATOM     16  O   UNL     1       7.502   7.390  17.013  0.00  0.00    +0.000 OA
ENDBRANCH   1  15
TORSDOF 2
ENDMDL
MODEL 6
REMARK VINA RESULT:      -6.6      0.973      1.022
REMARK  Name = 
REMARK  5 active torsions:
REMARK  status: ('A' for Active; 'I' for Inactive)
REMARK    1  A    between atoms: C_1  and  C_2
REMARK    2  A    between atoms: C_2  and  C_4
REMARK    3  A    between atoms: C_6  and  C_7
REMARK    4  A    between atoms: C_9  and  C_10
REMARK    5  A    between atoms: C_13  and  C_14
REMARK                            x       y       z     vdW  Elec       q    Type
REMARK                         _______ _______ _______ _____ _____    ______ ____
ROOT
ATOM      1  C   UNL     1       6.517   5.418  16.127  0.00  0.00    +0.000 A 
ATOM      2  S   UNL     1       7.254   5.170  14.589  0.00  0.00    +0.000 S 
ATOM      3  C   UNL     1       5.976   4.136  14.127  0.00  0.00    +0.000 A 
ATOM      4  C   UNL     1       5.987   3.470  12.794  0.00  0.00    +0.000 C 
ATOM      5  N   UNL     1       5.024   3.990  15.018  0.00  0.00    +0.000 NA
ATOM      6  C   UNL     1       5.309   4.729  16.168  0.00  0.00    +0.000 A 
ENDROOT
BRANCH   6   7
ATOM      7  C   UNL     1       4.354   4.715  17.280  0.00  0.00    +0.000 A 
ATOM      8  C   UNL     1       3.638   5.880  17.593  0.00  0.00    +0.000 A 
ATOM      9  C   UNL     1       2.695   5.890  18.629  0.00  0.00    +0.000 A 
ATOM     10  C   UNL     1       2.449   4.732  19.374  0.00  0.00    +0.000 A 
ATOM     11  C   UNL     1       1.405   4.699  20.450  0.00  0.00    +0.000 C 
ATOM     12  C   UNL     1       3.188   3.581  19.093  0.00  0.00    +0.000 A 
ATOM     13  C   UNL     1       4.144   3.580  18.071  0.00  0.00    +0.000 A 
ENDBRANCH   6   7
BRANCH   1  15
ATOM     14  C   UNL     1       7.624   5.511  18.418  0.00  0.00    +0.000 C 
ATOM     15  C   UNL     1       7.206   6.205  17.140  0.00  0.00    +0.000 C 
ATOM     16  O   UNL     1       7.471   7.401  17.007  0.00  0.00    +0.000 OA
ENDBRANCH   1  15
TORSDOF 2
ENDMDL
MODEL 7
REMARK VINA RESULT:      -6.6      3.367      4.908
REMARK  Name = 
REMARK  5 active torsions:
REMARK  status: ('A' for Active; 'I' for Inactive)
REMARK    1  A    between atoms: C_1  and  C_2
REMARK    2  A    between atoms: C_2  and  C_4
REMARK    3  A    between atoms: C_6  and  C_7
REMARK    4  A    between atoms: C_9  and  C_10
REMARK    5  A    between atoms: C_13  and  C_14
REMARK                            x       y       z     vdW  Elec       q    Type
REMARK                         _______ _______ _______ _____ _____    ______ ____
ROOT
ATOM      1  C   UNL     1       3.049   4.686  18.118  0.00  0.00    +0.000 A 
ATOM      2  S   UNL     1       4.367   3.644  17.738  0.00  0.00    +0.000 S 
ATOM      3  C   UNL     1       5.432   4.978  17.708  0.00  0.00    +0.000 A 
ATOM      4  C   UNL     1       6.872   4.788  17.374  0.00  0.00    +0.000 C 
ATOM      5  N   UNL     1       4.887   6.136  17.994  0.00  0.00    +0.000 NA
ATOM      6  C   UNL     1       3.521   5.988  18.247  0.00  0.00    +0.000 A 
ENDROOT
BRANCH   6   7
ATOM      7  C   UNL     1       2.731   7.169  18.607  0.00  0.00    +0.000 A 
ATOM      8  C   UNL     1       2.516   8.176  17.655  0.00  0.00    +0.000 A 
ATOM      9  C   UNL     1       1.738   9.300  17.958  0.00  0.00    +0.000 A 
ATOM     10  C   UNL     1       1.159   9.442  19.224  0.00  0.00    +0.000 A 
ATOM     11  C   UNL     1       0.277  10.608  19.557  0.00  0.00    +0.000 C 
ATOM     12  C   UNL     1       1.404   8.462  20.189  0.00  0.00    +0.000 A 
ATOM     13  C   UNL     1       2.197   7.350  19.889  0.00  0.00    +0.000 A 
ENDBRANCH   6   7
BRANCH   1  15
ATOM     14  C   UNL     1       1.184   3.717  19.557  0.00  0.00    +0.000 C 
ATOM     15  C   UNL     1       1.699   4.145  18.200  0.00  0.00    +0.000 C 
ATOM     16  O   UNL     1       0.956   4.026  17.225  0.00  0.00    +0.000 OA
ENDBRANCH   1  15
TORSDOF 2
ENDMDL
MODEL 8
REMARK VINA RESULT:      -6.5      3.396      5.063
REMARK  Name = 
REMARK  5 active torsions:
REMARK  status: ('A' for Active; 'I' for Inactive)
REMARK    1  A    between atoms: C_1  and  C_2
REMARK    2  A    between atoms: C_2  and  C_4
REMARK    3  A    between atoms: C_6  and  C_7
REMARK    4  A    between atoms: C_9  and  C_10
REMARK    5  A    between atoms: C_13  and  C_14
REMARK                            x       y       z     vdW  Elec       q    Type
REMARK                         _______ _______ _______ _____ _____    ______ ____
ROOT
ATOM      1  C   UNL     1       3.053   4.645  18.341  0.00  0.00    +0.000 A 
ATOM      2  S   UNL     1       4.399   3.600  18.089  0.00  0.00    +0.000 S 
ATOM      3  C   UNL     1       5.456   4.941  18.077  0.00  0.00    +0.000 A 
ATOM      4  C   UNL     1       6.916   4.751  17.845  0.00  0.00    +0.000 C 
ATOM      5  N   UNL     1       4.886   6.105  18.281  0.00  0.00    +0.000 NA
ATOM      6  C   UNL     1       3.508   5.955  18.450  0.00  0.00    +0.000 A 
ENDROOT
BRANCH   6   7
ATOM      7  C   UNL     1       2.688   7.142  18.711  0.00  0.00    +0.000 A 
ATOM      8  C   UNL     1       2.121   7.327  19.980  0.00  0.00    +0.000 A 
ATOM      9  C   UNL     1       1.360   8.466  20.270  0.00  0.00    +0.000 A 
ATOM     10  C   UNL     1       1.149   9.445  19.294  0.00  0.00    +0.000 A 
ATOM     11  C   UNL     1       0.385  10.700  19.594  0.00  0.00    +0.000 C 
ATOM     12  C   UNL     1       1.677   9.246  18.017  0.00  0.00    +0.000 A 
ATOM     13  C   UNL     1       2.420   8.098  17.724  0.00  0.00    +0.000 A 
ENDBRANCH   6   7
BRANCH   1  15
ATOM     14  C   UNL     1       1.107   3.708  19.691  0.00  0.00    +0.000 C 
ATOM     15  C   UNL     1       1.704   4.096  18.356  0.00  0.00    +0.000 C 
ATOM     16  O   UNL     1       1.025   3.938  17.340  0.00  0.00    +0.000 OA
ENDBRANCH   1  15
TORSDOF 2
ENDMDL
MODEL 9
REMARK VINA RESULT:      -6.4      2.786      5.654
REMARK  Name = 
REMARK  5 active torsions:
REMARK  status: ('A' for Active; 'I' for Inactive)
REMARK    1  A    between atoms: C_1  and  C_2
REMARK    2  A    between atoms: C_2  and  C_4
REMARK    3  A    between atoms: C_6  and  C_7
REMARK    4  A    between atoms: C_9  and  C_10
REMARK    5  A    between atoms: C_13  and  C_14
REMARK                            x       y       z     vdW  Elec       q    Type
REMARK                         _______ _______ _______ _____ _____    ______ ____
ROOT
ATOM      1  C   UNL     1       3.559   3.782  19.492  0.00  0.00    +0.000 A 
ATOM      2  S   UNL     1       2.385   4.261  20.659  0.00  0.00    +0.000 S 
ATOM      3  C   UNL     1       2.422   5.860  20.062  0.00  0.00    +0.000 A 
ATOM      4  C   UNL     1       1.592   6.923  20.695  0.00  0.00    +0.000 C 
ATOM      5  N   UNL     1       3.216   6.057  19.036  0.00  0.00    +0.000 NA
ATOM      6  C   UNL     1       3.868   4.872  18.684  0.00  0.00    +0.000 A 
ENDROOT
BRANCH   6   7
ATOM      7  C   UNL     1       4.789   4.877  17.544  0.00  0.00    +0.000 A 
ATOM      8  C   UNL     1       4.453   4.173  16.379  0.00  0.00    +0.000 A 
ATOM      9  C   UNL     1       5.297   4.184  15.261  0.00  0.00    +0.000 A 
ATOM     10  C   UNL     1       6.498   4.901  15.287  0.00  0.00    +0.000 A 
ATOM     11  C   UNL     1       7.392   4.976  14.086  0.00  0.00    +0.000 C 
ATOM     12  C   UNL     1       6.857   5.570  16.459  0.00  0.00    +0.000 A 
ATOM     13  C   UNL     1       6.022   5.540  17.581  0.00  0.00    +0.000 A 
ENDBRANCH   6   7
BRANCH   1  15
ATOM     14  C   UNL     1       3.545   1.431  18.514  0.00  0.00    +0.000 C 
ATOM     15  C   UNL     1       4.090   2.427  19.515  0.00  0.00    +0.000 C 
ATOM     16  O   UNL     1       4.964   2.054  20.300  0.00  0.00    +0.000 OA
ENDBRANCH   1  15
TORSDOF 2
ENDMDL
