MODEL 1
REMARK VINA RESULT:      -8.9      0.000      0.000
REMARK  Name = 
REMARK  8 active torsions:
REMARK  status: ('A' for Active; 'I' for Inactive)
REMARK    1  A    between atoms: C_2  and  C_12
REMARK    2  A    between atoms: N_3  and  C_4
REMARK    3  A    between atoms: C_4  and  C_5
REMARK    4  A    between atoms: C_5  and  C_6
REMARK    5  A    between atoms: C_14  and  C_15
REMARK    6  A    between atoms: C_23  and  N_24
REMARK    7  A    between atoms: N_24  and  C_25
REMARK    8  A    between atoms: C_25  and  C_26
REMARK                            x       y       z     vdW  Elec       q    Type
REMARK                         _______ _______ _______ _____ _____    ______ ____
ROOT
ATOM      1  C   UNL     1       6.045   5.554  17.612  0.00  0.00    +0.000 A 
ATOM      2  C   UNL     1       5.165   5.178  18.650  0.00  0.00    +0.000 A 
ATOM      3  C   UNL     1       4.048   4.368  18.411  0.00  0.00    +0.000 A 
ATOM      4  C   UNL     1       3.867   4.013  17.079  0.00  0.00    +0.000 A 
ATOM      5  N   UNL     1       4.681   4.372  16.053  0.00  0.00    +0.000 NA
ATOM      6  C   UNL     1       5.768   5.144  16.299  0.00  0.00    +0.000 A 
ENDROOT
BRANCH   3   7
ATOM      7  C   UNL     1       3.134   3.912  19.477  0.00  0.00    +0.000 A 
ATOM      8  C   UNL     1       1.819   4.394  19.604  0.00  0.00    +0.000 A 
ATOM      9  C   UNL     1       0.983   3.930  20.625  0.00  0.00    +0.000 A 
ATOM     10  C   UNL     1       1.479   2.986  21.504  0.00  0.00    +0.000 A 
ATOM     11  N   UNL     1       2.730   2.494  21.432  0.00  0.00    +0.000 NA
ATOM     12  C   UNL     1       3.516   2.969  20.437  0.00  0.00    +0.000 A 
ENDBRANCH   3   7
BRANCH   1  14
ATOM     13  O   UNL     1       7.998   6.031  18.832  0.00  0.00    +0.000 OA
ATOM     14  C   UNL     1       7.185   6.424  18.007  0.00  0.00    +0.000 C 
ATOM     15  N   UNL     1       7.291   7.647  17.371  0.00  0.00    +0.000 N 
ATOM     16  H   UNL     1       6.734   7.778  16.527  0.00  0.00    +0.000 HD
BRANCH  15  17
ATOM     17  C   UNL     1       8.448   8.494  17.595  0.00  0.00    +0.000 C 
BRANCH  17  18
ATOM     18  C   UNL     1       8.049   9.875  18.114  0.00  0.00    +0.000 C 
BRANCH  18  19
ATOM     19  C   UNL     1       9.209  10.637  18.705  0.00  0.00    +0.000 A 
ATOM     20  C   UNL     1      10.237  11.112  17.880  0.00  0.00    +0.000 A 
ATOM     21  C   UNL     1      11.320  11.804  18.423  0.00  0.00    +0.000 A 
ATOM     22  C   UNL     1      11.388  12.026  19.797  0.00  0.00    +0.000 A 
ATOM     23  C   UNL     1      10.370  11.560  20.627  0.00  0.00    +0.000 A 
ATOM     24  C   UNL     1       9.286  10.866  20.086  0.00  0.00    +0.000 A 
ENDBRANCH  18  19
ENDBRANCH  17  18
ENDBRANCH  15  17
ENDBRANCH   1  14
BRANCH   6  25
ATOM     25  N   UNL     1       6.628   5.411  15.203  0.00  0.00    +0.000 N 
ATOM     26  H   UNL     1       6.259   6.166  14.633  0.00  0.00    +0.000 HD
BRANCH  25  27
ATOM     27  C   UNL     1       6.858   4.205  14.399  0.00  0.00    +0.000 C 
BRANCH  27  28
ATOM     28  C   UNL     1       6.374   4.388  12.987  0.00  0.00    +0.000 C 
ATOM     29  C   UNL     1       7.097   3.842  11.780  0.00  0.00    +0.000 C 
ATOM     30  C   UNL     1       5.845   3.169  12.263  0.00  0.00    +0.000 C 
ENDBRANCH  27  28
ENDBRANCH  25  27
ENDBRANCH   6  25
TORSDOF 8
ENDMDL
MODEL 2
REMARK VINA RESULT:      -8.7      0.784      1.167
REMARK  Name = 
REMARK  8 active torsions:
REMARK  status: ('A' for Active; 'I' for Inactive)
REMARK    1  A    between atoms: C_2  and  C_12
REMARK    2  A    between atoms: N_3  and  C_4
REMARK    3  A    between atoms: C_4  and  C_5
REMARK    4  A    between atoms: C_5  and  C_6
REMARK    5  A    between atoms: C_14  and  C_15
REMARK    6  A    between atoms: C_23  and  N_24
REMARK    7  A    between atoms: N_24  and  C_25
REMARK    8  A    between atoms: C_25  and  C_26
REMARK                            x       y       z     vdW  Elec       q    Type
REMARK                         _______ _______ _______ _____ _____    ______ ____
ROOT
ATOM      1  C   UNL     1       6.331   5.209  17.861  0.00  0.00    +0.000 A 
ATOM      2  C   UNL     1       5.248   4.964  18.733  0.00  0.00    +0.000 A 
ATOM      3  C   UNL     1       4.188   4.124  18.372  0.00  0.00    +0.000 A 
ATOM      4  C   UNL     1       4.278   3.600  17.087  0.00  0.00    +0.000 A 
ATOM      5  N   UNL     1       5.293   3.831  16.215  0.00  0.00    +0.000 NA
ATOM      6  C   UNL     1       6.322   4.633  16.582  0.00  0.00    +0.000 A 
ENDROOT
BRANCH   3   7
ATOM      7  C   UNL     1       3.064   3.801  19.274  0.00  0.00    +0.000 A 
ATOM      8  C   UNL     1       2.139   4.769  19.707  0.00  0.00    +0.000 A 
ATOM      9  C   UNL     1       1.086   4.420  20.557  0.00  0.00    +0.000 A 
ATOM     10  C   UNL     1       0.973   3.103  20.960  0.00  0.00    +0.000 A 
ATOM     11  N   UNL     1       1.831   2.138  20.581  0.00  0.00    +0.000 NA
ATOM     12  C   UNL     1       2.845   2.510  19.763  0.00  0.00    +0.000 A 
ENDBRANCH   3   7
BRANCH   1  14
ATOM     13  O   UNL     1       8.216   5.723  19.169  0.00  0.00    +0.000 OA
ATOM     14  C   UNL     1       7.383   6.129  18.371  0.00  0.00    +0.000 C 
ATOM     15  N   UNL     1       7.387   7.417  17.869  0.00  0.00    +0.000 N 
ATOM     16  H   UNL     1       6.833   7.587  17.031  0.00  0.00    +0.000 HD
BRANCH  15  17
ATOM     17  C   UNL     1       8.460   8.334  18.207  0.00  0.00    +0.000 C 
BRANCH  17  18
ATOM     18  C   UNL     1       8.157   9.758  17.744  0.00  0.00    +0.000 C 
BRANCH  18  19
ATOM     19  C   UNL     1       9.006  10.793  18.440  0.00  0.00    +0.000 A 
ATOM     20  C   UNL     1       9.564  10.522  19.696  0.00  0.00    +0.000 A 
ATOM     21  C   UNL     1      10.337  11.481  20.351  0.00  0.00    +0.000 A 
ATOM     22  C   UNL     1      10.560  12.722  19.758  0.00  0.00    +0.000 A 
ATOM     23  C   UNL     1      10.012  13.003  18.508  0.00  0.00    +0.000 A 
ATOM     24  C   UNL     1       9.236  12.044  17.851  0.00  0.00    +0.000 A 
ENDBRANCH  18  19
ENDBRANCH  17  18
ENDBRANCH  15  17
ENDBRANCH   1  14
BRANCH   6  25
ATOM     25  N   UNL     1       7.395   4.764  15.663  0.00  0.00    +0.000 N 
ATOM     26  H   UNL     1       8.053   5.469  15.978  0.00  0.00    +0.000 HD
BRANCH  25  27
ATOM     27  C   UNL     1       6.907   5.061  14.311  0.00  0.00    +0.000 C 
BRANCH  27  28
ATOM     28  C   UNL     1       6.744   3.804  13.500  0.00  0.00    +0.000 C 
ATOM     29  C   UNL     1       5.592   3.566  12.554  0.00  0.00    +0.000 C 
ATOM     30  C   UNL     1       6.947   3.903  12.004  0.00  0.00    +0.000 C 
ENDBRANCH  27  28
ENDBRANCH  25  27
ENDBRANCH   6  25
TORSDOF 8
ENDMDL
MODEL 3
REMARK VINA RESULT:      -8.6      0.598      1.090
REMARK  Name = 
REMARK  8 active torsions:
REMARK  status: ('A' for Active; 'I' for Inactive)
REMARK    1  A    between atoms: C_2  and  C_12
REMARK    2  A    between atoms: N_3  and  C_4
REMARK    3  A    between atoms: C_4  and  C_5
REMARK    4  A    between atoms: C_5  and  C_6
REMARK    5  A    between atoms: C_14  and  C_15
REMARK    6  A    between atoms: C_23  and  N_24
REMARK    7  A    between atoms: N_24  and  C_25
REMARK    8  A    between atoms: C_25  and  C_26
REMARK                            x       y       z     vdW  Elec       q    Type
REMARK                         _______ _______ _______ _____ _____    ______ ____
ROOT
ATOM      1  C   UNL     1       6.081   5.396  17.789  0.00  0.00    +0.000 A 
ATOM      2  C   UNL     1       5.102   5.009  18.730  0.00  0.00    +0.000 A 
ATOM      3  C   UNL     1       3.955   4.302  18.351  0.00  0.00    +0.000 A 
ATOM      4  C   UNL     1       3.852   4.059  16.985  0.00  0.00    +0.000 A 
ATOM      5  N   UNL     1       4.763   4.434  16.051  0.00  0.00    +0.000 NA
ATOM      6  C   UNL     1       5.877   5.105  16.433  0.00  0.00    +0.000 A 
ENDROOT
BRANCH   3   7
ATOM      7  C   UNL     1       2.936   3.834  19.310  0.00  0.00    +0.000 A 
ATOM      8  C   UNL     1       1.778   3.144  18.908  0.00  0.00    +0.000 A 
ATOM      9  C   UNL     1       0.839   2.713  19.851  0.00  0.00    +0.000 A 
ATOM     10  C   UNL     1       1.076   2.980  21.186  0.00  0.00    +0.000 A 
ATOM     11  N   UNL     1       2.163   3.640  21.626  0.00  0.00    +0.000 NA
ATOM     12  C   UNL     1       3.050   4.050  20.688  0.00  0.00    +0.000 A 
ENDBRANCH   3   7
BRANCH   1  14
ATOM     13  O   UNL     1       8.089   5.575  19.001  0.00  0.00    +0.000 OA
ATOM     14  C   UNL     1       7.244   6.150  18.331  0.00  0.00    +0.000 C 
ATOM     15  N   UNL     1       7.330   7.490  18.003  0.00  0.00    +0.000 N 
ATOM     16  H   UNL     1       6.737   7.818  17.240  0.00  0.00    +0.000 HD
BRANCH  15  17
ATOM     17  C   UNL     1       8.501   8.264  18.372  0.00  0.00    +0.000 C 
BRANCH  17  18
ATOM     18  C   UNL     1       8.333   9.745  18.035  0.00  0.00    +0.000 C 
BRANCH  18  19
ATOM     19  C   UNL     1       9.401  10.612  18.655  0.00  0.00    +0.000 A 
ATOM     20  C   UNL     1       9.428  10.818  20.041  0.00  0.00    +0.000 A 
ATOM     21  C   UNL     1      10.405  11.630  20.618  0.00  0.00    +0.000 A 
ATOM     22  C   UNL     1      11.364  12.246  19.816  0.00  0.00    +0.000 A 
ATOM     23  C   UNL     1      11.348  12.046  18.436  0.00  0.00    +0.000 A 
ATOM     24  C   UNL     1      10.371  11.234  17.856  0.00  0.00    +0.000 A 
ENDBRANCH  18  19
ENDBRANCH  17  18
ENDBRANCH  15  17
ENDBRANCH   1  14
BRANCH   6  25
ATOM     25  N   UNL     1       6.833   5.390  15.424  0.00  0.00    +0.000 N 
ATOM     26  H   UNL     1       6.567   6.217  14.900  0.00  0.00    +0.000 HD
BRANCH  25  27
ATOM     27  C   UNL     1       7.029   4.239  14.534  0.00  0.00    +0.000 C 
BRANCH  27  28
ATOM     28  C   UNL     1       6.517   4.527  13.148  0.00  0.00    +0.000 C 
ATOM     29  C   UNL     1       7.249   4.126  11.890  0.00  0.00    +0.000 C 
ATOM     30  C   UNL     1       6.035   3.356  12.321  0.00  0.00    +0.000 C 
ENDBRANCH  27  28
ENDBRANCH  25  27
ENDBRANCH   6  25
TORSDOF 8
ENDMDL
MODEL 4
REMARK VINA RESULT:      -8.6      1.005      1.070
REMARK  Name = 
REMARK  8 active torsions:
REMARK  status: ('A' for Active; 'I' for Inactive)
REMARK    1  A    between atoms: C_2  and  C_12
REMARK    2  A    between atoms: N_3  and  C_4
REMARK    3  A    between atoms: C_4  and  C_5
REMARK    4  A    between atoms: C_5  and  C_6
REMARK    5  A    between atoms: C_14  and  C_15
REMARK    6  A    between atoms: C_23  and  N_24
REMARK    7  A    between atoms: N_24  and  C_25
REMARK    8  A    between atoms: C_25  and  C_26
REMARK                            x       y       z     vdW  Elec       q    Type
REMARK                         _______ _______ _______ _____ _____    ______ ____
ROOT
ATOM      1  C   UNL     1       5.868   5.312  16.960  0.00  0.00    +0.000 A 
ATOM      2  C   UNL     1       5.203   5.052  18.178  0.00  0.00    +0.000 A 
ATOM      3  C   UNL     1       4.055   4.253  18.234  0.00  0.00    +0.000 A 
ATOM      4  C   UNL     1       3.616   3.786  17.000  0.00  0.00    +0.000 A 
ATOM      5  N   UNL     1       4.217   4.033  15.808  0.00  0.00    +0.000 NA
ATOM      6  C   UNL     1       5.337   4.795  15.769  0.00  0.00    +0.000 A 
ENDROOT
BRANCH   3   7
ATOM      7  C   UNL     1       3.362   3.915  19.493  0.00  0.00    +0.000 A 
ATOM      8  C   UNL     1       2.245   4.633  19.959  0.00  0.00    +0.000 A 
ATOM      9  C   UNL     1       1.614   4.277  21.155  0.00  0.00    +0.000 A 
ATOM     10  C   UNL     1       2.111   3.201  21.866  0.00  0.00    +0.000 A 
ATOM     11  N   UNL     1       3.178   2.483  21.470  0.00  0.00    +0.000 NA
ATOM     12  C   UNL     1       3.771   2.858  20.312  0.00  0.00    +0.000 A 
ENDBRANCH   3   7
BRANCH   1  14
ATOM     13  O   UNL     1       7.803   6.315  16.077  0.00  0.00    +0.000 OA
ATOM     14  C   UNL     1       7.070   6.185  17.047  0.00  0.00    +0.000 C 
ATOM     15  N   UNL     1       7.275   6.853  18.239  0.00  0.00    +0.000 N 
ATOM     16  H   UNL     1       6.489   6.892  18.888  0.00  0.00    +0.000 HD
BRANCH  15  17
ATOM     17  C   UNL     1       8.342   7.829  18.360  0.00  0.00    +0.000 C 
BRANCH  17  18
ATOM     18  C   UNL     1       7.925   9.197  17.819  0.00  0.00    +0.000 C 
BRANCH  18  19
ATOM     19  C   UNL     1       8.715  10.331  18.424  0.00  0.00    +0.000 A 
ATOM     20  C   UNL     1       8.779  11.572  17.775  0.00  0.00    +0.000 A 
ATOM     21  C   UNL     1       9.520  12.620  18.322  0.00  0.00    +0.000 A 
ATOM     22  C   UNL     1      10.206  12.439  19.522  0.00  0.00    +0.000 A 
ATOM     23  C   UNL     1      10.148  11.210  20.176  0.00  0.00    +0.000 A 
ATOM     24  C   UNL     1       9.407  10.159  19.630  0.00  0.00    +0.000 A 
ENDBRANCH  18  19
ENDBRANCH  17  18
ENDBRANCH  15  17
ENDBRANCH   1  14
BRANCH   6  25
ATOM     25  N   UNL     1       5.970   4.943  14.508  0.00  0.00    +0.000 N 
ATOM     26  H   UNL     1       5.382   5.471  13.870  0.00  0.00    +0.000 HD
BRANCH  25  27
ATOM     27  C   UNL     1       6.333   3.640  13.937  0.00  0.00    +0.000 C 
BRANCH  27  28
ATOM     28  C   UNL     1       6.189   3.640  12.439  0.00  0.00    +0.000 C 
ATOM     29  C   UNL     1       6.158   2.383  11.605  0.00  0.00    +0.000 C 
ATOM     30  C   UNL     1       4.885   3.137  11.859  0.00  0.00    +0.000 C 
ENDBRANCH  27  28
ENDBRANCH  25  27
ENDBRANCH   6  25
TORSDOF 8
ENDMDL
MODEL 5
REMARK VINA RESULT:      -8.6      4.402      8.056
REMARK  Name = 
REMARK  8 active torsions:
REMARK  status: ('A' for Active; 'I' for Inactive)
REMARK    1  A    between atoms: C_2  and  C_12
REMARK    2  A    between atoms: N_3  and  C_4
REMARK    3  A    between atoms: C_4  and  C_5
REMARK    4  A    between atoms: C_5  and  C_6
REMARK    5  A    between atoms: C_14  and  C_15
REMARK    6  A    between atoms: C_23  and  N_24
REMARK    7  A    between atoms: N_24  and  C_25
REMARK    8  A    between atoms: C_25  and  C_26
REMARK                            x       y       z     vdW  Elec       q    Type
REMARK                         _______ _______ _______ _____ _____    ______ ____
ROOT
ATOM      1  C   UNL     1       3.317   6.114  18.891  0.00  0.00    +0.000 A 
ATOM      2  C   UNL     1       4.078   6.069  17.702  0.00  0.00    +0.000 A 
ATOM      3  C   UNL     1       4.928   4.995  17.412  0.00  0.00    +0.000 A 
ATOM      4  C   UNL     1       4.985   4.021  18.403  0.00  0.00    +0.000 A 
ATOM      5  N   UNL     1       4.285   4.042  19.565  0.00  0.00    +0.000 NA
ATOM      6  C   UNL     1       3.453   5.079  19.828  0.00  0.00    +0.000 A 
ENDROOT
BRANCH   3   7
ATOM      7  C   UNL     1       5.698   4.886  16.158  0.00  0.00    +0.000 A 
ATOM      8  C   UNL     1       5.231   4.166  15.042  0.00  0.00    +0.000 A 
ATOM      9  C   UNL     1       5.990   4.092  13.870  0.00  0.00    +0.000 A 
ATOM     10  C   UNL     1       7.208   4.744  13.833  0.00  0.00    +0.000 A 
ATOM     11  N   UNL     1       7.706   5.442  14.871  0.00  0.00    +0.000 NA
ATOM     12  C   UNL     1       6.950   5.488  15.993  0.00  0.00    +0.000 A 
ENDBRANCH   3   7
BRANCH   1  14
ATOM     13  O   UNL     1       1.954   7.549  20.160  0.00  0.00    +0.000 OA
ATOM     14  C   UNL     1       2.463   7.319  19.073  0.00  0.00    +0.000 C 
ATOM     15  N   UNL     1       2.322   8.158  17.984  0.00  0.00    +0.000 N 
ATOM     16  H   UNL     1       2.980   8.032  17.215  0.00  0.00    +0.000 HD
BRANCH  15  17
ATOM     17  C   UNL     1       1.623   9.424  18.117  0.00  0.00    +0.000 C 
BRANCH  17  18
ATOM     18  C   UNL     1       0.191   9.340  17.590  0.00  0.00    +0.000 C 
BRANCH  18  19
ATOM     19  C   UNL     1      -0.729  10.347  18.233  0.00  0.00    +0.000 A 
ATOM     20  C   UNL     1      -0.243  11.224  19.213  0.00  0.00    +0.000 A 
ATOM     21  C   UNL     1      -1.093  12.148  19.822  0.00  0.00    +0.000 A 
ATOM     22  C   UNL     1      -2.438  12.204  19.460  0.00  0.00    +0.000 A 
ATOM     23  C   UNL     1      -2.931  11.339  18.486  0.00  0.00    +0.000 A 
ATOM     24  C   UNL     1      -2.083  10.412  17.875  0.00  0.00    +0.000 A 
ENDBRANCH  18  19
ENDBRANCH  17  18
ENDBRANCH  15  17
ENDBRANCH   1  14
BRANCH   6  25
ATOM     25  N   UNL     1       2.682   5.001  21.016  0.00  0.00    +0.000 N 
ATOM     26  H   UNL     1       3.266   5.148  21.833  0.00  0.00    +0.000 HD
BRANCH  25  27
ATOM     27  C   UNL     1       1.963   3.724  21.102  0.00  0.00    +0.000 C 
BRANCH  27  28
ATOM     28  C   UNL     1       0.861   3.647  20.081  0.00  0.00    +0.000 C 
ATOM     29  C   UNL     1       1.098   3.357  18.619  0.00  0.00    +0.000 C 
ATOM     30  C   UNL     1       0.530   2.288  19.506  0.00  0.00    +0.000 C 
ENDBRANCH  27  28
ENDBRANCH  25  27
ENDBRANCH   6  25
TORSDOF 8
ENDMDL
MODEL 6
REMARK VINA RESULT:      -8.5      1.229      5.688
REMARK  Name = 
REMARK  8 active torsions:
REMARK  status: ('A' for Active; 'I' for Inactive)
REMARK    1  A    between atoms: C_2  and  C_12
REMARK    2  A    between atoms: N_3  and  C_4
REMARK    3  A    between atoms: C_4  and  C_5
REMARK    4  A    between atoms: C_5  and  C_6
REMARK    5  A    between atoms: C_14  and  C_15
REMARK    6  A    between atoms: C_23  and  N_24
REMARK    7  A    between atoms: N_24  and  C_25
REMARK    8  A    between atoms: C_25  and  C_26
REMARK                            x       y       z     vdW  Elec       q    Type
REMARK                         _______ _______ _______ _____ _____    ______ ____
ROOT
ATOM      1  C   UNL     1       6.480   5.365  17.720  0.00  0.00    +0.000 A 
ATOM      2  C   UNL     1       6.833   5.208  16.361  0.00  0.00    +0.000 A 
ATOM      3  C   UNL     1       6.093   4.389  15.499  0.00  0.00    +0.000 A 
ATOM      4  C   UNL     1       5.030   3.727  16.103  0.00  0.00    +0.000 A 
ATOM      5  N   UNL     1       4.675   3.838  17.408  0.00  0.00    +0.000 NA
ATOM      6  C   UNL     1       5.390   4.646  18.230  0.00  0.00    +0.000 A 
ENDROOT
BRANCH   3   7
ATOM      7  C   UNL     1       6.398   4.240  14.062  0.00  0.00    +0.000 A 
ATOM      8  C   UNL     1       5.693   3.354  13.227  0.00  0.00    +0.000 A 
ATOM      9  C   UNL     1       6.010   3.247  11.869  0.00  0.00    +0.000 A 
ATOM     10  C   UNL     1       7.030   4.033  11.367  0.00  0.00    +0.000 A 
ATOM     11  N   UNL     1       7.740   4.893  12.121  0.00  0.00    +0.000 NA
ATOM     12  C   UNL     1       7.413   4.968  13.433  0.00  0.00    +0.000 A 
ENDBRANCH   3   7
BRANCH   1  14
ATOM     13  O   UNL     1       7.837   5.861  19.575  0.00  0.00    +0.000 OA
ATOM     14  C   UNL     1       7.360   6.258  18.522  0.00  0.00    +0.000 C 
ATOM     15  N   UNL     1       7.631   7.508  17.997  0.00  0.00    +0.000 N 
ATOM     16  H   UNL     1       7.411   7.653  17.012  0.00  0.00    +0.000 HD
BRANCH  15  17
ATOM     17  C   UNL     1       8.589   8.385  18.646  0.00  0.00    +0.000 C 
BRANCH  17  18
ATOM     18  C   UNL     1       8.491   9.818  18.124  0.00  0.00    +0.000 C 
BRANCH  18  19
ATOM     19  C   UNL     1       9.553  10.724  18.696  0.00  0.00    +0.000 A 
ATOM     20  C   UNL     1       9.623  10.945  20.078  0.00  0.00    +0.000 A 
ATOM     21  C   UNL     1      10.594  11.793  20.611  0.00  0.00    +0.000 A 
ATOM     22  C   UNL     1      11.503  12.431  19.770  0.00  0.00    +0.000 A 
ATOM     23  C   UNL     1      11.444  12.216  18.394  0.00  0.00    +0.000 A 
ATOM     24  C   UNL     1      10.473  11.368  17.857  0.00  0.00    +0.000 A 
ENDBRANCH  18  19
ENDBRANCH  17  18
ENDBRANCH  15  17
ENDBRANCH   1  14
BRANCH   6  25
ATOM     25  N   UNL     1       4.917   4.790  19.559  0.00  0.00    +0.000 N 
ATOM     26  H   UNL     1       5.688   4.767  20.219  0.00  0.00    +0.000 HD
BRANCH  25  27
ATOM     27  C   UNL     1       3.913   3.770  19.883  0.00  0.00    +0.000 C 
BRANCH  27  28
ATOM     28  C   UNL     1       2.605   4.397  20.284  0.00  0.00    +0.000 C 
ATOM     29  C   UNL     1       1.260   3.783  19.983  0.00  0.00    +0.000 C 
ATOM     30  C   UNL     1       1.809   3.721  21.378  0.00  0.00    +0.000 C 
ENDBRANCH  27  28
ENDBRANCH  25  27
ENDBRANCH   6  25
TORSDOF 8
ENDMDL
MODEL 7
REMARK VINA RESULT:      -8.5      1.328      5.547
REMARK  Name = 
REMARK  8 active torsions:
REMARK  status: ('A' for Active; 'I' for Inactive)
REMARK    1  A    between atoms: C_2  and  C_12
REMARK    2  A    between atoms: N_3  and  C_4
REMARK    3  A    between atoms: C_4  and  C_5
REMARK    4  A    between atoms: C_5  and  C_6
REMARK    5  A    between atoms: C_14  and  C_15
REMARK    6  A    between atoms: C_23  and  N_24
REMARK    7  A    between atoms: N_24  and  C_25
REMARK    8  A    between atoms: C_25  and  C_26
REMARK                            x       y       z     vdW  Elec       q    Type
REMARK                         _______ _______ _______ _____ _____    ______ ____
ROOT
ATOM      1  C   UNL     1       6.495   5.547  17.716  0.00  0.00    +0.000 A 
ATOM      2  C   UNL     1       6.850   5.322  16.368  0.00  0.00    +0.000 A 
ATOM      3  C   UNL     1       6.073   4.515  15.528  0.00  0.00    +0.000 A 
ATOM      4  C   UNL     1       4.970   3.935  16.143  0.00  0.00    +0.000 A 
ATOM      5  N   UNL     1       4.611   4.112  17.440  0.00  0.00    +0.000 NA
ATOM      6  C   UNL     1       5.362   4.907  18.240  0.00  0.00    +0.000 A 
ENDROOT
BRANCH   3   7
ATOM      7  C   UNL     1       6.381   4.298  14.100  0.00  0.00    +0.000 A 
ATOM      8  C   UNL     1       7.388   5.013  13.426  0.00  0.00    +0.000 A 
ATOM      9  C   UNL     1       7.652   4.773  12.074  0.00  0.00    +0.000 A 
ATOM     10  C   UNL     1       6.902   3.815  11.417  0.00  0.00    +0.000 A 
ATOM     11  N   UNL     1       5.924   3.106  12.011  0.00  0.00    +0.000 NA
ATOM     12  C   UNL     1       5.689   3.368  13.318  0.00  0.00    +0.000 A 
ENDBRANCH   3   7
BRANCH   1  14
ATOM     13  O   UNL     1       7.932   5.999  19.522  0.00  0.00    +0.000 OA
ATOM     14  C   UNL     1       7.416   6.418  18.496  0.00  0.00    +0.000 C 
ATOM     15  N   UNL     1       7.679   7.673  17.981  0.00  0.00    +0.000 N 
ATOM     16  H   UNL     1       7.420   7.836  17.008  0.00  0.00    +0.000 HD
BRANCH  15  17
ATOM     17  C   UNL     1       8.671   8.530  18.603  0.00  0.00    +0.000 C 
BRANCH  17  18
ATOM     18  C   UNL     1       8.583   9.967  18.089  0.00  0.00    +0.000 C 
BRANCH  18  19
ATOM     19  C   UNL     1       9.633  10.869  18.690  0.00  0.00    +0.000 A 
ATOM     20  C   UNL     1      10.554  11.529  17.865  0.00  0.00    +0.000 A 
ATOM     21  C   UNL     1      11.536  12.352  18.416  0.00  0.00    +0.000 A 
ATOM     22  C   UNL     1      11.610  12.524  19.797  0.00  0.00    +0.000 A 
ATOM     23  C   UNL     1      10.698  11.874  20.627  0.00  0.00    +0.000 A 
ATOM     24  C   UNL     1       9.714  11.048  20.078  0.00  0.00    +0.000 A 
ENDBRANCH  18  19
ENDBRANCH  17  18
ENDBRANCH  15  17
ENDBRANCH   1  14
BRANCH   6  25
ATOM     25  N   UNL     1       4.887   5.125  19.559  0.00  0.00    +0.000 N 
ATOM     26  H   UNL     1       5.095   4.327  20.152  0.00  0.00    +0.000 HD
BRANCH  25  27
ATOM     27  C   UNL     1       3.451   5.430  19.566  0.00  0.00    +0.000 C 
BRANCH  27  28
ATOM     28  C   UNL     1       2.681   4.420  20.373  0.00  0.00    +0.000 C 
ATOM     29  C   UNL     1       1.191   4.495  20.599  0.00  0.00    +0.000 C 
ATOM     30  C   UNL     1       1.745   3.493  19.629  0.00  0.00    +0.000 C 
ENDBRANCH  27  28
ENDBRANCH  25  27
ENDBRANCH   6  25
TORSDOF 8
ENDMDL
MODEL 8
REMARK VINA RESULT:      -8.4      1.058      1.284
REMARK  Name = 
REMARK  8 active torsions:
REMARK  status: ('A' for Active; 'I' for Inactive)
REMARK    1  A    between atoms: C_2  and  C_12
REMARK    2  A    between atoms: N_3  and  C_4
REMARK    3  A    between atoms: C_4  and  C_5
REMARK    4  A    between atoms: C_5  and  C_6
REMARK    5  A    between atoms: C_14  and  C_15
REMARK    6  A    between atoms: C_23  and  N_24
REMARK    7  A    between atoms: N_24  and  C_25
REMARK    8  A    between atoms: C_25  and  C_26
REMARK                            x       y       z     vdW  Elec       q    Type
REMARK                         _______ _______ _______ _____ _____    ______ ____
ROOT
ATOM      1  C   UNL     1       5.948   5.724  16.858  0.00  0.00    +0.000 A 
ATOM      2  C   UNL     1       5.235   5.489  18.055  0.00  0.00    +0.000 A 
ATOM      3  C   UNL     1       4.230   4.518  18.134  0.00  0.00    +0.000 A 
ATOM      4  C   UNL     1       3.974   3.853  16.939  0.00  0.00    +0.000 A 
ATOM      5  N   UNL     1       4.624   4.067  15.767  0.00  0.00    +0.000 NA
ATOM      6  C   UNL     1       5.607   4.999  15.707  0.00  0.00    +0.000 A 
ENDROOT
BRANCH   3   7
ATOM      7  C   UNL     1       3.499   4.206  19.378  0.00  0.00    +0.000 A 
ATOM      8  C   UNL     1       3.541   2.936  19.983  0.00  0.00    +0.000 A 
ATOM      9  C   UNL     1       2.838   2.684  21.165  0.00  0.00    +0.000 A 
ATOM     10  C   UNL     1       2.104   3.711  21.727  0.00  0.00    +0.000 A 
ATOM     11  N   UNL     1       2.025   4.943  21.189  0.00  0.00    +0.000 NA
ATOM     12  C   UNL     1       2.711   5.153  20.040  0.00  0.00    +0.000 A 
ENDBRANCH   3   7
BRANCH   1  14
ATOM     13  O   UNL     1       8.003   6.690  16.251  0.00  0.00    +0.000 OA
ATOM     14  C   UNL     1       6.983   6.791  16.915  0.00  0.00    +0.000 C 
ATOM     15  N   UNL     1       6.707   7.891  17.706  0.00  0.00    +0.000 N 
ATOM     16  H   UNL     1       5.741   8.011  18.009  0.00  0.00    +0.000 HD
BRANCH  15  17
ATOM     17  C   UNL     1       7.598   9.037  17.708  0.00  0.00    +0.000 C 
BRANCH  17  18
ATOM     18  C   UNL     1       8.665   8.926  18.796  0.00  0.00    +0.000 C 
BRANCH  18  19
ATOM     19  C   UNL     1       9.350  10.239  19.081  0.00  0.00    +0.000 A 
ATOM     20  C   UNL     1       9.864  11.011  18.029  0.00  0.00    +0.000 A 
ATOM     21  C   UNL     1      10.512  12.219  18.287  0.00  0.00    +0.000 A 
ATOM     22  C   UNL     1      10.656  12.668  19.598  0.00  0.00    +0.000 A 
ATOM     23  C   UNL     1      10.148  11.910  20.652  0.00  0.00    +0.000 A 
ATOM     24  C   UNL     1       9.499  10.699  20.396  0.00  0.00    +0.000 A 
ENDBRANCH  18  19
ENDBRANCH  17  18
ENDBRANCH  15  17
ENDBRANCH   1  14
BRANCH   6  25
ATOM     25  N   UNL     1       6.309   5.115  14.480  0.00  0.00    +0.000 N 
ATOM     26  H   UNL     1       5.814   5.727  13.839  0.00  0.00    +0.000 HD
BRANCH  25  27
ATOM     27  C   UNL     1       6.549   3.799  13.876  0.00  0.00    +0.000 C 
BRANCH  27  28
ATOM     28  C   UNL     1       6.197   3.795  12.413  0.00  0.00    +0.000 C 
ATOM     29  C   UNL     1       5.987   2.535  11.609  0.00  0.00    +0.000 C 
ATOM     30  C   UNL     1       4.802   3.356  12.028  0.00  0.00    +0.000 C 
ENDBRANCH  27  28
ENDBRANCH  25  27
ENDBRANCH   6  25
TORSDOF 8
ENDMDL
MODEL 9
REMARK VINA RESULT:      -8.4      2.637      3.246
REMARK  Name = 
REMARK  8 active torsions:
REMARK  status: ('A' for Active; 'I' for Inactive)
REMARK    1  A    between atoms: C_2  and  C_12
REMARK    2  A    between atoms: N_3  and  C_4
REMARK    3  A    between atoms: C_4  and  C_5
REMARK    4  A    between atoms: C_5  and  C_6
REMARK    5  A    between atoms: C_14  and  C_15
REMARK    6  A    between atoms: C_23  and  N_24
REMARK    7  A    between atoms: N_24  and  C_25
REMARK    8  A    between atoms: C_25  and  C_26
REMARK                            x       y       z     vdW  Elec       q    Type
REMARK                         _______ _______ _______ _____ _____    ______ ____
ROOT
ATOM      1  C   UNL     1       5.475   6.468  17.484  0.00  0.00    +0.000 A 
ATOM      2  C   UNL     1       4.517   7.406  17.926  0.00  0.00    +0.000 A 
ATOM      3  C   UNL     1       3.184   7.044  18.157  0.00  0.00    +0.000 A 
ATOM      4  C   UNL     1       2.890   5.715  17.874  0.00  0.00    +0.000 A 
ATOM      5  N   UNL     1       3.780   4.791  17.429  0.00  0.00    +0.000 NA
ATOM      6  C   UNL     1       5.071   5.150  17.224  0.00  0.00    +0.000 A 
ENDROOT
BRANCH   3   7
ATOM      7  C   UNL     1       2.166   7.982  18.669  0.00  0.00    +0.000 A 
ATOM      8  C   UNL     1       1.746   7.984  20.012  0.00  0.00    +0.000 A 
ATOM      9  C   UNL     1       0.782   8.894  20.458  0.00  0.00    +0.000 A 
ATOM     10  C   UNL     1       0.254   9.792  19.549  0.00  0.00    +0.000 A 
ATOM     11  N   UNL     1       0.615   9.831  18.253  0.00  0.00    +0.000 NA
ATOM     12  C   UNL     1       1.545   8.932  17.852  0.00  0.00    +0.000 A 
ENDBRANCH   3   7
BRANCH   1  14
ATOM     13  O   UNL     1       7.556   6.520  16.391  0.00  0.00    +0.000 OA
ATOM     14  C   UNL     1       6.851   6.992  17.270  0.00  0.00    +0.000 C 
ATOM     15  N   UNL     1       7.253   8.044  18.073  0.00  0.00    +0.000 N 
ATOM     16  H   UNL     1       6.523   8.537  18.587  0.00  0.00    +0.000 HD
BRANCH  15  17
ATOM     17  C   UNL     1       8.523   8.705  17.837  0.00  0.00    +0.000 C 
BRANCH  17  18
ATOM     18  C   UNL     1       8.386  10.226  17.862  0.00  0.00    +0.000 C 
BRANCH  18  19
ATOM     19  C   UNL     1       9.546  10.908  18.543  0.00  0.00    +0.000 A 
ATOM     20  C   UNL     1       9.576  11.027  19.939  0.00  0.00    +0.000 A 
ATOM     21  C   UNL     1      10.639  11.669  20.574  0.00  0.00    +0.000 A 
ATOM     22  C   UNL     1      11.683  12.202  19.820  0.00  0.00    +0.000 A 
ATOM     23  C   UNL     1      11.665  12.088  18.431  0.00  0.00    +0.000 A 
ATOM     24  C   UNL     1      10.601  11.446  17.793  0.00  0.00    +0.000 A 
ENDBRANCH  18  19
ENDBRANCH  17  18
ENDBRANCH  15  17
ENDBRANCH   1  14
BRANCH   6  25
ATOM     25  N   UNL     1       5.971   4.121  16.844  0.00  0.00    +0.000 N 
ATOM     26  H   UNL     1       6.912   4.489  16.738  0.00  0.00    +0.000 HD
BRANCH  25  27
ATOM     27  C   UNL     1       5.525   3.446  15.620  0.00  0.00    +0.000 C 
BRANCH  27  28
ATOM     28  C   UNL     1       5.648   4.347  14.422  0.00  0.00    +0.000 C 
ATOM     29  C   UNL     1       6.947   4.594  13.694  0.00  0.00    +0.000 C 
ATOM     30  C   UNL     1       5.910   3.699  13.080  0.00  0.00    +0.000 C 
ENDBRANCH  27  28
ENDBRANCH  25  27
ENDBRANCH   6  25
TORSDOF 8
ENDMDL
