MODEL 1
REMARK VINA RESULT:      -7.3      0.000      0.000
REMARK  Name = 
REMARK  2 active torsions:
REMARK  status: ('A' for Active; 'I' for Inactive)
REMARK    1  A    between atoms: C_2  and  C_14
REMARK    2  A    between atoms: C_7  and  C_8
REMARK                            x       y       z     vdW  Elec       q    Type
REMARK                         _______ _______ _______ _____ _____    ______ ____
ROOT
ATOM      1  O   UNL     1       2.499   5.919  19.155  0.00  0.00    +0.000 OA
ATOM      2  C   UNL     1       3.096   6.454  18.224  0.00  0.00    +0.000 C 
ATOM      3  N   UNL     1       2.905   7.770  17.853  0.00  0.00    +0.000 N 
ATOM      4  C   UNL     1       1.966   8.550  18.470  0.00  0.00    +0.000 A 
ATOM      5  N   UNL     1       1.203   9.454  17.905  0.00  0.00    +0.000 NA
ATOM      6  N   UNL     1       0.387   9.979  18.881  0.00  0.00    +0.000 NA
ATOM      7  C   UNL     1       0.761   9.484  20.039  0.00  0.00    +0.000 A 
ATOM      8  N   UNL     1       1.738   8.545  19.822  0.00  0.00    +0.000 N 
ATOM      9  H   UNL     1       3.229   8.055  16.933  0.00  0.00    +0.000 HD
ATOM     10  H   UNL     1       2.239   8.010  20.506  0.00  0.00    +0.000 HD
ENDROOT
BRANCH   2  11
ATOM     11  C   UNL     1       4.113   5.732  17.376  0.00  0.00    +0.000 A 
ATOM     12  N   UNL     1       5.169   6.531  17.013  0.00  0.00    +0.000 NA
ATOM     13  C   UNL     1       6.204   5.942  16.378  0.00  0.00    +0.000 A 
ATOM     14  C   UNL     1       6.244   4.596  16.067  0.00  0.00    +0.000 A 
ATOM     15  C   UNL     1       5.142   3.810  16.397  0.00  0.00    +0.000 A 
ATOM     16  C   UNL     1       4.048   4.376  17.056  0.00  0.00    +0.000 A 
ATOM     17 BR   UNL     1       2.583   3.231  17.412  0.00  0.00    +0.000 Br
ENDBRANCH   2  11
BRANCH   7  18
ATOM     18  C   UNL     1       0.251   9.918  21.357  0.00  0.00    +0.000 A 
ATOM     19  C   UNL     1      -0.745  10.885  21.667  0.00  0.00    +0.000 A 
ATOM     20  C   UNL     1      -0.871  10.868  23.036  0.00  0.00    +0.000 A 
ATOM     21  O   UNL     1      -0.009   9.968  23.587  0.00  0.00    +0.000 OA
ATOM     22  C   UNL     1       0.668   9.392  22.557  0.00  0.00    +0.000 A 
ENDBRANCH   7  18
TORSDOF 2
ENDMDL
MODEL 2
REMARK VINA RESULT:      -7.2      2.682      7.750
REMARK  Name = 
REMARK  2 active torsions:
REMARK  status: ('A' for Active; 'I' for Inactive)
REMARK    1  A    between atoms: C_2  and  C_14
REMARK    2  A    between atoms: C_7  and  C_8
REMARK                            x       y       z     vdW  Elec       q    Type
REMARK                         _______ _______ _______ _____ _____    ______ ____
ROOT
ATOM      1  O   UNL     1       2.245   8.764  18.138  0.00  0.00    +0.000 OA
ATOM      2  C   UNL     1       1.878   8.222  19.178  0.00  0.00    +0.000 C 
ATOM      3  N   UNL     1       2.161   6.908  19.493  0.00  0.00    +0.000 N 
ATOM      4  C   UNL     1       2.820   6.096  18.611  0.00  0.00    +0.000 A 
ATOM      5  N   UNL     1       2.597   4.821  18.401  0.00  0.00    +0.000 NA
ATOM      6  N   UNL     1       3.462   4.403  17.417  0.00  0.00    +0.000 NA
ATOM      7  C   UNL     1       4.283   5.392  17.144  0.00  0.00    +0.000 A 
ATOM      8  N   UNL     1       3.890   6.499  17.854  0.00  0.00    +0.000 N 
ATOM      9  H   UNL     1       1.612   6.468  20.226  0.00  0.00    +0.000 HD
ATOM     10  H   UNL     1       4.328   7.400  17.879  0.00  0.00    +0.000 HD
ENDROOT
BRANCH   2  11
ATOM     11  C   UNL     1       1.074   8.934  20.237  0.00  0.00    +0.000 A 
ATOM     12  N   UNL     1       1.459   8.602  21.512  0.00  0.00    +0.000 NA
ATOM     13  C   UNL     1       0.902   9.293  22.529  0.00  0.00    +0.000 A 
ATOM     14  C   UNL     1      -0.035  10.294  22.350  0.00  0.00    +0.000 A 
ATOM     15  C   UNL     1      -0.452  10.583  21.053  0.00  0.00    +0.000 A 
ATOM     16  C   UNL     1       0.098   9.894  19.969  0.00  0.00    +0.000 A 
ATOM     17 BR   UNL     1      -0.576  10.329  18.254  0.00  0.00    +0.000 Br
ENDBRANCH   2  11
BRANCH   7  18
ATOM     18  C   UNL     1       5.468   5.300  16.265  0.00  0.00    +0.000 A 
ATOM     19  C   UNL     1       5.595   4.705  14.979  0.00  0.00    +0.000 A 
ATOM     20  C   UNL     1       6.891   4.939  14.584  0.00  0.00    +0.000 A 
ATOM     21  O   UNL     1       7.571   5.623  15.547  0.00  0.00    +0.000 OA
ATOM     22  C   UNL     1       6.695   5.842  16.565  0.00  0.00    +0.000 A 
ENDBRANCH   7  18
TORSDOF 2
ENDMDL
MODEL 3
REMARK VINA RESULT:      -7.1      2.877      7.694
REMARK  Name = 
REMARK  2 active torsions:
REMARK  status: ('A' for Active; 'I' for Inactive)
REMARK    1  A    between atoms: C_2  and  C_14
REMARK    2  A    between atoms: C_7  and  C_8
REMARK                            x       y       z     vdW  Elec       q    Type
REMARK                         _______ _______ _______ _____ _____    ______ ____
ROOT
ATOM      1  O   UNL     1       1.885   9.598  17.379  0.00  0.00    +0.000 OA
ATOM      2  C   UNL     1       1.448   9.349  18.500  0.00  0.00    +0.000 C 
ATOM      3  N   UNL     1       1.729   8.184  19.185  0.00  0.00    +0.000 N 
ATOM      4  C   UNL     1       2.469   7.187  18.612  0.00  0.00    +0.000 A 
ATOM      5  N   UNL     1       2.286   5.896  18.747  0.00  0.00    +0.000 NA
ATOM      6  N   UNL     1       3.234   5.258  17.980  0.00  0.00    +0.000 NA
ATOM      7  C   UNL     1       4.056   6.166  17.504  0.00  0.00    +0.000 A 
ATOM      8  N   UNL     1       3.589   7.409  17.851  0.00  0.00    +0.000 N 
ATOM      9  H   UNL     1       1.132   7.940  19.971  0.00  0.00    +0.000 HD
ATOM     10  H   UNL     1       4.007   8.299  17.656  0.00  0.00    +0.000 HD
ENDROOT
BRANCH   2  11
ATOM     11  C   UNL     1       0.549  10.292  19.261  0.00  0.00    +0.000 A 
ATOM     12  N   UNL     1       1.149  10.813  20.381  0.00  0.00    +0.000 NA
ATOM     13  C   UNL     1       0.484  11.779  21.049  0.00  0.00    +0.000 A 
ATOM     14  C   UNL     1      -0.760  12.250  20.674  0.00  0.00    +0.000 A 
ATOM     15  C   UNL     1      -1.376  11.674  19.565  0.00  0.00    +0.000 A 
ATOM     16  C   UNL     1      -0.725  10.672  18.841  0.00  0.00    +0.000 A 
ATOM     17 BR   UNL     1      -1.673   9.923  17.383  0.00  0.00    +0.000 Br
ENDBRANCH   2  11
BRANCH   7  18
ATOM     18  C   UNL     1       5.308   5.882  16.771  0.00  0.00    +0.000 A 
ATOM     19  C   UNL     1       5.563   4.919  15.756  0.00  0.00    +0.000 A 
ATOM     20  C   UNL     1       6.873   5.107  15.381  0.00  0.00    +0.000 A 
ATOM     21  O   UNL     1       7.442   6.109  16.108  0.00  0.00    +0.000 OA
ATOM     22  C   UNL     1       6.481   6.578  16.950  0.00  0.00    +0.000 A 
ENDBRANCH   7  18
TORSDOF 2
ENDMDL
MODEL 4
REMARK VINA RESULT:      -7.1      4.949      8.693
REMARK  Name = 
REMARK  2 active torsions:
REMARK  status: ('A' for Active; 'I' for Inactive)
REMARK    1  A    between atoms: C_2  and  C_14
REMARK    2  A    between atoms: C_7  and  C_8
REMARK                            x       y       z     vdW  Elec       q    Type
REMARK                         _______ _______ _______ _____ _____    ______ ____
ROOT
ATOM      1  O   UNL     1       3.829   2.636  17.371  0.00  0.00    +0.000 OA
ATOM      2  C   UNL     1       4.018   3.480  18.245  0.00  0.00    +0.000 C 
ATOM      3  N   UNL     1       5.022   4.426  18.185  0.00  0.00    +0.000 N 
ATOM      4  C   UNL     1       5.927   4.432  17.160  0.00  0.00    +0.000 A 
ATOM      5  N   UNL     1       7.204   4.716  17.243  0.00  0.00    +0.000 NA
ATOM      6  N   UNL     1       7.745   4.574  15.986  0.00  0.00    +0.000 NA
ATOM      7  C   UNL     1       6.766   4.340  15.141  0.00  0.00    +0.000 A 
ATOM      8  N   UNL     1       5.597   4.207  15.848  0.00  0.00    +0.000 N 
ATOM      9  H   UNL     1       5.274   4.904  19.045  0.00  0.00    +0.000 HD
ATOM     10  H   UNL     1       4.676   4.049  15.487  0.00  0.00    +0.000 HD
ENDROOT
BRANCH   2  11
ATOM     11  C   UNL     1       3.171   3.580  19.488  0.00  0.00    +0.000 A 
ATOM     12  N   UNL     1       3.160   2.419  20.221  0.00  0.00    +0.000 NA
ATOM     13  C   UNL     1       2.552   2.450  21.426  0.00  0.00    +0.000 A 
ATOM     14  C   UNL     1       1.937   3.576  21.942  0.00  0.00    +0.000 A 
ATOM     15  C   UNL     1       1.913   4.730  21.164  0.00  0.00    +0.000 A 
ATOM     16  C   UNL     1       2.531   4.745  19.910  0.00  0.00    +0.000 A 
ATOM     17 BR   UNL     1       2.396   6.349  18.914  0.00  0.00    +0.000 Br
ENDBRANCH   2  11
BRANCH   7  18
ATOM     18  C   UNL     1       6.903   4.293  13.670  0.00  0.00    +0.000 A 
ATOM     19  C   UNL     1       6.252   3.448  12.728  0.00  0.00    +0.000 A 
ATOM     20  C   UNL     1       6.700   3.851  11.492  0.00  0.00    +0.000 A 
ATOM     21  O   UNL     1       7.592   4.874  11.613  0.00  0.00    +0.000 OA
ATOM     22  C   UNL     1       7.706   5.139  12.943  0.00  0.00    +0.000 A 
ENDBRANCH   7  18
TORSDOF 2
ENDMDL
MODEL 5
REMARK VINA RESULT:      -7.1      5.108      8.657
REMARK  Name = 
REMARK  2 active torsions:
REMARK  status: ('A' for Active; 'I' for Inactive)
REMARK    1  A    between atoms: C_2  and  C_14
REMARK    2  A    between atoms: C_7  and  C_8
REMARK                            x       y       z     vdW  Elec       q    Type
REMARK                         _______ _______ _______ _____ _____    ______ ____
ROOT
ATOM      1  O   UNL     1       3.896   2.431  17.348  0.00  0.00    +0.000 OA
ATOM      2  C   UNL     1       3.984   3.268  18.243  0.00  0.00    +0.000 C 
ATOM      3  N   UNL     1       4.911   4.291  18.240  0.00  0.00    +0.000 N 
ATOM      4  C   UNL     1       5.852   4.390  17.253  0.00  0.00    +0.000 A 
ATOM      5  N   UNL     1       7.098   4.771  17.392  0.00  0.00    +0.000 NA
ATOM      6  N   UNL     1       7.697   4.699  16.155  0.00  0.00    +0.000 NA
ATOM      7  C   UNL     1       6.773   4.407  15.268  0.00  0.00    +0.000 A 
ATOM      8  N   UNL     1       5.592   4.167  15.924  0.00  0.00    +0.000 N 
ATOM      9  H   UNL     1       5.092   4.769  19.118  0.00  0.00    +0.000 HD
ATOM     10  H   UNL     1       4.701   3.945  15.524  0.00  0.00    +0.000 HD
ENDROOT
BRANCH   2  11
ATOM     11  C   UNL     1       3.085   3.276  19.454  0.00  0.00    +0.000 A 
ATOM     12  N   UNL     1       1.972   4.063  19.287  0.00  0.00    +0.000 NA
ATOM     13  C   UNL     1       1.031   4.022  20.254  0.00  0.00    +0.000 A 
ATOM     14  C   UNL     1       1.140   3.248  21.394  0.00  0.00    +0.000 A 
ATOM     15  C   UNL     1       2.298   2.494  21.571  0.00  0.00    +0.000 A 
ATOM     16  C   UNL     1       3.299   2.504  20.596  0.00  0.00    +0.000 A 
ATOM     17 BR   UNL     1       4.852   1.485  20.960  0.00  0.00    +0.000 Br
ENDBRANCH   2  11
BRANCH   7  18
ATOM     18  C   UNL     1       6.969   4.401  13.802  0.00  0.00    +0.000 A 
ATOM     19  C   UNL     1       6.319   3.621  12.806  0.00  0.00    +0.000 A 
ATOM     20  C   UNL     1       6.837   4.041  11.604  0.00  0.00    +0.000 A 
ATOM     21  O   UNL     1       7.770   5.015  11.797  0.00  0.00    +0.000 OA
ATOM     22  C   UNL     1       7.841   5.231  13.139  0.00  0.00    +0.000 A 
ENDBRANCH   7  18
TORSDOF 2
ENDMDL
MODEL 6
REMARK VINA RESULT:      -7.1      1.625      1.873
REMARK  Name = 
REMARK  2 active torsions:
REMARK  status: ('A' for Active; 'I' for Inactive)
REMARK    1  A    between atoms: C_2  and  C_14
REMARK    2  A    between atoms: C_7  and  C_8
REMARK                            x       y       z     vdW  Elec       q    Type
REMARK                         _______ _______ _______ _____ _____    ______ ____
ROOT
ATOM      1  O   UNL     1       3.185   5.416  18.718  0.00  0.00    +0.000 OA
ATOM      2  C   UNL     1       3.861   5.968  17.853  0.00  0.00    +0.000 C 
ATOM      3  N   UNL     1       3.688   7.286  17.478  0.00  0.00    +0.000 N 
ATOM      4  C   UNL     1       2.684   8.047  18.011  0.00  0.00    +0.000 A 
ATOM      5  N   UNL     1       1.966   8.948  17.386  0.00  0.00    +0.000 NA
ATOM      6  N   UNL     1       1.055   9.452  18.285  0.00  0.00    +0.000 NA
ATOM      7  C   UNL     1       1.324   8.948  19.469  0.00  0.00    +0.000 A 
ATOM      8  N   UNL     1       2.330   8.024  19.336  0.00  0.00    +0.000 N 
ATOM      9  H   UNL     1       4.093   7.584  16.595  0.00  0.00    +0.000 HD
ATOM     10  H   UNL     1       2.772   7.489  20.059  0.00  0.00    +0.000 HD
ENDROOT
BRANCH   2  11
ATOM     11  C   UNL     1       4.962   5.268  17.097  0.00  0.00    +0.000 A 
ATOM     12  N   UNL     1       4.579   4.873  15.840  0.00  0.00    +0.000 NA
ATOM     13  C   UNL     1       5.533   4.370  15.028  0.00  0.00    +0.000 A 
ATOM     14  C   UNL     1       6.855   4.221  15.404  0.00  0.00    +0.000 A 
ATOM     15  C   UNL     1       7.216   4.579  16.701  0.00  0.00    +0.000 A 
ATOM     16  C   UNL     1       6.262   5.106  17.575  0.00  0.00    +0.000 A 
ATOM     17 BR   UNL     1       6.848   5.512  19.329  0.00  0.00    +0.000 Br
ENDBRANCH   2  11
BRANCH   7  18
ATOM     18  C   UNL     1       0.687   9.362  20.737  0.00  0.00    +0.000 A 
ATOM     19  C   UNL     1      -0.163   8.623  21.605  0.00  0.00    +0.000 A 
ATOM     20  C   UNL     1      -0.435   9.457  22.664  0.00  0.00    +0.000 A 
ATOM     21  O   UNL     1       0.177  10.663  22.495  0.00  0.00    +0.000 OA
ATOM     22  C   UNL     1       0.862  10.595  21.321  0.00  0.00    +0.000 A 
ENDBRANCH   7  18
TORSDOF 2
ENDMDL
MODEL 7
REMARK VINA RESULT:      -7.0      2.922      7.850
REMARK  Name = 
REMARK  2 active torsions:
REMARK  status: ('A' for Active; 'I' for Inactive)
REMARK    1  A    between atoms: C_2  and  C_14
REMARK    2  A    between atoms: C_7  and  C_8
REMARK                            x       y       z     vdW  Elec       q    Type
REMARK                         _______ _______ _______ _____ _____    ______ ____
ROOT
ATOM      1  O   UNL     1       2.191   9.351  17.427  0.00  0.00    +0.000 OA
ATOM      2  C   UNL     1       1.845   9.092  18.578  0.00  0.00    +0.000 C 
ATOM      3  N   UNL     1       2.128   7.896  19.207  0.00  0.00    +0.000 N 
ATOM      4  C   UNL     1       2.762   6.881  18.544  0.00  0.00    +0.000 A 
ATOM      5  N   UNL     1       2.527   5.598  18.666  0.00  0.00    +0.000 NA
ATOM      6  N   UNL     1       3.366   4.936  17.800  0.00  0.00    +0.000 NA
ATOM      7  C   UNL     1       4.187   5.816  17.270  0.00  0.00    +0.000 A 
ATOM      8  N   UNL     1       3.817   7.070  17.688  0.00  0.00    +0.000 N 
ATOM      9  H   UNL     1       1.594   7.660  20.039  0.00  0.00    +0.000 HD
ATOM     10  H   UNL     1       4.260   7.943  17.476  0.00  0.00    +0.000 HD
ENDROOT
BRANCH   2  11
ATOM     11  C   UNL     1       1.069  10.056  19.441  0.00  0.00    +0.000 A 
ATOM     12  N   UNL     1       0.193   9.426  20.290  0.00  0.00    +0.000 NA
ATOM     13  C   UNL     1      -0.441  10.187  21.206  0.00  0.00    +0.000 A 
ATOM     14  C   UNL     1      -0.265  11.554  21.317  0.00  0.00    +0.000 A 
ATOM     15  C   UNL     1       0.588  12.185  20.415  0.00  0.00    +0.000 A 
ATOM     16  C   UNL     1       1.268  11.436  19.450  0.00  0.00    +0.000 A 
ATOM     17 BR   UNL     1       2.363  12.399  18.242  0.00  0.00    +0.000 Br
ENDBRANCH   2  11
BRANCH   7  18
ATOM     18  C   UNL     1       5.350   5.492  16.418  0.00  0.00    +0.000 A 
ATOM     19  C   UNL     1       5.443   4.595  15.318  0.00  0.00    +0.000 A 
ATOM     20  C   UNL     1       6.732   4.707  14.852  0.00  0.00    +0.000 A 
ATOM     21  O   UNL     1       7.439   5.600  15.601  0.00  0.00    +0.000 OA
ATOM     22  C   UNL     1       6.588   6.076  16.550  0.00  0.00    +0.000 A 
ENDBRANCH   7  18
TORSDOF 2
ENDMDL
MODEL 8
REMARK VINA RESULT:      -6.9      2.959      7.731
REMARK  Name = 
REMARK  2 active torsions:
REMARK  status: ('A' for Active; 'I' for Inactive)
REMARK    1  A    between atoms: C_2  and  C_14
REMARK    2  A    between atoms: C_7  and  C_8
REMARK                            x       y       z     vdW  Elec       q    Type
REMARK                         _______ _______ _______ _____ _____    ______ ____
ROOT
ATOM      1  O   UNL     1       2.048   8.714  19.314  0.00  0.00    +0.000 OA
ATOM      2  C   UNL     1       1.448   8.321  20.313  0.00  0.00    +0.000 C 
ATOM      3  N   UNL     1       1.586   7.049  20.832  0.00  0.00    +0.000 N 
ATOM      4  C   UNL     1       2.361   6.111  20.209  0.00  0.00    +0.000 A 
ATOM      5  N   UNL     1       2.112   4.828  20.109  0.00  0.00    +0.000 NA
ATOM      6  N   UNL     1       3.132   4.260  19.382  0.00  0.00    +0.000 NA
ATOM      7  C   UNL     1       4.047   5.180  19.170  0.00  0.00    +0.000 A 
ATOM      8  N   UNL     1       3.584   6.380  19.648  0.00  0.00    +0.000 N 
ATOM      9  H   UNL     1       0.876   6.724  21.482  0.00  0.00    +0.000 HD
ATOM     10  H   UNL     1       4.058   7.262  19.656  0.00  0.00    +0.000 HD
ENDROOT
BRANCH   2  11
ATOM     11  C   UNL     1       0.489   9.187  21.089  0.00  0.00    +0.000 A 
ATOM     12  N   UNL     1       0.537   8.956  22.442  0.00  0.00    +0.000 NA
ATOM     13  C   UNL     1      -0.175   9.780  23.240  0.00  0.00    +0.000 A 
ATOM     14  C   UNL     1      -0.950  10.822  22.764  0.00  0.00    +0.000 A 
ATOM     15  C   UNL     1      -1.027  11.011  21.387  0.00  0.00    +0.000 A 
ATOM     16  C   UNL     1      -0.307  10.182  20.522  0.00  0.00    +0.000 A 
ATOM     17 BR   UNL     1      -0.523  10.494  18.667  0.00  0.00    +0.000 Br
ENDBRANCH   2  11
BRANCH   7  18
ATOM     18  C   UNL     1       5.378   4.938  18.573  0.00  0.00    +0.000 A 
ATOM     19  C   UNL     1       5.713   4.457  17.277  0.00  0.00    +0.000 A 
ATOM     20  C   UNL     1       7.087   4.465  17.218  0.00  0.00    +0.000 A 
ATOM     21  O   UNL     1       7.616   4.902  18.396  0.00  0.00    +0.000 OA
ATOM     22  C   UNL     1       6.567   5.191  19.214  0.00  0.00    +0.000 A 
ENDBRANCH   7  18
TORSDOF 2
ENDMDL
MODEL 9
REMARK VINA RESULT:      -6.9      2.846      7.778
REMARK  Name = 
REMARK  2 active torsions:
REMARK  status: ('A' for Active; 'I' for Inactive)
REMARK    1  A    between atoms: C_2  and  C_14
REMARK    2  A    between atoms: C_7  and  C_8
REMARK                            x       y       z     vdW  Elec       q    Type
REMARK                         _______ _______ _______ _____ _____    ______ ____
ROOT
ATOM      1  O   UNL     1       2.071   8.497  18.949  0.00  0.00    +0.000 OA
ATOM      2  C   UNL     1       1.605   8.120  20.022  0.00  0.00    +0.000 C 
ATOM      3  N   UNL     1       1.834   6.866  20.553  0.00  0.00    +0.000 N 
ATOM      4  C   UNL     1       2.550   5.926  19.863  0.00  0.00    +0.000 A 
ATOM      5  N   UNL     1       2.320   4.636  19.826  0.00  0.00    +0.000 NA
ATOM      6  N   UNL     1       3.258   4.070  18.995  0.00  0.00    +0.000 NA
ATOM      7  C   UNL     1       4.120   5.001  18.651  0.00  0.00    +0.000 A 
ATOM      8  N   UNL     1       3.689   6.205  19.152  0.00  0.00    +0.000 N 
ATOM      9  H   UNL     1       1.216   6.544  21.292  0.00  0.00    +0.000 HD
ATOM     10  H   UNL     1       4.141   7.096  19.081  0.00  0.00    +0.000 HD
ENDROOT
BRANCH   2  11
ATOM     11  C   UNL     1       0.727   8.988  20.888  0.00  0.00    +0.000 A 
ATOM     12  N   UNL     1       0.876   8.728  22.228  0.00  0.00    +0.000 NA
ATOM     13  C   UNL     1       0.246   9.550  23.095  0.00  0.00    +0.000 A 
ATOM     14  C   UNL     1      -0.544  10.614  22.701  0.00  0.00    +0.000 A 
ATOM     15  C   UNL     1      -0.725  10.832  21.338  0.00  0.00    +0.000 A 
ATOM     16  C   UNL     1      -0.091  10.008  20.404  0.00  0.00    +0.000 A 
ATOM     17 BR   UNL     1      -0.446  10.360  18.578  0.00  0.00    +0.000 Br
ENDBRANCH   2  11
BRANCH   7  18
ATOM     18  C   UNL     1       5.374   4.770  17.903  0.00  0.00    +0.000 A 
ATOM     19  C   UNL     1       6.720   4.998  18.302  0.00  0.00    +0.000 A 
ATOM     20  C   UNL     1       7.499   4.569  17.254  0.00  0.00    +0.000 A 
ATOM     21  O   UNL     1       6.722   4.108  16.234  0.00  0.00    +0.000 OA
ATOM     22  C   UNL     1       5.429   4.230  16.640  0.00  0.00    +0.000 A 
ENDBRANCH   7  18
TORSDOF 2
ENDMDL
