MODEL 1
REMARK VINA RESULT:      -7.7      0.000      0.000
REMARK  Name = 
REMARK  4 active torsions:
REMARK  status: ('A' for Active; 'I' for Inactive)
REMARK    1  A    between atoms: C_1  and  C_2
REMARK    2  A    between atoms: C_2  and  C_3
REMARK    3  A    between atoms: C_2  and  N_16
REMARK    4  A    between atoms: C_3  and  N_4
REMARK                            x       y       z     vdW  Elec       q    Type
REMARK                         _______ _______ _______ _____ _____    ______ ____
ROOT
ATOM      1  N   UNL     1       5.893   4.922  17.176  0.00  0.00    +0.000 N 
ATOM      2  C   UNL     1       6.993   5.743  16.974  0.00  0.00    +0.000 A 
ATOM      3  O   UNL     1       7.534   6.410  17.855  0.00  0.00    +0.000 OA
ATOM      4  N   UNL     1       7.502   5.798  15.710  0.00  0.00    +0.000 N 
ATOM      5  C   UNL     1       7.011   5.056  14.641  0.00  0.00    +0.000 A 
ATOM      6  C   UNL     1       7.658   5.096  13.407  0.00  0.00    +0.000 A 
ATOM      7  C   UNL     1       7.173   4.319  12.348  0.00  0.00    +0.000 A 
ATOM      8  C   UNL     1       6.031   3.540  12.519  0.00  0.00    +0.000 A 
ATOM      9  C   UNL     1       5.380   3.510  13.754  0.00  0.00    +0.000 A 
ATOM     10  C   UNL     1       5.889   4.257  14.822  0.00  0.00    +0.000 A 
ATOM     11  C   UNL     1       5.284   4.178  16.168  0.00  0.00    +0.000 A 
ATOM     12  O   UNL     1       4.310   3.448  16.337  0.00  0.00    +0.000 OA
ATOM     13  H   UNL     1       8.311   6.394  15.593  0.00  0.00    +0.000 HD
ENDROOT
BRANCH   1  14
ATOM     14  C   UNL     1       5.378   4.771  18.541  0.00  0.00    +0.000 C 
BRANCH  14  16
ATOM     15  C   UNL     1       3.495   6.489  18.468  0.00  0.00    +0.000 C 
ATOM     16  C   UNL     1       3.843   5.012  18.695  0.00  0.00    +0.000 C 
BRANCH  16  17
ATOM     17  N   UNL     1       3.327   4.415  19.954  0.00  0.00    +0.000 NA
ATOM     18  C   UNL     1       3.054   2.977  19.901  0.00  0.00    +0.000 C 
ATOM     19  C   UNL     1       1.564   2.861  19.638  0.00  0.00    +0.000 C 
ATOM     20  C   UNL     1       0.978   4.050  20.374  0.00  0.00    +0.000 C 
ATOM     21  C   UNL     1       2.137   5.024  20.560  0.00  0.00    +0.000 C 
ENDBRANCH  16  17
ENDBRANCH  14  16
ENDBRANCH   1  14
TORSDOF 3
ENDMDL
MODEL 2
REMARK VINA RESULT:      -7.4      3.336      7.274
REMARK  Name = 
REMARK  4 active torsions:
REMARK  status: ('A' for Active; 'I' for Inactive)
REMARK    1  A    between atoms: C_1  and  C_2
REMARK    2  A    between atoms: C_2  and  C_3
REMARK    3  A    between atoms: C_2  and  N_16
REMARK    4  A    between atoms: C_3  and  N_4
REMARK                            x       y       z     vdW  Elec       q    Type
REMARK                         _______ _______ _______ _____ _____    ______ ____
ROOT
ATOM      1  N   UNL     1       2.464   6.789  18.706  0.00  0.00    +0.000 N 
ATOM      2  C   UNL     1       2.318   6.205  19.956  0.00  0.00    +0.000 A 
ATOM      3  O   UNL     1       2.664   5.058  20.233  0.00  0.00    +0.000 OA
ATOM      4  N   UNL     1       1.757   6.971  20.936  0.00  0.00    +0.000 N 
ATOM      5  C   UNL     1       1.369   8.295  20.761  0.00  0.00    +0.000 A 
ATOM      6  C   UNL     1       0.900   9.034  21.846  0.00  0.00    +0.000 A 
ATOM      7  C   UNL     1       0.543  10.376  21.664  0.00  0.00    +0.000 A 
ATOM      8  C   UNL     1       0.625  10.956  20.399  0.00  0.00    +0.000 A 
ATOM      9  C   UNL     1       1.086  10.209  19.314  0.00  0.00    +0.000 A 
ATOM     10  C   UNL     1       1.479   8.880  19.505  0.00  0.00    +0.000 A 
ATOM     11  C   UNL     1       2.059   8.087  18.402  0.00  0.00    +0.000 A 
ATOM     12  O   UNL     1       2.185   8.612  17.298  0.00  0.00    +0.000 OA
ATOM     13  H   UNL     1       1.673   6.526  21.840  0.00  0.00    +0.000 HD
ENDROOT
BRANCH   1  14
ATOM     14  C   UNL     1       3.145   6.023  17.656  0.00  0.00    +0.000 C 
BRANCH  14  16
ATOM     15  C   UNL     1       5.106   6.673  16.160  0.00  0.00    +0.000 C 
ATOM     16  C   UNL     1       4.688   6.246  17.575  0.00  0.00    +0.000 C 
BRANCH  16  17
ATOM     17  N   UNL     1       5.430   5.094  18.145  0.00  0.00    +0.000 NA
ATOM     18  C   UNL     1       6.240   5.392  19.329  0.00  0.00    +0.000 C 
ATOM     19  C   UNL     1       7.650   5.603  18.808  0.00  0.00    +0.000 C 
ATOM     20  C   UNL     1       7.747   4.638  17.642  0.00  0.00    +0.000 C 
ATOM     21  C   UNL     1       6.306   4.333  17.246  0.00  0.00    +0.000 C 
ENDBRANCH  16  17
ENDBRANCH  14  16
ENDBRANCH   1  14
TORSDOF 3
ENDMDL
MODEL 3
REMARK VINA RESULT:      -7.2      1.610      6.062
REMARK  Name = 
REMARK  4 active torsions:
REMARK  status: ('A' for Active; 'I' for Inactive)
REMARK    1  A    between atoms: C_1  and  C_2
REMARK    2  A    between atoms: C_2  and  C_3
REMARK    3  A    between atoms: C_2  and  N_16
REMARK    4  A    between atoms: C_3  and  N_4
REMARK                            x       y       z     vdW  Elec       q    Type
REMARK                         _______ _______ _______ _____ _____    ______ ____
ROOT
ATOM      1  N   UNL     1       4.734   5.534  18.461  0.00  0.00    +0.000 N 
ATOM      2  C   UNL     1       5.556   4.495  18.872  0.00  0.00    +0.000 A 
ATOM      3  O   UNL     1       6.763   4.433  18.648  0.00  0.00    +0.000 OA
ATOM      4  N   UNL     1       4.971   3.484  19.577  0.00  0.00    +0.000 N 
ATOM      5  C   UNL     1       3.628   3.462  19.935  0.00  0.00    +0.000 A 
ATOM      6  C   UNL     1       3.139   2.438  20.746  0.00  0.00    +0.000 A 
ATOM      7  C   UNL     1       1.791   2.444  21.126  0.00  0.00    +0.000 A 
ATOM      8  C   UNL     1       0.939   3.448  20.668  0.00  0.00    +0.000 A 
ATOM      9  C   UNL     1       1.432   4.465  19.848  0.00  0.00    +0.000 A 
ATOM     10  C   UNL     1       2.787   4.479  19.501  0.00  0.00    +0.000 A 
ATOM     11  C   UNL     1       3.364   5.588  18.714  0.00  0.00    +0.000 A 
ATOM     12  O   UNL     1       2.629   6.505  18.355  0.00  0.00    +0.000 OA
ATOM     13  H   UNL     1       5.595   2.746  19.874  0.00  0.00    +0.000 HD
ENDROOT
BRANCH   1  14
ATOM     14  C   UNL     1       5.347   6.680  17.780  0.00  0.00    +0.000 C 
BRANCH  14  16
ATOM     15  C   UNL     1       7.745   7.499  17.492  0.00  0.00    +0.000 C 
ATOM     16  C   UNL     1       6.740   6.394  17.137  0.00  0.00    +0.000 C 
BRANCH  16  17
ATOM     17  N   UNL     1       6.614   6.080  15.691  0.00  0.00    +0.000 NA
ATOM     18  C   UNL     1       5.242   5.922  15.200  0.00  0.00    +0.000 C 
ATOM     19  C   UNL     1       4.987   4.426  15.197  0.00  0.00    +0.000 C 
ATOM     20  C   UNL     1       6.339   3.834  14.848  0.00  0.00    +0.000 C 
ATOM     21  C   UNL     1       7.355   4.923  15.176  0.00  0.00    +0.000 C 
ENDBRANCH  16  17
ENDBRANCH  14  16
ENDBRANCH   1  14
TORSDOF 3
ENDMDL
MODEL 4
REMARK VINA RESULT:      -7.2      3.023      7.097
REMARK  Name = 
REMARK  4 active torsions:
REMARK  status: ('A' for Active; 'I' for Inactive)
REMARK    1  A    between atoms: C_1  and  C_2
REMARK    2  A    between atoms: C_2  and  C_3
REMARK    3  A    between atoms: C_2  and  N_16
REMARK    4  A    between atoms: C_3  and  N_4
REMARK                            x       y       z     vdW  Elec       q    Type
REMARK                         _______ _______ _______ _____ _____    ______ ____
ROOT
ATOM      1  N   UNL     1       2.904   6.654  18.561  0.00  0.00    +0.000 N 
ATOM      2  C   UNL     1       2.729   6.019  19.782  0.00  0.00    +0.000 A 
ATOM      3  O   UNL     1       3.166   4.901  20.054  0.00  0.00    +0.000 OA
ATOM      4  N   UNL     1       2.029   6.695  20.738  0.00  0.00    +0.000 N 
ATOM      5  C   UNL     1       1.526   7.980  20.569  0.00  0.00    +0.000 A 
ATOM      6  C   UNL     1       0.913   8.635  21.636  0.00  0.00    +0.000 A 
ATOM      7  C   UNL     1       0.439   9.942  21.463  0.00  0.00    +0.000 A 
ATOM      8  C   UNL     1       0.552  10.568  20.223  0.00  0.00    +0.000 A 
ATOM      9  C   UNL     1       1.158   9.905  19.155  0.00  0.00    +0.000 A 
ATOM     10  C   UNL     1       1.665   8.614  19.340  0.00  0.00    +0.000 A 
ATOM     11  C   UNL     1       2.396   7.917  18.262  0.00  0.00    +0.000 A 
ATOM     12  O   UNL     1       2.547   8.487  17.184  0.00  0.00    +0.000 OA
ATOM     13  H   UNL     1       1.927   6.214  21.622  0.00  0.00    +0.000 HD
ENDROOT
BRANCH   1  14
ATOM     14  C   UNL     1       3.729   5.992  17.544  0.00  0.00    +0.000 C 
BRANCH  14  16
ATOM     15  C   UNL     1       5.981   7.165  17.315  0.00  0.00    +0.000 C 
ATOM     16  C   UNL     1       5.254   5.932  17.870  0.00  0.00    +0.000 C 
BRANCH  16  17
ATOM     17  N   UNL     1       5.835   4.618  17.493  0.00  0.00    +0.000 NA
ATOM     18  C   UNL     1       7.212   4.660  16.994  0.00  0.00    +0.000 C 
ATOM     19  C   UNL     1       7.090   4.654  15.481  0.00  0.00    +0.000 C 
ATOM     20  C   UNL     1       5.869   3.793  15.225  0.00  0.00    +0.000 C 
ATOM     21  C   UNL     1       5.090   3.791  16.536  0.00  0.00    +0.000 C 
ENDBRANCH  16  17
ENDBRANCH  14  16
ENDBRANCH   1  14
TORSDOF 3
ENDMDL
MODEL 5
REMARK VINA RESULT:      -7.1      3.659      5.656
REMARK  Name = 
REMARK  4 active torsions:
REMARK  status: ('A' for Active; 'I' for Inactive)
REMARK    1  A    between atoms: C_1  and  C_2
REMARK    2  A    between atoms: C_2  and  C_3
REMARK    3  A    between atoms: C_2  and  N_16
REMARK    4  A    between atoms: C_3  and  N_4
REMARK                            x       y       z     vdW  Elec       q    Type
REMARK                         _______ _______ _______ _____ _____    ______ ____
ROOT
ATOM      1  N   UNL     1       3.484   6.001  18.716  0.00  0.00    +0.000 N 
ATOM      2  C   UNL     1       3.872   6.669  17.564  0.00  0.00    +0.000 A 
ATOM      3  O   UNL     1       4.642   6.212  16.721  0.00  0.00    +0.000 OA
ATOM      4  N   UNL     1       3.349   7.913  17.362  0.00  0.00    +0.000 N 
ATOM      5  C   UNL     1       2.433   8.519  18.215  0.00  0.00    +0.000 A 
ATOM      6  C   UNL     1       1.873   9.749  17.877  0.00  0.00    +0.000 A 
ATOM      7  C   UNL     1       0.927  10.334  18.729  0.00  0.00    +0.000 A 
ATOM      8  C   UNL     1       0.577   9.704  19.922  0.00  0.00    +0.000 A 
ATOM      9  C   UNL     1       1.148   8.477  20.260  0.00  0.00    +0.000 A 
ATOM     10  C   UNL     1       2.064   7.875  19.390  0.00  0.00    +0.000 A 
ATOM     11  C   UNL     1       2.618   6.534  19.669  0.00  0.00    +0.000 A 
ATOM     12  O   UNL     1       2.269   5.950  20.692  0.00  0.00    +0.000 OA
ATOM     13  H   UNL     1       3.639   8.372  16.509  0.00  0.00    +0.000 HD
ENDROOT
BRANCH   1  14
ATOM     14  C   UNL     1       3.957   4.627  18.918  0.00  0.00    +0.000 C 
BRANCH  14  16
ATOM     15  C   UNL     1       1.798   4.134  17.654  0.00  0.00    +0.000 C 
ATOM     16  C   UNL     1       3.064   3.523  18.271  0.00  0.00    +0.000 C 
BRANCH  16  17
ATOM     17  N   UNL     1       2.841   2.392  19.207  0.00  0.00    +0.000 NA
ATOM     18  C   UNL     1       1.438   2.089  19.504  0.00  0.00    +0.000 C 
ATOM     19  C   UNL     1       1.147   2.787  20.819  0.00  0.00    +0.000 C 
ATOM     20  C   UNL     1       2.459   2.694  21.572  0.00  0.00    +0.000 C 
ATOM     21  C   UNL     1       3.521   2.438  20.507  0.00  0.00    +0.000 C 
ENDBRANCH  16  17
ENDBRANCH  14  16
ENDBRANCH   1  14
TORSDOF 3
ENDMDL
MODEL 6
REMARK VINA RESULT:      -7.0      0.641      1.118
REMARK  Name = 
REMARK  4 active torsions:
REMARK  status: ('A' for Active; 'I' for Inactive)
REMARK    1  A    between atoms: C_1  and  C_2
REMARK    2  A    between atoms: C_2  and  C_3
REMARK    3  A    between atoms: C_2  and  N_16
REMARK    4  A    between atoms: C_3  and  N_4
REMARK                            x       y       z     vdW  Elec       q    Type
REMARK                         _______ _______ _______ _____ _____    ______ ____
ROOT
ATOM      1  N   UNL     1       5.707   4.820  16.988  0.00  0.00    +0.000 N 
ATOM      2  C   UNL     1       6.812   5.656  16.913  0.00  0.00    +0.000 A 
ATOM      3  O   UNL     1       7.273   6.286  17.863  0.00  0.00    +0.000 OA
ATOM      4  N   UNL     1       7.422   5.770  15.698  0.00  0.00    +0.000 N 
ATOM      5  C   UNL     1       7.026   5.073  14.561  0.00  0.00    +0.000 A 
ATOM      6  C   UNL     1       7.771   5.172  13.387  0.00  0.00    +0.000 A 
ATOM      7  C   UNL     1       7.381   4.440  12.259  0.00  0.00    +0.000 A 
ATOM      8  C   UNL     1       6.236   3.647  12.302  0.00  0.00    +0.000 A 
ATOM      9  C   UNL     1       5.488   3.559  13.477  0.00  0.00    +0.000 A 
ATOM     10  C   UNL     1       5.901   4.260  14.615  0.00  0.00    +0.000 A 
ATOM     11  C   UNL     1       5.189   4.118  15.902  0.00  0.00    +0.000 A 
ATOM     12  O   UNL     1       4.212   3.376  15.959  0.00  0.00    +0.000 OA
ATOM     13  H   UNL     1       8.232   6.376  15.674  0.00  0.00    +0.000 HD
ENDROOT
BRANCH   1  14
ATOM     14  C   UNL     1       5.084   4.606  18.299  0.00  0.00    +0.000 C 
BRANCH  14  16
ATOM     15  C   UNL     1       3.451   6.340  19.210  0.00  0.00    +0.000 C 
ATOM     16  C   UNL     1       3.590   5.046  18.396  0.00  0.00    +0.000 C 
BRANCH  16  17
ATOM     17  N   UNL     1       2.723   3.919  18.827  0.00  0.00    +0.000 NA
ATOM     18  C   UNL     1       1.613   4.283  19.711  0.00  0.00    +0.000 C 
ATOM     19  C   UNL     1       2.107   3.990  21.116  0.00  0.00    +0.000 C 
ATOM     20  C   UNL     1       2.997   2.776  20.936  0.00  0.00    +0.000 C 
ATOM     21  C   UNL     1       3.370   2.762  19.457  0.00  0.00    +0.000 C 
ENDBRANCH  16  17
ENDBRANCH  14  16
ENDBRANCH   1  14
TORSDOF 3
ENDMDL
MODEL 7
REMARK VINA RESULT:      -7.0      1.694      6.369
REMARK  Name = 
REMARK  4 active torsions:
REMARK  status: ('A' for Active; 'I' for Inactive)
REMARK    1  A    between atoms: C_1  and  C_2
REMARK    2  A    between atoms: C_2  and  C_3
REMARK    3  A    between atoms: C_2  and  N_16
REMARK    4  A    between atoms: C_3  and  N_4
REMARK                            x       y       z     vdW  Elec       q    Type
REMARK                         _______ _______ _______ _____ _____    ______ ____
ROOT
ATOM      1  N   UNL     1       4.662   5.628  18.620  0.00  0.00    +0.000 N 
ATOM      2  C   UNL     1       3.530   6.386  18.357  0.00  0.00    +0.000 A 
ATOM      3  O   UNL     1       3.524   7.416  17.684  0.00  0.00    +0.000 OA
ATOM      4  N   UNL     1       2.351   5.943  18.881  0.00  0.00    +0.000 N 
ATOM      5  C   UNL     1       2.220   4.770  19.617  0.00  0.00    +0.000 A 
ATOM      6  C   UNL     1       0.959   4.340  20.026  0.00  0.00    +0.000 A 
ATOM      7  C   UNL     1       0.836   3.141  20.739  0.00  0.00    +0.000 A 
ATOM      8  C   UNL     1       1.972   2.403  21.065  0.00  0.00    +0.000 A 
ATOM      9  C   UNL     1       3.234   2.842  20.662  0.00  0.00    +0.000 A 
ATOM     10  C   UNL     1       3.351   4.021  19.917  0.00  0.00    +0.000 A 
ATOM     11  C   UNL     1       4.658   4.468  19.392  0.00  0.00    +0.000 A 
ATOM     12  O   UNL     1       5.655   3.790  19.630  0.00  0.00    +0.000 OA
ATOM     13  H   UNL     1       1.541   6.507  18.664  0.00  0.00    +0.000 HD
ENDROOT
BRANCH   1  14
ATOM     14  C   UNL     1       5.928   6.028  17.997  0.00  0.00    +0.000 C 
BRANCH  14  16
ATOM     15  C   UNL     1       7.875   4.472  17.457  0.00  0.00    +0.000 C 
ATOM     16  C   UNL     1       6.514   4.999  16.979  0.00  0.00    +0.000 C 
BRANCH  16  17
ATOM     17  N   UNL     1       6.481   5.532  15.594  0.00  0.00    +0.000 NA
ATOM     18  C   UNL     1       5.185   5.441  14.917  0.00  0.00    +0.000 C 
ATOM     19  C   UNL     1       5.264   4.186  14.066  0.00  0.00    +0.000 C 
ATOM     20  C   UNL     1       6.718   4.136  13.638  0.00  0.00    +0.000 C 
ATOM     21  C   UNL     1       7.466   5.011  14.638  0.00  0.00    +0.000 C 
ENDBRANCH  16  17
ENDBRANCH  14  16
ENDBRANCH   1  14
TORSDOF 3
ENDMDL
MODEL 8
REMARK VINA RESULT:      -6.9      1.627      6.069
REMARK  Name = 
REMARK  4 active torsions:
REMARK  status: ('A' for Active; 'I' for Inactive)
REMARK    1  A    between atoms: C_1  and  C_2
REMARK    2  A    between atoms: C_2  and  C_3
REMARK    3  A    between atoms: C_2  and  N_16
REMARK    4  A    between atoms: C_3  and  N_4
REMARK                            x       y       z     vdW  Elec       q    Type
REMARK                         _______ _______ _______ _____ _____    ______ ____
ROOT
ATOM      1  N   UNL     1       4.974   5.474  18.409  0.00  0.00    +0.000 N 
ATOM      2  C   UNL     1       5.730   4.408  18.873  0.00  0.00    +0.000 A 
ATOM      3  O   UNL     1       6.942   4.287  18.700  0.00  0.00    +0.000 OA
ATOM      4  N   UNL     1       5.072   3.439  19.573  0.00  0.00    +0.000 N 
ATOM      5  C   UNL     1       3.715   3.485  19.875  0.00  0.00    +0.000 A 
ATOM      6  C   UNL     1       3.147   2.502  20.684  0.00  0.00    +0.000 A 
ATOM      7  C   UNL     1       1.786   2.577  21.007  0.00  0.00    +0.000 A 
ATOM      8  C   UNL     1       1.001   3.608  20.495  0.00  0.00    +0.000 A 
ATOM      9  C   UNL     1       1.573   4.584  19.677  0.00  0.00    +0.000 A 
ATOM     10  C   UNL     1       2.940   4.530  19.386  0.00  0.00    +0.000 A 
ATOM     11  C   UNL     1       3.599   5.595  18.603  0.00  0.00    +0.000 A 
ATOM     12  O   UNL     1       2.922   6.536  18.196  0.00  0.00    +0.000 OA
ATOM     13  H   UNL     1       5.649   2.680  19.910  0.00  0.00    +0.000 HD
ENDROOT
BRANCH   1  14
ATOM     14  C   UNL     1       5.667   6.576  17.731  0.00  0.00    +0.000 C 
BRANCH  14  16
ATOM     15  C   UNL     1       4.680   7.036  15.425  0.00  0.00    +0.000 C 
ATOM     16  C   UNL     1       5.845   6.393  16.191  0.00  0.00    +0.000 C 
BRANCH  16  17
ATOM     17  N   UNL     1       6.139   4.978  15.847  0.00  0.00    +0.000 NA
ATOM     18  C   UNL     1       7.407   4.752  15.149  0.00  0.00    +0.000 C 
ATOM     19  C   UNL     1       7.047   4.678  13.676  0.00  0.00    +0.000 C 
ATOM     20  C   UNL     1       5.678   4.026  13.676  0.00  0.00    +0.000 C 
ATOM     21  C   UNL     1       5.128   4.237  15.083  0.00  0.00    +0.000 C 
ENDBRANCH  16  17
ENDBRANCH  14  16
ENDBRANCH   1  14
TORSDOF 3
ENDMDL
MODEL 9
REMARK VINA RESULT:      -6.8      2.760      6.673
REMARK  Name = 
REMARK  4 active torsions:
REMARK  status: ('A' for Active; 'I' for Inactive)
REMARK    1  A    between atoms: C_1  and  C_2
REMARK    2  A    between atoms: C_2  and  C_3
REMARK    3  A    between atoms: C_2  and  N_16
REMARK    4  A    between atoms: C_3  and  N_4
REMARK                            x       y       z     vdW  Elec       q    Type
REMARK                         _______ _______ _______ _____ _____    ______ ____
ROOT
ATOM      1  N   UNL     1       3.233   5.944  19.074  0.00  0.00    +0.000 N 
ATOM      2  C   UNL     1       2.533   5.789  20.262  0.00  0.00    +0.000 A 
ATOM      3  O   UNL     1       2.607   4.801  20.989  0.00  0.00    +0.000 OA
ATOM      4  N   UNL     1       1.715   6.815  20.638  0.00  0.00    +0.000 N 
ATOM      5  C   UNL     1       1.582   8.003  19.927  0.00  0.00    +0.000 A 
ATOM      6  C   UNL     1       0.802   9.039  20.440  0.00  0.00    +0.000 A 
ATOM      7  C   UNL     1       0.702  10.242  19.731  0.00  0.00    +0.000 A 
ATOM      8  C   UNL     1       1.349  10.387  18.505  0.00  0.00    +0.000 A 
ATOM      9  C   UNL     1       2.120   9.344  17.991  0.00  0.00    +0.000 A 
ATOM     10  C   UNL     1       2.251   8.156  18.719  0.00  0.00    +0.000 A 
ATOM     11  C   UNL     1       3.133   7.066  18.254  0.00  0.00    +0.000 A 
ATOM     12  O   UNL     1       3.749   7.212  17.201  0.00  0.00    +0.000 OA
ATOM     13  H   UNL     1       1.226   6.681  21.513  0.00  0.00    +0.000 HD
ENDROOT
BRANCH   1  14
ATOM     14  C   UNL     1       4.188   4.900  18.688  0.00  0.00    +0.000 C 
BRANCH  14  16
ATOM     15  C   UNL     1       2.852   3.289  17.230  0.00  0.00    +0.000 C 
ATOM     16  C   UNL     1       3.987   4.324  17.251  0.00  0.00    +0.000 C 
BRANCH  16  17
ATOM     17  N   UNL     1       5.275   3.877  16.663  0.00  0.00    +0.000 NA
ATOM     18  C   UNL     1       6.476   4.475  17.254  0.00  0.00    +0.000 C 
ATOM     19  C   UNL     1       6.847   5.623  16.333  0.00  0.00    +0.000 C 
ATOM     20  C   UNL     1       6.448   5.121  14.959  0.00  0.00    +0.000 C 
ATOM     21  C   UNL     1       5.443   4.003  15.211  0.00  0.00    +0.000 C 
ENDBRANCH  16  17
ENDBRANCH  14  16
ENDBRANCH   1  14
TORSDOF 3
ENDMDL
