MODEL 1
REMARK VINA RESULT:      -9.1      0.000      0.000
REMARK  Name = 
REMARK  5 active torsions:
REMARK  status: ('A' for Active; 'I' for Inactive)
REMARK    1  A    between atoms: C_1  and  C_2
REMARK    2  A    between atoms: N_4  and  C_5
REMARK    3  A    between atoms: C_7  and  N_8
REMARK    4  A    between atoms: C_13  and  C_14
REMARK    5  A    between atoms: C_20  and  C_21
REMARK                            x       y       z     vdW  Elec       q    Type
REMARK                         _______ _______ _______ _____ _____    ______ ____
ROOT
ATOM      1  C   UNL     1       4.555   6.447  17.474  0.00  0.00    +0.000 A 
ATOM      2  C   UNL     1       3.866   7.670  17.425  0.00  0.00    +0.000 A 
ATOM      3  C   UNL     1       2.639   7.871  18.074  0.00  0.00    +0.000 A 
ATOM      4  C   UNL     1       2.126   6.816  18.829  0.00  0.00    +0.000 A 
ATOM      5  C   UNL     1       2.752   5.569  18.915  0.00  0.00    +0.000 A 
ATOM      6  C   UNL     1       3.956   5.412  18.214  0.00  0.00    +0.000 A 
ENDROOT
BRANCH   3   7
ATOM      7  N   UNL     1       1.972   9.095  17.928  0.00  0.00    +0.000 N 
ATOM      8  C   UNL     1       1.176   9.804  18.829  0.00  0.00    +0.000 A 
ATOM      9  N   UNL     1       1.163   9.502  20.134  0.00  0.00    +0.000 NA
ATOM     10  C   UNL     1       0.351  10.190  20.946  0.00  0.00    +0.000 A 
ATOM     11  C   UNL     1      -0.475  11.180  20.497  0.00  0.00    +0.000 A 
ATOM     12  C   UNL     1      -0.426  11.443  19.141  0.00  0.00    +0.000 A 
ATOM     13  N   UNL     1       0.412  10.766  18.304  0.00  0.00    +0.000 NA
ATOM     14  H   UNL     1       1.803   9.422  16.988  0.00  0.00    +0.000 HD
BRANCH  12  15
ATOM     15  C   UNL     1      -1.345  12.495  18.547  0.00  0.00    +0.000 C 
ATOM     16  F   UNL     1      -2.340  12.881  19.404  0.00  0.00    +0.000 F 
ATOM     17  F   UNL     1      -0.699  13.642  18.201  0.00  0.00    +0.000 F 
ATOM     18  F   UNL     1      -1.985  12.063  17.423  0.00  0.00    +0.000 F 
ENDBRANCH  12  15
ENDBRANCH   3   7
BRANCH   1  22
ATOM     19  C   UNL     1       5.659   3.503  15.360  0.00  0.00    +0.000 C 
ATOM     20  C   UNL     1       6.549   4.710  15.068  0.00  0.00    +0.000 C 
ATOM     21  C   UNL     1       5.862   6.057  15.368  0.00  0.00    +0.000 C 
ATOM     22  N   UNL     1       5.756   6.269  16.818  0.00  0.00    +0.000 N 
ATOM     23  C   UNL     1       7.039   6.150  17.526  0.00  0.00    +0.000 C 
ATOM     24  C   UNL     1       7.718   4.818  17.159  0.00  0.00    +0.000 C 
ATOM     25  O   UNL     1       7.820   4.607  15.742  0.00  0.00    +0.000 OA
ENDBRANCH   1  22
BRANCH   5  26
ATOM     26  C   UNL     1       2.175   4.494  19.760  0.00  0.00    +0.000 A 
ATOM     27  C   UNL     1       2.501   4.379  21.126  0.00  0.00    +0.000 A 
ATOM     28  C   UNL     1       2.033   3.312  21.899  0.00  0.00    +0.000 A 
ATOM     29  C   UNL     1       1.206   2.353  21.329  0.00  0.00    +0.000 A 
ATOM     30  C   UNL     1       0.843   2.459  19.988  0.00  0.00    +0.000 A 
ATOM     31  C   UNL     1       1.327   3.517  19.215  0.00  0.00    +0.000 A 
ENDBRANCH   5  26
TORSDOF 4
ENDMDL
MODEL 2
REMARK VINA RESULT:      -9.0      0.781      1.020
REMARK  Name = 
REMARK  5 active torsions:
REMARK  status: ('A' for Active; 'I' for Inactive)
REMARK    1  A    between atoms: C_1  and  C_2
REMARK    2  A    between atoms: N_4  and  C_5
REMARK    3  A    between atoms: C_7  and  N_8
REMARK    4  A    between atoms: C_13  and  C_14
REMARK    5  A    between atoms: C_20  and  C_21
REMARK                            x       y       z     vdW  Elec       q    Type
REMARK                         _______ _______ _______ _____ _____    ______ ____
ROOT
ATOM      1  C   UNL     1       4.076   6.929  17.471  0.00  0.00    +0.000 A 
ATOM      2  C   UNL     1       3.309   8.100  17.573  0.00  0.00    +0.000 A 
ATOM      3  C   UNL     1       2.134   8.168  18.335  0.00  0.00    +0.000 A 
ATOM      4  C   UNL     1       1.759   7.030  19.049  0.00  0.00    +0.000 A 
ATOM      5  C   UNL     1       2.469   5.826  18.988  0.00  0.00    +0.000 A 
ATOM      6  C   UNL     1       3.614   5.804  18.179  0.00  0.00    +0.000 A 
ENDROOT
BRANCH   3   7
ATOM      7  N   UNL     1       1.378   9.349  18.339  0.00  0.00    +0.000 N 
ATOM      8  C   UNL     1       0.747  10.015  19.390  0.00  0.00    +0.000 A 
ATOM      9  N   UNL     1       1.024   9.722  20.668  0.00  0.00    +0.000 NA
ATOM     10  C   UNL     1       0.359  10.365  21.634  0.00  0.00    +0.000 A 
ATOM     11  C   UNL     1      -0.601  11.301  21.373  0.00  0.00    +0.000 A 
ATOM     12  C   UNL     1      -0.850  11.557  20.038  0.00  0.00    +0.000 A 
ATOM     13  N   UNL     1      -0.166  10.926  19.041  0.00  0.00    +0.000 NA
ATOM     14  H   UNL     1       0.998   9.658  17.457  0.00  0.00    +0.000 HD
BRANCH  12  15
ATOM     15  C   UNL     1      -1.935  12.548  19.654  0.00  0.00    +0.000 C 
ATOM     16  F   UNL     1      -1.506  13.847  19.677  0.00  0.00    +0.000 F 
ATOM     17  F   UNL     1      -2.426  12.350  18.400  0.00  0.00    +0.000 F 
ATOM     18  F   UNL     1      -3.007  12.509  20.496  0.00  0.00    +0.000 F 
ENDBRANCH  12  15
ENDBRANCH   3   7
BRANCH   1  22
ATOM     19  C   UNL     1       5.676   3.915  15.823  0.00  0.00    +0.000 C 
ATOM     20  C   UNL     1       6.218   5.197  15.192  0.00  0.00    +0.000 C 
ATOM     21  C   UNL     1       5.253   6.391  15.321  0.00  0.00    +0.000 C 
ATOM     22  N   UNL     1       5.224   6.882  16.706  0.00  0.00    +0.000 N 
ATOM     23  C   UNL     1       6.554   7.203  17.245  0.00  0.00    +0.000 C 
ATOM     24  C   UNL     1       7.501   6.006  17.049  0.00  0.00    +0.000 C 
ATOM     25  O   UNL     1       7.529   5.522  15.696  0.00  0.00    +0.000 OA
ENDBRANCH   1  22
BRANCH   5  26
ATOM     26  C   UNL     1       2.040   4.657  19.795  0.00  0.00    +0.000 A 
ATOM     27  C   UNL     1       2.438   4.506  21.137  0.00  0.00    +0.000 A 
ATOM     28  C   UNL     1       2.113   3.359  21.868  0.00  0.00    +0.000 A 
ATOM     29  C   UNL     1       1.359   2.352  21.280  0.00  0.00    +0.000 A 
ATOM     30  C   UNL     1       0.926   2.490  19.963  0.00  0.00    +0.000 A 
ATOM     31  C   UNL     1       1.267   3.629  19.230  0.00  0.00    +0.000 A 
ENDBRANCH   5  26
TORSDOF 4
ENDMDL
MODEL 3
REMARK VINA RESULT:      -9.0      0.171      1.133
REMARK  Name = 
REMARK  5 active torsions:
REMARK  status: ('A' for Active; 'I' for Inactive)
REMARK    1  A    between atoms: C_1  and  C_2
REMARK    2  A    between atoms: N_4  and  C_5
REMARK    3  A    between atoms: C_7  and  N_8
REMARK    4  A    between atoms: C_13  and  C_14
REMARK    5  A    between atoms: C_20  and  C_21
REMARK                            x       y       z     vdW  Elec       q    Type
REMARK                         _______ _______ _______ _____ _____    ______ ____
ROOT
ATOM      1  C   UNL     1       4.578   6.419  17.413  0.00  0.00    +0.000 A 
ATOM      2  C   UNL     1       3.863   7.626  17.371  0.00  0.00    +0.000 A 
ATOM      3  C   UNL     1       2.641   7.804  18.035  0.00  0.00    +0.000 A 
ATOM      4  C   UNL     1       2.160   6.740  18.799  0.00  0.00    +0.000 A 
ATOM      5  C   UNL     1       2.813   5.507  18.881  0.00  0.00    +0.000 A 
ATOM      6  C   UNL     1       4.012   5.373  18.164  0.00  0.00    +0.000 A 
ENDROOT
BRANCH   3   7
ATOM      7  N   UNL     1       1.945   9.013  17.895  0.00  0.00    +0.000 N 
ATOM      8  C   UNL     1       1.105   9.681  18.786  0.00  0.00    +0.000 A 
ATOM      9  N   UNL     1       1.061   9.349  20.084  0.00  0.00    +0.000 NA
ATOM     10  C   UNL     1       0.206   9.998  20.885  0.00  0.00    +0.000 A 
ATOM     11  C   UNL     1      -0.632  10.976  20.432  0.00  0.00    +0.000 A 
ATOM     12  C   UNL     1      -0.549  11.270  19.084  0.00  0.00    +0.000 A 
ATOM     13  N   UNL     1       0.331  10.634  18.258  0.00  0.00    +0.000 NA
ATOM     14  H   UNL     1       1.796   9.355  16.958  0.00  0.00    +0.000 HD
BRANCH  12  15
ATOM     15  C   UNL     1      -1.478  12.311  18.485  0.00  0.00    +0.000 C 
ATOM     16  F   UNL     1      -0.823  13.437  18.068  0.00  0.00    +0.000 F 
ATOM     17  F   UNL     1      -2.157  11.861  17.394  0.00  0.00    +0.000 F 
ATOM     18  F   UNL     1      -2.420  12.748  19.368  0.00  0.00    +0.000 F 
ENDBRANCH  12  15
ENDBRANCH   3   7
BRANCH   1  22
ATOM     19  C   UNL     1       5.637   3.587  15.129  0.00  0.00    +0.000 C 
ATOM     20  C   UNL     1       6.540   4.799  14.902  0.00  0.00    +0.000 C 
ATOM     21  C   UNL     1       5.871   6.134  15.282  0.00  0.00    +0.000 C 
ATOM     22  N   UNL     1       5.774   6.264  16.742  0.00  0.00    +0.000 N 
ATOM     23  C   UNL     1       7.059   6.090  17.435  0.00  0.00    +0.000 C 
ATOM     24  C   UNL     1       7.720   4.774  16.989  0.00  0.00    +0.000 C 
ATOM     25  O   UNL     1       7.813   4.642  15.562  0.00  0.00    +0.000 OA
ENDBRANCH   1  22
BRANCH   5  26
ATOM     26  C   UNL     1       2.271   4.422  19.736  0.00  0.00    +0.000 A 
ATOM     27  C   UNL     1       1.287   3.534  19.259  0.00  0.00    +0.000 A 
ATOM     28  C   UNL     1       0.708   2.573  20.093  0.00  0.00    +0.000 A 
ATOM     29  C   UNL     1       1.121   2.461  21.414  0.00  0.00    +0.000 A 
ATOM     30  C   UNL     1       2.114   3.307  21.903  0.00  0.00    +0.000 A 
ATOM     31  C   UNL     1       2.678   4.277  21.072  0.00  0.00    +0.000 A 
ENDBRANCH   5  26
TORSDOF 4
ENDMDL
MODEL 4
REMARK VINA RESULT:      -8.6      2.412      5.443
REMARK  Name = 
REMARK  5 active torsions:
REMARK  status: ('A' for Active; 'I' for Inactive)
REMARK    1  A    between atoms: C_1  and  C_2
REMARK    2  A    between atoms: N_4  and  C_5
REMARK    3  A    between atoms: C_7  and  N_8
REMARK    4  A    between atoms: C_13  and  C_14
REMARK    5  A    between atoms: C_20  and  C_21
REMARK                            x       y       z     vdW  Elec       q    Type
REMARK                         _______ _______ _______ _____ _____    ______ ____
ROOT
ATOM      1  C   UNL     1       3.768   4.047  17.867  0.00  0.00    +0.000 A 
ATOM      2  C   UNL     1       3.317   5.356  18.096  0.00  0.00    +0.000 A 
ATOM      3  C   UNL     1       3.699   6.438  17.288  0.00  0.00    +0.000 A 
ATOM      4  C   UNL     1       4.521   6.169  16.194  0.00  0.00    +0.000 A 
ATOM      5  C   UNL     1       5.015   4.892  15.910  0.00  0.00    +0.000 A 
ATOM      6  C   UNL     1       4.632   3.856  16.774  0.00  0.00    +0.000 A 
ENDROOT
BRANCH   3   7
ATOM      7  N   UNL     1       3.267   7.731  17.613  0.00  0.00    +0.000 N 
ATOM      8  C   UNL     1       2.469   8.181  18.666  0.00  0.00    +0.000 A 
ATOM      9  N   UNL     1       2.210   7.402  19.725  0.00  0.00    +0.000 NA
ATOM     10  C   UNL     1       1.406   7.871  20.687  0.00  0.00    +0.000 A 
ATOM     11  C   UNL     1       0.827   9.107  20.628  0.00  0.00    +0.000 A 
ATOM     12  C   UNL     1       1.124   9.863  19.510  0.00  0.00    +0.000 A 
ATOM     13  N   UNL     1       1.958   9.408  18.531  0.00  0.00    +0.000 NA
ATOM     14  H   UNL     1       3.297   8.427  16.883  0.00  0.00    +0.000 HD
BRANCH  12  15
ATOM     15  C   UNL     1       0.486  11.230  19.338  0.00  0.00    +0.000 C 
ATOM     16  F   UNL     1      -0.069  11.410  18.100  0.00  0.00    +0.000 F 
ATOM     17  F   UNL     1      -0.519  11.470  20.224  0.00  0.00    +0.000 F 
ATOM     18  F   UNL     1       1.378  12.250  19.485  0.00  0.00    +0.000 F 
ENDBRANCH  12  15
ENDBRANCH   3   7
BRANCH   1  22
ATOM     19  C   UNL     1       0.820   3.873  20.241  0.00  0.00    +0.000 C 
ATOM     20  C   UNL     1       1.332   2.463  19.951  0.00  0.00    +0.000 C 
ATOM     21  C   UNL     1       2.071   2.351  18.603  0.00  0.00    +0.000 C 
ATOM     22  N   UNL     1       3.387   3.000  18.682  0.00  0.00    +0.000 N 
ATOM     23  C   UNL     1       4.218   2.512  19.792  0.00  0.00    +0.000 C 
ATOM     24  C   UNL     1       3.428   2.590  21.111  0.00  0.00    +0.000 C 
ATOM     25  O   UNL     1       2.139   1.959  21.035  0.00  0.00    +0.000 OA
ENDBRANCH   1  22
BRANCH   5  26
ATOM     26  C   UNL     1       5.860   4.661  14.713  0.00  0.00    +0.000 A 
ATOM     27  C   UNL     1       7.069   5.358  14.522  0.00  0.00    +0.000 A 
ATOM     28  C   UNL     1       7.817   5.210  13.349  0.00  0.00    +0.000 A 
ATOM     29  C   UNL     1       7.387   4.341  12.356  0.00  0.00    +0.000 A 
ATOM     30  C   UNL     1       6.210   3.616  12.533  0.00  0.00    +0.000 A 
ATOM     31  C   UNL     1       5.456   3.779  13.697  0.00  0.00    +0.000 A 
ENDBRANCH   5  26
TORSDOF 4
ENDMDL
MODEL 5
REMARK VINA RESULT:      -8.4      5.769      8.134
REMARK  Name = 
REMARK  5 active torsions:
REMARK  status: ('A' for Active; 'I' for Inactive)
REMARK    1  A    between atoms: C_1  and  C_2
REMARK    2  A    between atoms: N_4  and  C_5
REMARK    3  A    between atoms: C_7  and  N_8
REMARK    4  A    between atoms: C_13  and  C_14
REMARK    5  A    between atoms: C_20  and  C_21
REMARK                            x       y       z     vdW  Elec       q    Type
REMARK                         _______ _______ _______ _____ _____    ______ ____
ROOT
ATOM      1  C   UNL     1       5.574   5.045  18.436  0.00  0.00    +0.000 A 
ATOM      2  C   UNL     1       6.430   6.045  18.923  0.00  0.00    +0.000 A 
ATOM      3  C   UNL     1       7.408   6.657  18.126  0.00  0.00    +0.000 A 
ATOM      4  C   UNL     1       7.482   6.274  16.786  0.00  0.00    +0.000 A 
ATOM      5  C   UNL     1       6.669   5.279  16.234  0.00  0.00    +0.000 A 
ATOM      6  C   UNL     1       5.736   4.674  17.089  0.00  0.00    +0.000 A 
ENDROOT
BRANCH   3   7
ATOM      7  N   UNL     1       8.275   7.601  18.694  0.00  0.00    +0.000 N 
ATOM      8  C   UNL     1       8.419   8.965  18.440  0.00  0.00    +0.000 A 
ATOM      9  N   UNL     1       7.496   9.646  17.747  0.00  0.00    +0.000 NA
ATOM     10  C   UNL     1       7.706  10.944  17.499  0.00  0.00    +0.000 A 
ATOM     11  C   UNL     1       8.830  11.602  17.911  0.00  0.00    +0.000 A 
ATOM     12  C   UNL     1       9.751  10.848  18.613  0.00  0.00    +0.000 A 
ATOM     13  N   UNL     1       9.542   9.530  18.893  0.00  0.00    +0.000 NA
ATOM     14  H   UNL     1       9.093   7.250  19.170  0.00  0.00    +0.000 HD
BRANCH  12  15
ATOM     15  C   UNL     1      11.051  11.486  19.068  0.00  0.00    +0.000 C 
ATOM     16  F   UNL     1      12.159  10.857  18.569  0.00  0.00    +0.000 F 
ATOM     17  F   UNL     1      11.173  12.788  18.690  0.00  0.00    +0.000 F 
ATOM     18  F   UNL     1      11.204  11.465  20.423  0.00  0.00    +0.000 F 
ENDBRANCH  12  15
ENDBRANCH   3   7
BRANCH   1  22
ATOM     19  C   UNL     1       3.078   2.346  17.522  0.00  0.00    +0.000 C 
ATOM     20  C   UNL     1       3.219   2.425  19.041  0.00  0.00    +0.000 C 
ATOM     21  C   UNL     1       4.573   3.003  19.495  0.00  0.00    +0.000 C 
ATOM     22  N   UNL     1       4.626   4.450  19.243  0.00  0.00    +0.000 N 
ATOM     23  C   UNL     1       3.501   5.191  19.830  0.00  0.00    +0.000 C 
ATOM     24  C   UNL     1       2.169   4.551  19.397  0.00  0.00    +0.000 C 
ATOM     25  O   UNL     1       2.116   3.137  19.639  0.00  0.00    +0.000 OA
ENDBRANCH   1  22
BRANCH   5  26
ATOM     26  C   UNL     1       6.772   4.935  14.795  0.00  0.00    +0.000 A 
ATOM     27  C   UNL     1       5.956   3.944  14.217  0.00  0.00    +0.000 A 
ATOM     28  C   UNL     1       6.118   3.553  12.884  0.00  0.00    +0.000 A 
ATOM     29  C   UNL     1       7.079   4.167  12.093  0.00  0.00    +0.000 A 
ATOM     30  C   UNL     1       7.880   5.173  12.631  0.00  0.00    +0.000 A 
ATOM     31  C   UNL     1       7.728   5.548  13.967  0.00  0.00    +0.000 A 
ENDBRANCH   5  26
TORSDOF 4
ENDMDL
MODEL 6
REMARK VINA RESULT:      -8.1      4.848      9.044
REMARK  Name = 
REMARK  5 active torsions:
REMARK  status: ('A' for Active; 'I' for Inactive)
REMARK    1  A    between atoms: C_1  and  C_2
REMARK    2  A    between atoms: N_4  and  C_5
REMARK    3  A    between atoms: C_7  and  N_8
REMARK    4  A    between atoms: C_13  and  C_14
REMARK    5  A    between atoms: C_20  and  C_21
REMARK                            x       y       z     vdW  Elec       q    Type
REMARK                         _______ _______ _______ _____ _____    ______ ____
ROOT
ATOM      1  C   UNL     1       0.601  11.994  20.398  0.00  0.00    +0.000 A 
ATOM      2  C   UNL     1       1.034  10.730  20.827  0.00  0.00    +0.000 A 
ATOM      3  C   UNL     1       0.430   9.540  20.398  0.00  0.00    +0.000 A 
ATOM      4  C   UNL     1      -0.609   9.639  19.472  0.00  0.00    +0.000 A 
ATOM      5  C   UNL     1      -1.098  10.863  19.008  0.00  0.00    +0.000 A 
ATOM      6  C   UNL     1      -0.482  12.023  19.501  0.00  0.00    +0.000 A 
ENDROOT
BRANCH   3   7
ATOM      7  N   UNL     1       0.868   8.314  20.919  0.00  0.00    +0.000 N 
ATOM      8  C   UNL     1       1.628   7.302  20.331  0.00  0.00    +0.000 A 
ATOM      9  N   UNL     1       2.303   7.509  19.192  0.00  0.00    +0.000 NA
ATOM     10  C   UNL     1       2.983   6.490  18.653  0.00  0.00    +0.000 A 
ATOM     11  C   UNL     1       3.009   5.243  19.210  0.00  0.00    +0.000 A 
ATOM     12  C   UNL     1       2.289   5.086  20.379  0.00  0.00    +0.000 A 
ATOM     13  N   UNL     1       1.608   6.119  20.953  0.00  0.00    +0.000 NA
ATOM     14  H   UNL     1       0.385   7.956  21.729  0.00  0.00    +0.000 HD
BRANCH  12  15
ATOM     15  C   UNL     1       2.221   3.721  21.040  0.00  0.00    +0.000 C 
ATOM     16  F   UNL     1       3.109   2.825  20.510  0.00  0.00    +0.000 F 
ATOM     17  F   UNL     1       2.493   3.755  22.374  0.00  0.00    +0.000 F 
ATOM     18  F   UNL     1       0.998   3.133  20.914  0.00  0.00    +0.000 F 
ENDBRANCH  12  15
ENDBRANCH   3   7
BRANCH   1  22
ATOM     19  C   UNL     1      -0.291  15.577  19.548  0.00  0.00    +0.000 C 
ATOM     20  C   UNL     1       0.575  15.546  20.806  0.00  0.00    +0.000 C 
ATOM     21  C   UNL     1       0.488  14.210  21.569  0.00  0.00    +0.000 C 
ATOM     22  N   UNL     1       1.204  13.154  20.842  0.00  0.00    +0.000 N 
ATOM     23  C   UNL     1       2.596  13.500  20.522  0.00  0.00    +0.000 C 
ATOM     24  C   UNL     1       2.647  14.863  19.809  0.00  0.00    +0.000 C 
ATOM     25  O   UNL     1       1.944  15.897  20.517  0.00  0.00    +0.000 OA
ENDBRANCH   1  22
BRANCH   5  26
ATOM     26  C   UNL     1      -2.185  10.906  17.999  0.00  0.00    +0.000 A 
ATOM     27  C   UNL     1      -2.030  10.318  16.728  0.00  0.00    +0.000 A 
ATOM     28  C   UNL     1      -3.016  10.441  15.744  0.00  0.00    +0.000 A 
ATOM     29  C   UNL     1      -4.190  11.128  16.020  0.00  0.00    +0.000 A 
ATOM     30  C   UNL     1      -4.383  11.692  17.280  0.00  0.00    +0.000 A 
ATOM     31  C   UNL     1      -3.388  11.584  18.254  0.00  0.00    +0.000 A 
ENDBRANCH   5  26
TORSDOF 4
ENDMDL
MODEL 7
REMARK VINA RESULT:      -8.1      2.184      5.108
REMARK  Name = 
REMARK  5 active torsions:
REMARK  status: ('A' for Active; 'I' for Inactive)
REMARK    1  A    between atoms: C_1  and  C_2
REMARK    2  A    between atoms: N_4  and  C_5
REMARK    3  A    between atoms: C_7  and  N_8
REMARK    4  A    between atoms: C_13  and  C_14
REMARK    5  A    between atoms: C_20  and  C_21
REMARK                            x       y       z     vdW  Elec       q    Type
REMARK                         _______ _______ _______ _____ _____    ______ ____
ROOT
ATOM      1  C   UNL     1       3.619   4.802  18.572  0.00  0.00    +0.000 A 
ATOM      2  C   UNL     1       3.121   6.114  18.597  0.00  0.00    +0.000 A 
ATOM      3  C   UNL     1       3.442   7.063  17.615  0.00  0.00    +0.000 A 
ATOM      4  C   UNL     1       4.252   6.649  16.557  0.00  0.00    +0.000 A 
ATOM      5  C   UNL     1       4.792   5.362  16.471  0.00  0.00    +0.000 A 
ATOM      6  C   UNL     1       4.468   4.467  17.502  0.00  0.00    +0.000 A 
ENDROOT
BRANCH   3   7
ATOM      7  N   UNL     1       2.965   8.375  17.736  0.00  0.00    +0.000 N 
ATOM      8  C   UNL     1       2.088   8.936  18.666  0.00  0.00    +0.000 A 
ATOM      9  N   UNL     1       1.770   8.296  19.799  0.00  0.00    +0.000 NA
ATOM     10  C   UNL     1       0.893   8.864  20.635  0.00  0.00    +0.000 A 
ATOM     11  C   UNL     1       0.297  10.065  20.375  0.00  0.00    +0.000 A 
ATOM     12  C   UNL     1       0.656  10.676  19.188  0.00  0.00    +0.000 A 
ATOM     13  N   UNL     1       1.565  10.121  18.336  0.00  0.00    +0.000 NA
ATOM     14  H   UNL     1       3.033   8.970  16.924  0.00  0.00    +0.000 HD
BRANCH  12  15
ATOM     15  C   UNL     1       0.007  11.991  18.796  0.00  0.00    +0.000 C 
ATOM     16  F   UNL     1       0.884  12.871  18.222  0.00  0.00    +0.000 F 
ATOM     17  F   UNL     1      -1.002  11.845  17.893  0.00  0.00    +0.000 F 
ATOM     18  F   UNL     1      -0.526  12.655  19.860  0.00  0.00    +0.000 F 
ENDBRANCH  12  15
ENDBRANCH   3   7
BRANCH   1  22
ATOM     19  C   UNL     1       0.771   2.304  18.612  0.00  0.00    +0.000 C 
ATOM     20  C   UNL     1       1.821   1.906  19.649  0.00  0.00    +0.000 C 
ATOM     21  C   UNL     1       3.229   2.440  19.321  0.00  0.00    +0.000 C 
ATOM     22  N   UNL     1       3.298   3.889  19.555  0.00  0.00    +0.000 N 
ATOM     23  C   UNL     1       2.871   4.288  20.904  0.00  0.00    +0.000 C 
ATOM     24  C   UNL     1       1.486   3.693  21.213  0.00  0.00    +0.000 C 
ATOM     25  O   UNL     1       1.415   2.276  20.982  0.00  0.00    +0.000 OA
ENDBRANCH   1  22
BRANCH   5  26
ATOM     26  C   UNL     1       5.621   4.969  15.306  0.00  0.00    +0.000 A 
ATOM     27  C   UNL     1       6.893   5.533  15.086  0.00  0.00    +0.000 A 
ATOM     28  C   UNL     1       7.634   5.235  13.938  0.00  0.00    +0.000 A 
ATOM     29  C   UNL     1       7.131   4.344  13.000  0.00  0.00    +0.000 A 
ATOM     30  C   UNL     1       5.889   3.747  13.208  0.00  0.00    +0.000 A 
ATOM     31  C   UNL     1       5.144   4.061  14.346  0.00  0.00    +0.000 A 
ENDBRANCH   5  26
TORSDOF 4
ENDMDL
MODEL 8
REMARK VINA RESULT:      -8.0      5.003      9.506
REMARK  Name = 
REMARK  5 active torsions:
REMARK  status: ('A' for Active; 'I' for Inactive)
REMARK    1  A    between atoms: C_1  and  C_2
REMARK    2  A    between atoms: N_4  and  C_5
REMARK    3  A    between atoms: C_7  and  N_8
REMARK    4  A    between atoms: C_13  and  C_14
REMARK    5  A    between atoms: C_20  and  C_21
REMARK                            x       y       z     vdW  Elec       q    Type
REMARK                         _______ _______ _______ _____ _____    ______ ____
ROOT
ATOM      1  C   UNL     1      -0.380  11.756  21.034  0.00  0.00    +0.000 A 
ATOM      2  C   UNL     1       0.486  10.655  21.131  0.00  0.00    +0.000 A 
ATOM      3  C   UNL     1       0.429   9.569  20.245  0.00  0.00    +0.000 A 
ATOM      4  C   UNL     1      -0.500   9.630  19.206  0.00  0.00    +0.000 A 
ATOM      5  C   UNL     1      -1.400  10.690  19.052  0.00  0.00    +0.000 A 
ATOM      6  C   UNL     1      -1.324  11.729  19.991  0.00  0.00    +0.000 A 
ENDROOT
BRANCH   3   7
ATOM      7  N   UNL     1       1.278   8.471  20.440  0.00  0.00    +0.000 N 
ATOM      8  C   UNL     1       2.123   7.811  19.547  0.00  0.00    +0.000 A 
ATOM      9  N   UNL     1       2.444   8.351  18.363  0.00  0.00    +0.000 NA
ATOM     10  C   UNL     1       3.227   7.655  17.530  0.00  0.00    +0.000 A 
ATOM     11  C   UNL     1       3.702   6.410  17.831  0.00  0.00    +0.000 A 
ATOM     12  C   UNL     1       3.331   5.900  19.060  0.00  0.00    +0.000 A 
ATOM     13  N   UNL     1       2.552   6.605  19.930  0.00  0.00    +0.000 NA
ATOM     14  H   UNL     1       1.102   7.887  21.244  0.00  0.00    +0.000 HD
BRANCH  12  15
ATOM     15  C   UNL     1       3.774   4.503  19.457  0.00  0.00    +0.000 C 
ATOM     16  F   UNL     1       3.488   3.561  18.507  0.00  0.00    +0.000 F 
ATOM     17  F   UNL     1       5.115   4.404  19.673  0.00  0.00    +0.000 F 
ATOM     18  F   UNL     1       3.169   4.061  20.596  0.00  0.00    +0.000 F 
ENDBRANCH  12  15
ENDBRANCH   3   7
BRANCH   1  22
ATOM     19  C   UNL     1      -3.117  14.192  21.996  0.00  0.00    +0.000 C 
ATOM     20  C   UNL     1      -2.001  14.232  23.039  0.00  0.00    +0.000 C 
ATOM     21  C   UNL     1      -1.184  12.927  23.102  0.00  0.00    +0.000 C 
ATOM     22  N   UNL     1      -0.313  12.808  21.924  0.00  0.00    +0.000 N 
ATOM     23  C   UNL     1       0.553  13.976  21.712  0.00  0.00    +0.000 C 
ATOM     24  C   UNL     1      -0.293  15.262  21.709  0.00  0.00    +0.000 C 
ATOM     25  O   UNL     1      -1.147  15.379  22.858  0.00  0.00    +0.000 OA
ENDBRANCH   1  22
BRANCH   5  26
ATOM     26  C   UNL     1      -2.345  10.716  17.909  0.00  0.00    +0.000 A 
ATOM     27  C   UNL     1      -2.085   9.997  16.726  0.00  0.00    +0.000 A 
ATOM     28  C   UNL     1      -2.927  10.097  15.614  0.00  0.00    +0.000 A 
ATOM     29  C   UNL     1      -4.062  10.894  15.672  0.00  0.00    +0.000 A 
ATOM     30  C   UNL     1      -4.359  11.592  16.841  0.00  0.00    +0.000 A 
ATOM     31  C   UNL     1      -3.506  11.504  17.944  0.00  0.00    +0.000 A 
ENDBRANCH   5  26
TORSDOF 4
ENDMDL
MODEL 9
REMARK VINA RESULT:      -8.0      4.734      9.022
REMARK  Name = 
REMARK  5 active torsions:
REMARK  status: ('A' for Active; 'I' for Inactive)
REMARK    1  A    between atoms: C_1  and  C_2
REMARK    2  A    between atoms: N_4  and  C_5
REMARK    3  A    between atoms: C_7  and  N_8
REMARK    4  A    between atoms: C_13  and  C_14
REMARK    5  A    between atoms: C_20  and  C_21
REMARK                            x       y       z     vdW  Elec       q    Type
REMARK                         _______ _______ _______ _____ _____    ______ ____
ROOT
ATOM      1  C   UNL     1       0.702  12.541  20.004  0.00  0.00    +0.000 A 
ATOM      2  C   UNL     1       1.149  11.278  20.420  0.00  0.00    +0.000 A 
ATOM      3  C   UNL     1       0.424  10.102  20.176  0.00  0.00    +0.000 A 
ATOM      4  C   UNL     1      -0.760  10.213  19.447  0.00  0.00    +0.000 A 
ATOM      5  C   UNL     1      -1.271  11.439  19.008  0.00  0.00    +0.000 A 
ATOM      6  C   UNL     1      -0.524  12.585  19.316  0.00  0.00    +0.000 A 
ENDROOT
BRANCH   3   7
ATOM      7  N   UNL     1       0.894   8.881  20.678  0.00  0.00    +0.000 N 
ATOM      8  C   UNL     1       1.598   7.854  20.048  0.00  0.00    +0.000 A 
ATOM      9  N   UNL     1       2.180   8.038  18.856  0.00  0.00    +0.000 NA
ATOM     10  C   UNL     1       2.808   7.006  18.280  0.00  0.00    +0.000 A 
ATOM     11  C   UNL     1       2.869   5.767  18.852  0.00  0.00    +0.000 A 
ATOM     12  C   UNL     1       2.244   5.634  20.077  0.00  0.00    +0.000 A 
ATOM     13  N   UNL     1       1.619   6.681  20.688  0.00  0.00    +0.000 NA
ATOM     14  H   UNL     1       0.476   8.540  21.531  0.00  0.00    +0.000 HD
BRANCH  12  15
ATOM     15  C   UNL     1       2.221   4.279  20.763  0.00  0.00    +0.000 C 
ATOM     16  F   UNL     1       0.994   3.676  20.715  0.00  0.00    +0.000 F 
ATOM     17  F   UNL     1       3.088   3.384  20.216  0.00  0.00    +0.000 F 
ATOM     18  F   UNL     1       2.534   4.354  22.088  0.00  0.00    +0.000 F 
ENDBRANCH  12  15
ENDBRANCH   3   7
BRANCH   1  22
ATOM     19  C   UNL     1       0.086  16.053  18.722  0.00  0.00    +0.000 C 
ATOM     20  C   UNL     1       1.011  16.103  19.938  0.00  0.00    +0.000 C 
ATOM     21  C   UNL     1       0.846  14.890  20.875  0.00  0.00    +0.000 C 
ATOM     22  N   UNL     1       1.428  13.686  20.266  0.00  0.00    +0.000 N 
ATOM     23  C   UNL     1       2.826  13.856  19.847  0.00  0.00    +0.000 C 
ATOM     24  C   UNL     1       2.959  15.105  18.958  0.00  0.00    +0.000 C 
ATOM     25  O   UNL     1       2.388  16.283  19.550  0.00  0.00    +0.000 OA
ENDBRANCH   1  22
BRANCH   5  26
ATOM     26  C   UNL     1      -2.520  11.492  18.210  0.00  0.00    +0.000 A 
ATOM     27  C   UNL     1      -3.744  11.882  18.787  0.00  0.00    +0.000 A 
ATOM     28  C   UNL     1      -4.938  11.840  18.060  0.00  0.00    +0.000 A 
ATOM     29  C   UNL     1      -4.928  11.436  16.732  0.00  0.00    +0.000 A 
ATOM     30  C   UNL     1      -3.725  11.075  16.127  0.00  0.00    +0.000 A 
ATOM     31  C   UNL     1      -2.538  11.100  16.861  0.00  0.00    +0.000 A 
ENDBRANCH   5  26
TORSDOF 4
ENDMDL
