MODEL 1
REMARK VINA RESULT:      -7.1      0.000      0.000
REMARK  Name = 
REMARK  2 active torsions:
REMARK  status: ('A' for Active; 'I' for Inactive)
REMARK    1  A    between atoms: C_1  and  S_2
REMARK    2  A    between atoms: S_2  and  C_3
REMARK                            x       y       z     vdW  Elec       q    Type
REMARK                         _______ _______ _______ _____ _____    ______ ____
ROOT
ATOM      1  C   UNL     1       5.794   5.274  15.713  0.00  0.00    +0.000 A 
ATOM      2  N   UNL     1       5.275   6.459  15.475  0.00  0.00    +0.000 NA
ATOM      3  C   UNL     1       4.445   6.674  16.531  0.00  0.00    +0.000 A 
ATOM      4  C   UNL     1       3.681   7.793  16.847  0.00  0.00    +0.000 A 
ATOM      5  C   UNL     1       2.933   7.762  18.033  0.00  0.00    +0.000 A 
ATOM      6  C   UNL     1       2.933   6.644  18.877  0.00  0.00    +0.000 A 
ATOM      7  C   UNL     1       3.695   5.499  18.555  0.00  0.00    +0.000 A 
ATOM      8  C   UNL     1       4.439   5.579  17.375  0.00  0.00    +0.000 A 
ATOM      9  O   UNL     1       5.299   4.656  16.841  0.00  0.00    +0.000 OA
ATOM     10  C   UNL     1       2.131   6.681  20.128  0.00  0.00    +0.000 C 
ATOM     11  O   UNL     1       2.154   5.731  20.903  0.00  0.00    +0.000 OA
ATOM     12  C   UNL     1       1.304   7.881  20.427  0.00  0.00    +0.000 A 
ATOM     13  C   UNL     1       0.507   7.933  21.576  0.00  0.00    +0.000 A 
ATOM     14  C   UNL     1      -0.288   9.057  21.830  0.00  0.00    +0.000 A 
ATOM     15  C   UNL     1      -0.295  10.134  20.946  0.00  0.00    +0.000 A 
ATOM     16  C   UNL     1       0.510  10.095  19.811  0.00  0.00    +0.000 A 
ATOM     17  C   UNL     1       1.306   8.968  19.560  0.00  0.00    +0.000 A 
ATOM     18  C   UNL     1       2.146   8.958  18.360  0.00  0.00    +0.000 C 
ATOM     19  O   UNL     1       2.191   9.943  17.630  0.00  0.00    +0.000 OA
ENDROOT
BRANCH   1  21
ATOM     20  C   UNL     1       6.085   3.836  13.406  0.00  0.00    +0.000 C 
ATOM     21  S   UNL     1       7.065   4.601  14.730  0.00  0.00    +0.000 S 
ENDBRANCH   1  21
TORSDOF 1
ENDMDL
MODEL 2
REMARK VINA RESULT:      -7.0      1.004      2.595
REMARK  Name = 
REMARK  2 active torsions:
REMARK  status: ('A' for Active; 'I' for Inactive)
REMARK    1  A    between atoms: C_1  and  S_2
REMARK    2  A    between atoms: S_2  and  C_3
REMARK                            x       y       z     vdW  Elec       q    Type
REMARK                         _______ _______ _______ _____ _____    ______ ____
ROOT
ATOM      1  C   UNL     1       5.366   4.793  16.425  0.00  0.00    +0.000 A 
ATOM      2  N   UNL     1       4.862   4.438  17.588  0.00  0.00    +0.000 NA
ATOM      3  C   UNL     1       4.116   5.511  17.965  0.00  0.00    +0.000 A 
ATOM      4  C   UNL     1       3.301   5.678  19.080  0.00  0.00    +0.000 A 
ATOM      5  C   UNL     1       2.607   6.891  19.209  0.00  0.00    +0.000 A 
ATOM      6  C   UNL     1       2.729   7.915  18.261  0.00  0.00    +0.000 A 
ATOM      7  C   UNL     1       3.566   7.757  17.134  0.00  0.00    +0.000 A 
ATOM      8  C   UNL     1       4.225   6.529  17.036  0.00  0.00    +0.000 A 
ATOM      9  O   UNL     1       5.050   6.077  16.041  0.00  0.00    +0.000 OA
ATOM     10  C   UNL     1       1.954   9.170  18.447  0.00  0.00    +0.000 C 
ATOM     11  O   UNL     1       2.011  10.059  17.606  0.00  0.00    +0.000 OA
ATOM     12  C   UNL     1       1.110   9.330  19.662  0.00  0.00    +0.000 A 
ATOM     13  C   UNL     1       0.398  10.513  19.888  0.00  0.00    +0.000 A 
ATOM     14  C   UNL     1      -0.369  10.661  21.050  0.00  0.00    +0.000 A 
ATOM     15  C   UNL     1      -0.434   9.637  21.991  0.00  0.00    +0.000 A 
ATOM     16  C   UNL     1       0.258   8.451  21.763  0.00  0.00    +0.000 A 
ATOM     17  C   UNL     1       1.025   8.305  20.597  0.00  0.00    +0.000 A 
ATOM     18  C   UNL     1       1.738   7.044  20.383  0.00  0.00    +0.000 C 
ATOM     19  O   UNL     1       1.612   6.120  21.180  0.00  0.00    +0.000 OA
ENDROOT
BRANCH   1  21
ATOM     20  C   UNL     1       6.956   4.839  14.202  0.00  0.00    +0.000 C 
ATOM     21  S   UNL     1       6.272   3.687  15.429  0.00  0.00    +0.000 S 
ENDBRANCH   1  21
TORSDOF 1
ENDMDL
MODEL 3
REMARK VINA RESULT:      -7.0      2.520      4.148
REMARK  Name = 
REMARK  2 active torsions:
REMARK  status: ('A' for Active; 'I' for Inactive)
REMARK    1  A    between atoms: C_1  and  S_2
REMARK    2  A    between atoms: S_2  and  C_3
REMARK                            x       y       z     vdW  Elec       q    Type
REMARK                         _______ _______ _______ _____ _____    ______ ____
ROOT
ATOM      1  C   UNL     1       3.171   6.669  18.439  0.00  0.00    +0.000 A 
ATOM      2  N   UNL     1       2.696   7.719  17.804  0.00  0.00    +0.000 NA
ATOM      3  C   UNL     1       1.954   8.364  18.743  0.00  0.00    +0.000 A 
ATOM      4  C   UNL     1       1.270   9.573  18.658  0.00  0.00    +0.000 A 
ATOM      5  C   UNL     1       0.605  10.032  19.806  0.00  0.00    +0.000 A 
ATOM      6  C   UNL     1       0.609   9.303  21.001  0.00  0.00    +0.000 A 
ATOM      7  C   UNL     1       1.289   8.068  21.090  0.00  0.00    +0.000 A 
ATOM      8  C   UNL     1       1.952   7.657  19.931  0.00  0.00    +0.000 A 
ATOM      9  O   UNL     1       2.725   6.544  19.736  0.00  0.00    +0.000 OA
ATOM     10  C   UNL     1      -0.102   9.852  22.187  0.00  0.00    +0.000 C 
ATOM     11  O   UNL     1      -0.072   9.253  23.255  0.00  0.00    +0.000 OA
ATOM     12  C   UNL     1      -0.845  11.134  22.059  0.00  0.00    +0.000 A 
ATOM     13  C   UNL     1      -1.557  11.661  23.143  0.00  0.00    +0.000 A 
ATOM     14  C   UNL     1      -2.276  12.854  23.000  0.00  0.00    +0.000 A 
ATOM     15  C   UNL     1      -2.291  13.530  21.782  0.00  0.00    +0.000 A 
ATOM     16  C   UNL     1      -1.570  13.021  20.706  0.00  0.00    +0.000 A 
ATOM     17  C   UNL     1      -0.850  11.826  20.853  0.00  0.00    +0.000 A 
ATOM     18  C   UNL     1      -0.097  11.318  19.703  0.00  0.00    +0.000 C 
ATOM     19  O   UNL     1      -0.054  11.962  18.660  0.00  0.00    +0.000 OA
ENDROOT
BRANCH   1  21
ATOM     20  C   UNL     1       5.413   5.272  19.142  0.00  0.00    +0.000 C 
ATOM     21  S   UNL     1       4.336   5.594  17.716  0.00  0.00    +0.000 S 
ENDBRANCH   1  21
TORSDOF 1
ENDMDL
MODEL 4
REMARK VINA RESULT:      -6.9      2.661      4.726
REMARK  Name = 
REMARK  2 active torsions:
REMARK  status: ('A' for Active; 'I' for Inactive)
REMARK    1  A    between atoms: C_1  and  S_2
REMARK    2  A    between atoms: S_2  and  C_3
REMARK                            x       y       z     vdW  Elec       q    Type
REMARK                         _______ _______ _______ _____ _____    ______ ____
ROOT
ATOM      1  C   UNL     1       3.158   6.575  18.376  0.00  0.00    +0.000 A 
ATOM      2  N   UNL     1       2.794   6.532  19.640  0.00  0.00    +0.000 NA
ATOM      3  C   UNL     1       2.045   7.655  19.806  0.00  0.00    +0.000 A 
ATOM      4  C   UNL     1       1.344   8.098  20.923  0.00  0.00    +0.000 A 
ATOM      5  C   UNL     1       0.614   9.291  20.808  0.00  0.00    +0.000 A 
ATOM      6  C   UNL     1       0.592  10.030  19.620  0.00  0.00    +0.000 A 
ATOM      7  C   UNL     1       1.314   9.594  18.486  0.00  0.00    +0.000 A 
ATOM      8  C   UNL     1       2.012   8.394  18.638  0.00  0.00    +0.000 A 
ATOM      9  O   UNL     1       2.748   7.708  17.709  0.00  0.00    +0.000 OA
ATOM     10  C   UNL     1      -0.214  11.279  19.558  0.00  0.00    +0.000 C 
ATOM     11  O   UNL     1      -0.284  11.916  18.514  0.00  0.00    +0.000 OA
ATOM     12  C   UNL     1      -0.932  11.741  20.776  0.00  0.00    +0.000 A 
ATOM     13  C   UNL     1      -1.669  12.931  20.764  0.00  0.00    +0.000 A 
ATOM     14  C   UNL     1      -2.317  13.368  21.926  0.00  0.00    +0.000 A 
ATOM     15  C   UNL     1      -2.238  12.627  23.103  0.00  0.00    +0.000 A 
ATOM     16  C   UNL     1      -1.522  11.433  23.115  0.00  0.00    +0.000 A 
ATOM     17  C   UNL     1      -0.875  10.998  21.949  0.00  0.00    +0.000 A 
ATOM     18  C   UNL     1      -0.133   9.735  21.992  0.00  0.00    +0.000 C 
ATOM     19  O   UNL     1      -0.136   9.051  23.011  0.00  0.00    +0.000 OA
ENDROOT
BRANCH   1  21
ATOM     20  C   UNL     1       4.551   4.326  19.066  0.00  0.00    +0.000 C 
ATOM     21  S   UNL     1       4.003   5.260  17.607  0.00  0.00    +0.000 S 
ENDBRANCH   1  21
TORSDOF 1
ENDMDL
MODEL 5
REMARK VINA RESULT:      -6.9      3.727      6.886
REMARK  Name = 
REMARK  2 active torsions:
REMARK  status: ('A' for Active; 'I' for Inactive)
REMARK    1  A    between atoms: C_1  and  S_2
REMARK    2  A    between atoms: S_2  and  C_3
REMARK                            x       y       z     vdW  Elec       q    Type
REMARK                         _______ _______ _______ _____ _____    ______ ____
ROOT
ATOM      1  C   UNL     1      -0.296  10.989  20.888  0.00  0.00    +0.000 A 
ATOM      2  N   UNL     1       0.382  11.018  19.760  0.00  0.00    +0.000 NA
ATOM      3  C   UNL     1       0.978   9.797  19.702  0.00  0.00    +0.000 A 
ATOM      4  C   UNL     1       1.765   9.240  18.699  0.00  0.00    +0.000 A 
ATOM      5  C   UNL     1       2.230   7.929  18.882  0.00  0.00    +0.000 A 
ATOM      6  C   UNL     1       1.931   7.195  20.037  0.00  0.00    +0.000 A 
ATOM      7  C   UNL     1       1.145   7.760  21.066  0.00  0.00    +0.000 A 
ATOM      8  C   UNL     1       0.688   9.060  20.836  0.00  0.00    +0.000 A 
ATOM      9  O   UNL     1      -0.124   9.834  21.620  0.00  0.00    +0.000 OA
ATOM     10  C   UNL     1       2.440   5.804  20.164  0.00  0.00    +0.000 C 
ATOM     11  O   UNL     1       2.152   5.129  21.145  0.00  0.00    +0.000 OA
ATOM     12  C   UNL     1       3.301   5.244  19.087  0.00  0.00    +0.000 A 
ATOM     13  C   UNL     1       3.829   3.952  19.191  0.00  0.00    +0.000 A 
ATOM     14  C   UNL     1       4.660   3.449  18.183  0.00  0.00    +0.000 A 
ATOM     15  C   UNL     1       4.970   4.224  17.068  0.00  0.00    +0.000 A 
ATOM     16  C   UNL     1       4.432   5.502  16.950  0.00  0.00    +0.000 A 
ATOM     17  C   UNL     1       3.599   6.003  17.961  0.00  0.00    +0.000 A 
ATOM     18  C   UNL     1       3.045   7.350  17.806  0.00  0.00    +0.000 C 
ATOM     19  O   UNL     1       3.261   7.993  16.784  0.00  0.00    +0.000 OA
ENDROOT
BRANCH   1  21
ATOM     20  C   UNL     1      -1.731  11.793  23.071  0.00  0.00    +0.000 C 
ATOM     21  S   UNL     1      -1.384  12.267  21.352  0.00  0.00    +0.000 S 
ENDBRANCH   1  21
TORSDOF 1
ENDMDL
MODEL 6
REMARK VINA RESULT:      -6.8      2.981      4.525
REMARK  Name = 
REMARK  2 active torsions:
REMARK  status: ('A' for Active; 'I' for Inactive)
REMARK    1  A    between atoms: C_1  and  S_2
REMARK    2  A    between atoms: S_2  and  C_3
REMARK                            x       y       z     vdW  Elec       q    Type
REMARK                         _______ _______ _______ _____ _____    ______ ____
ROOT
ATOM      1  C   UNL     1       6.927   4.991  14.034  0.00  0.00    +0.000 A 
ATOM      2  N   UNL     1       6.626   3.795  14.494  0.00  0.00    +0.000 NA
ATOM      3  C   UNL     1       5.787   4.044  15.535  0.00  0.00    +0.000 A 
ATOM      4  C   UNL     1       5.101   3.153  16.355  0.00  0.00    +0.000 A 
ATOM      5  C   UNL     1       4.261   3.686  17.344  0.00  0.00    +0.000 A 
ATOM      6  C   UNL     1       4.117   5.068  17.523  0.00  0.00    +0.000 A 
ATOM      7  C   UNL     1       4.822   5.978  16.704  0.00  0.00    +0.000 A 
ATOM      8  C   UNL     1       5.633   5.405  15.721  0.00  0.00    +0.000 A 
ATOM      9  O   UNL     1       6.385   6.028  14.761  0.00  0.00    +0.000 OA
ATOM     10  C   UNL     1       3.199   5.569  18.579  0.00  0.00    +0.000 C 
ATOM     11  O   UNL     1       3.023   6.774  18.722  0.00  0.00    +0.000 OA
ATOM     12  C   UNL     1       2.498   4.593  19.457  0.00  0.00    +0.000 A 
ATOM     13  C   UNL     1       1.657   5.031  20.486  0.00  0.00    +0.000 A 
ATOM     14  C   UNL     1       1.026   4.102  21.322  0.00  0.00    +0.000 A 
ATOM     15  C   UNL     1       1.226   2.735  21.141  0.00  0.00    +0.000 A 
ATOM     16  C   UNL     1       2.047   2.294  20.107  0.00  0.00    +0.000 A 
ATOM     17  C   UNL     1       2.677   3.227  19.271  0.00  0.00    +0.000 A 
ATOM     18  C   UNL     1       3.532   2.732  18.189  0.00  0.00    +0.000 C 
ATOM     19  O   UNL     1       3.638   1.526  17.989  0.00  0.00    +0.000 OA
ENDROOT
BRANCH   1  21
ATOM     20  C   UNL     1       7.173   3.888  11.545  0.00  0.00    +0.000 C 
ATOM     21  S   UNL     1       7.852   5.221  12.576  0.00  0.00    +0.000 S 
ENDBRANCH   1  21
TORSDOF 1
ENDMDL
MODEL 7
REMARK VINA RESULT:      -6.8      2.843      4.096
REMARK  Name = 
REMARK  2 active torsions:
REMARK  status: ('A' for Active; 'I' for Inactive)
REMARK    1  A    between atoms: C_1  and  S_2
REMARK    2  A    between atoms: S_2  and  C_3
REMARK                            x       y       z     vdW  Elec       q    Type
REMARK                         _______ _______ _______ _____ _____    ______ ____
ROOT
ATOM      1  C   UNL     1       3.218   4.118  19.597  0.00  0.00    +0.000 A 
ATOM      2  N   UNL     1       2.548   4.579  20.631  0.00  0.00    +0.000 NA
ATOM      3  C   UNL     1       2.242   5.858  20.282  0.00  0.00    +0.000 A 
ATOM      4  C   UNL     1       1.485   6.807  20.962  0.00  0.00    +0.000 A 
ATOM      5  C   UNL     1       1.294   8.054  20.348  0.00  0.00    +0.000 A 
ATOM      6  C   UNL     1       1.851   8.355  19.099  0.00  0.00    +0.000 A 
ATOM      7  C   UNL     1       2.633   7.401  18.410  0.00  0.00    +0.000 A 
ATOM      8  C   UNL     1       2.783   6.167  19.048  0.00  0.00    +0.000 A 
ATOM      9  O   UNL     1       3.435   5.047  18.604  0.00  0.00    +0.000 OA
ATOM     10  C   UNL     1       1.598   9.690  18.495  0.00  0.00    +0.000 C 
ATOM     11  O   UNL     1       2.037   9.957  17.383  0.00  0.00    +0.000 OA
ATOM     12  C   UNL     1       0.806  10.693  19.257  0.00  0.00    +0.000 A 
ATOM     13  C   UNL     1       0.581  11.973  18.736  0.00  0.00    +0.000 A 
ATOM     14  C   UNL     1      -0.142  12.916  19.475  0.00  0.00    +0.000 A 
ATOM     15  C   UNL     1      -0.646  12.595  20.734  0.00  0.00    +0.000 A 
ATOM     16  C   UNL     1      -0.441  11.318  21.249  0.00  0.00    +0.000 A 
ATOM     17  C   UNL     1       0.283  10.375  20.505  0.00  0.00    +0.000 A 
ATOM     18  C   UNL     1       0.478   9.038  21.072  0.00  0.00    +0.000 C 
ATOM     19  O   UNL     1      -0.037   8.742  22.145  0.00  0.00    +0.000 OA
ENDROOT
BRANCH   1  21
ATOM     20  C   UNL     1       2.951   2.013  17.873  0.00  0.00    +0.000 C 
ATOM     21  S   UNL     1       3.698   2.448  19.471  0.00  0.00    +0.000 S 
ENDBRANCH   1  21
TORSDOF 1
ENDMDL
MODEL 8
REMARK VINA RESULT:      -6.8      3.830      7.276
REMARK  Name = 
REMARK  2 active torsions:
REMARK  status: ('A' for Active; 'I' for Inactive)
REMARK    1  A    between atoms: C_1  and  S_2
REMARK    2  A    between atoms: S_2  and  C_3
REMARK                            x       y       z     vdW  Elec       q    Type
REMARK                         _______ _______ _______ _____ _____    ______ ____
ROOT
ATOM      1  C   UNL     1      -0.211  10.792  21.326  0.00  0.00    +0.000 A 
ATOM      2  N   UNL     1      -0.127   9.603  21.883  0.00  0.00    +0.000 NA
ATOM      3  C   UNL     1       0.622   8.881  21.007  0.00  0.00    +0.000 A 
ATOM      4  C   UNL     1       1.089   7.574  21.104  0.00  0.00    +0.000 A 
ATOM      5  C   UNL     1       1.882   7.081  20.057  0.00  0.00    +0.000 A 
ATOM      6  C   UNL     1       2.191   7.862  18.936  0.00  0.00    +0.000 A 
ATOM      7  C   UNL     1       1.708   9.184  18.824  0.00  0.00    +0.000 A 
ATOM      8  C   UNL     1       0.938   9.641  19.896  0.00  0.00    +0.000 A 
ATOM      9  O   UNL     1       0.385  10.879  20.087  0.00  0.00    +0.000 OA
ATOM     10  C   UNL     1       3.050   7.286  17.867  0.00  0.00    +0.000 C 
ATOM     11  O   UNL     1       3.370   7.967  16.901  0.00  0.00    +0.000 OA
ATOM     12  C   UNL     1       3.513   5.878  17.987  0.00  0.00    +0.000 A 
ATOM     13  C   UNL     1       4.291   5.291  16.982  0.00  0.00    +0.000 A 
ATOM     14  C   UNL     1       4.696   3.956  17.094  0.00  0.00    +0.000 A 
ATOM     15  C   UNL     1       4.333   3.197  18.204  0.00  0.00    +0.000 A 
ATOM     16  C   UNL     1       3.576   3.780  19.216  0.00  0.00    +0.000 A 
ATOM     17  C   UNL     1       3.172   5.118  19.101  0.00  0.00    +0.000 A 
ATOM     18  C   UNL     1       2.380   5.705  20.184  0.00  0.00    +0.000 C 
ATOM     19  O   UNL     1       2.133   5.052  21.193  0.00  0.00    +0.000 OA
ENDROOT
BRANCH   1  21
ATOM     20  C   UNL     1      -2.364  12.456  21.064  0.00  0.00    +0.000 C 
ATOM     21  S   UNL     1      -0.934  12.151  22.142  0.00  0.00    +0.000 S 
ENDBRANCH   1  21
TORSDOF 1
ENDMDL
MODEL 9
REMARK VINA RESULT:      -6.8      2.717      3.509
REMARK  Name = 
REMARK  2 active torsions:
REMARK  status: ('A' for Active; 'I' for Inactive)
REMARK    1  A    between atoms: C_1  and  S_2
REMARK    2  A    between atoms: S_2  and  C_3
REMARK                            x       y       z     vdW  Elec       q    Type
REMARK                         _______ _______ _______ _____ _____    ______ ____
ROOT
ATOM      1  C   UNL     1       3.333   4.193  19.521  0.00  0.00    +0.000 A 
ATOM      2  N   UNL     1       3.370   5.055  18.528  0.00  0.00    +0.000 NA
ATOM      3  C   UNL     1       2.716   6.144  19.012  0.00  0.00    +0.000 A 
ATOM      4  C   UNL     1       2.504   7.387  18.424  0.00  0.00    +0.000 A 
ATOM      5  C   UNL     1       1.819   8.358  19.171  0.00  0.00    +0.000 A 
ATOM      6  C   UNL     1       1.344   8.095  20.462  0.00  0.00    +0.000 A 
ATOM      7  C   UNL     1       1.542   6.831  21.059  0.00  0.00    +0.000 A 
ATOM      8  C   UNL     1       2.245   5.900  20.289  0.00  0.00    +0.000 A 
ATOM      9  O   UNL     1       2.626   4.628  20.621  0.00  0.00    +0.000 OA
ATOM     10  C   UNL     1       0.639   9.172  21.207  0.00  0.00    +0.000 C 
ATOM     11  O   UNL     1       0.257   8.978  22.355  0.00  0.00    +0.000 OA
ATOM     12  C   UNL     1       0.405  10.482  20.543  0.00  0.00    +0.000 A 
ATOM     13  C   UNL     1      -0.289  11.505  21.200  0.00  0.00    +0.000 A 
ATOM     14  C   UNL     1      -0.526  12.723  20.553  0.00  0.00    +0.000 A 
ATOM     15  C   UNL     1      -0.076  12.933  19.251  0.00  0.00    +0.000 A 
ATOM     16  C   UNL     1       0.631  11.927  18.599  0.00  0.00    +0.000 A 
ATOM     17  C   UNL     1       0.868  10.708  19.251  0.00  0.00    +0.000 A 
ATOM     18  C   UNL     1       1.619   9.669  18.541  0.00  0.00    +0.000 C 
ATOM     19  O   UNL     1       2.079   9.893  17.426  0.00  0.00    +0.000 OA
ENDROOT
BRANCH   1  21
ATOM     20  C   UNL     1       3.267   1.823  18.160  0.00  0.00    +0.000 C 
ATOM     21  S   UNL     1       4.192   2.678  19.470  0.00  0.00    +0.000 S 
ENDBRANCH   1  21
TORSDOF 1
ENDMDL
