MODEL 1
REMARK VINA RESULT:      -7.2      0.000      0.000
REMARK  Name = 
REMARK  4 active torsions:
REMARK  status: ('A' for Active; 'I' for Inactive)
REMARK    1  A    between atoms: C_2  and  C_13
REMARK    2  A    between atoms: N_3  and  N_4
REMARK    3  A    between atoms: C_5  and  C_6
REMARK    4  A    between atoms: C_10  and  O_11
REMARK                            x       y       z     vdW  Elec       q    Type
REMARK                         _______ _______ _______ _____ _____    ______ ____
ROOT
ATOM      1  O   UNL     1       2.347   2.610  16.934  0.00  0.00    +0.000 OA
ATOM      2  C   UNL     1       3.140   2.930  17.814  0.00  0.00    +0.000 C 
ATOM      3  N   UNL     1       4.475   3.261  17.616  0.00  0.00    +0.000 N 
ATOM      4  H   UNL     1       5.116   3.375  18.392  0.00  0.00    +0.000 HD
ENDROOT
BRANCH   2   5
ATOM      5  C   UNL     1       2.670   2.933  19.219  0.00  0.00    +0.000 A 
ATOM      6  C   UNL     1       1.375   3.359  19.517  0.00  0.00    +0.000 A 
ATOM      7  C   UNL     1       0.942   3.369  20.842  0.00  0.00    +0.000 A 
ATOM      8  C   UNL     1       1.829   2.953  21.824  0.00  0.00    +0.000 A 
ATOM      9  N   UNL     1       3.093   2.546  21.571  0.00  0.00    +0.000 NA
ATOM     10  C   UNL     1       3.490   2.559  20.275  0.00  0.00    +0.000 A 
ENDBRANCH   2   5
BRANCH   3  11
ATOM     11  N   UNL     1       4.979   3.235  16.349  0.00  0.00    +0.000 NA
ATOM     12  C   UNL     1       5.503   4.333  15.912  0.00  0.00    +0.000 C 
BRANCH  12  13
ATOM     13  C   UNL     1       6.121   4.405  14.573  0.00  0.00    +0.000 A 
ATOM     14  C   UNL     1       5.629   3.625  13.521  0.00  0.00    +0.000 A 
ATOM     15  C   UNL     1       6.256   3.662  12.274  0.00  0.00    +0.000 A 
ATOM     16  C   UNL     1       7.375   4.472  12.078  0.00  0.00    +0.000 A 
ATOM     17  C   UNL     1       7.851   5.248  13.133  0.00  0.00    +0.000 A 
ATOM     18  C   UNL     1       7.230   5.232  14.378  0.00  0.00    +0.000 A 
BRANCH  17  19
ATOM     19  O   UNL     1       8.953   6.040  12.985  0.00  0.00    +0.000 OA
ATOM     20  H   UNL     1       9.027   6.616  13.765  0.00  0.00    +0.000 HD
ENDBRANCH  17  19
ENDBRANCH  12  13
ENDBRANCH   3  11
TORSDOF 4
ENDMDL
MODEL 2
REMARK VINA RESULT:      -7.0      1.244      1.244
REMARK  Name = 
REMARK  4 active torsions:
REMARK  status: ('A' for Active; 'I' for Inactive)
REMARK    1  A    between atoms: C_2  and  C_13
REMARK    2  A    between atoms: N_3  and  N_4
REMARK    3  A    between atoms: C_5  and  C_6
REMARK    4  A    between atoms: C_10  and  O_11
REMARK                            x       y       z     vdW  Elec       q    Type
REMARK                         _______ _______ _______ _____ _____    ______ ____
ROOT
ATOM      1  O   UNL     1       3.612   5.606  17.597  0.00  0.00    +0.000 OA
ATOM      2  C   UNL     1       4.078   4.646  18.206  0.00  0.00    +0.000 C 
ATOM      3  N   UNL     1       5.213   3.932  17.839  0.00  0.00    +0.000 N 
ATOM      4  H   UNL     1       5.465   3.064  18.296  0.00  0.00    +0.000 HD
ENDROOT
BRANCH   2   5
ATOM      5  C   UNL     1       3.368   4.165  19.413  0.00  0.00    +0.000 A 
ATOM      6  C   UNL     1       2.382   4.959  20.001  0.00  0.00    +0.000 A 
ATOM      7  C   UNL     1       1.723   4.505  21.142  0.00  0.00    +0.000 A 
ATOM      8  C   UNL     1       2.081   3.267  21.657  0.00  0.00    +0.000 A 
ATOM      9  N   UNL     1       3.039   2.479  21.119  0.00  0.00    +0.000 NA
ATOM     10  C   UNL     1       3.672   2.953  20.018  0.00  0.00    +0.000 A 
ENDBRANCH   2   5
BRANCH   3  11
ATOM     11  N   UNL     1       5.887   4.299  16.712  0.00  0.00    +0.000 NA
ATOM     12  C   UNL     1       5.570   3.680  15.622  0.00  0.00    +0.000 C 
BRANCH  12  13
ATOM     13  C   UNL     1       6.201   4.029  14.334  0.00  0.00    +0.000 A 
ATOM     14  C   UNL     1       5.771   3.429  13.146  0.00  0.00    +0.000 A 
ATOM     15  C   UNL     1       6.412   3.727  11.942  0.00  0.00    +0.000 A 
ATOM     16  C   UNL     1       7.483   4.620  11.924  0.00  0.00    +0.000 A 
ATOM     17  C   UNL     1       7.898   5.216  13.113  0.00  0.00    +0.000 A 
ATOM     18  C   UNL     1       7.262   4.938  14.319  0.00  0.00    +0.000 A 
BRANCH  17  19
ATOM     19  O   UNL     1       8.953   6.082  13.139  0.00  0.00    +0.000 OA
ATOM     20  H   UNL     1       8.709   6.883  12.645  0.00  0.00    +0.000 HD
ENDBRANCH  17  19
ENDBRANCH  12  13
ENDBRANCH   3  11
TORSDOF 4
ENDMDL
MODEL 3
REMARK VINA RESULT:      -7.0      0.903      1.279
REMARK  Name = 
REMARK  4 active torsions:
REMARK  status: ('A' for Active; 'I' for Inactive)
REMARK    1  A    between atoms: C_2  and  C_13
REMARK    2  A    between atoms: N_3  and  N_4
REMARK    3  A    between atoms: C_5  and  C_6
REMARK    4  A    between atoms: C_10  and  O_11
REMARK                            x       y       z     vdW  Elec       q    Type
REMARK                         _______ _______ _______ _____ _____    ______ ____
ROOT
ATOM      1  O   UNL     1       2.149   3.573  16.732  0.00  0.00    +0.000 OA
ATOM      2  C   UNL     1       2.910   3.797  17.669  0.00  0.00    +0.000 C 
ATOM      3  N   UNL     1       4.187   4.333  17.561  0.00  0.00    +0.000 N 
ATOM      4  H   UNL     1       4.821   4.359  18.351  0.00  0.00    +0.000 HD
ENDROOT
BRANCH   2   5
ATOM      5  C   UNL     1       2.468   3.437  19.036  0.00  0.00    +0.000 A 
ATOM      6  C   UNL     1       3.392   2.937  19.955  0.00  0.00    +0.000 A 
ATOM      7  C   UNL     1       2.969   2.591  21.238  0.00  0.00    +0.000 A 
ATOM      8  C   UNL     1       1.628   2.758  21.552  0.00  0.00    +0.000 A 
ATOM      9  N   UNL     1       0.705   3.228  20.683  0.00  0.00    +0.000 NA
ATOM     10  C   UNL     1       1.144   3.543  19.439  0.00  0.00    +0.000 A 
ENDBRANCH   2   5
BRANCH   3  11
ATOM     11  N   UNL     1       4.669   4.644  16.324  0.00  0.00    +0.000 NA
ATOM     12  C   UNL     1       5.650   3.924  15.888  0.00  0.00    +0.000 C 
BRANCH  12  13
ATOM     13  C   UNL     1       6.219   4.141  14.542  0.00  0.00    +0.000 A 
ATOM     14  C   UNL     1       5.729   3.430  13.441  0.00  0.00    +0.000 A 
ATOM     15  C   UNL     1       6.310   3.605  12.184  0.00  0.00    +0.000 A 
ATOM     16  C   UNL     1       7.382   4.484  12.026  0.00  0.00    +0.000 A 
ATOM     17  C   UNL     1       7.856   5.191  13.129  0.00  0.00    +0.000 A 
ATOM     18  C   UNL     1       7.279   5.037  14.386  0.00  0.00    +0.000 A 
BRANCH  17  19
ATOM     19  O   UNL     1       8.912   6.047  13.019  0.00  0.00    +0.000 OA
ATOM     20  H   UNL     1       9.640   5.715  13.572  0.00  0.00    +0.000 HD
ENDBRANCH  17  19
ENDBRANCH  12  13
ENDBRANCH   3  11
TORSDOF 4
ENDMDL
MODEL 4
REMARK VINA RESULT:      -6.9      5.334      7.287
REMARK  Name = 
REMARK  4 active torsions:
REMARK  status: ('A' for Active; 'I' for Inactive)
REMARK    1  A    between atoms: C_2  and  C_13
REMARK    2  A    between atoms: N_3  and  N_4
REMARK    3  A    between atoms: C_5  and  C_6
REMARK    4  A    between atoms: C_10  and  O_11
REMARK                            x       y       z     vdW  Elec       q    Type
REMARK                         _______ _______ _______ _____ _____    ______ ____
ROOT
ATOM      1  O   UNL     1       1.341   9.088  19.166  0.00  0.00    +0.000 OA
ATOM      2  C   UNL     1       1.163   8.757  20.334  0.00  0.00    +0.000 C 
ATOM      3  N   UNL     1       1.573   7.557  20.904  0.00  0.00    +0.000 N 
ATOM      4  H   UNL     1       1.272   7.278  21.830  0.00  0.00    +0.000 HD
ENDROOT
BRANCH   2   5
ATOM      5  C   UNL     1       0.419   9.679  21.223  0.00  0.00    +0.000 A 
ATOM      6  C   UNL     1      -0.184  10.820  20.692  0.00  0.00    +0.000 A 
ATOM      7  C   UNL     1      -0.875  11.688  21.535  0.00  0.00    +0.000 A 
ATOM      8  C   UNL     1      -0.933  11.382  22.887  0.00  0.00    +0.000 A 
ATOM      9  N   UNL     1      -0.350  10.293  23.435  0.00  0.00    +0.000 NA
ATOM     10  C   UNL     1       0.326   9.473  22.593  0.00  0.00    +0.000 A 
ENDBRANCH   2   5
BRANCH   3  11
ATOM     11  N   UNL     1       2.224   6.647  20.125  0.00  0.00    +0.000 NA
ATOM     12  C   UNL     1       1.870   5.411  20.261  0.00  0.00    +0.000 C 
BRANCH  12  13
ATOM     13  C   UNL     1       2.475   4.347  19.435  0.00  0.00    +0.000 A 
ATOM     14  C   UNL     1       2.015   4.109  18.135  0.00  0.00    +0.000 A 
ATOM     15  C   UNL     1       2.559   3.065  17.383  0.00  0.00    +0.000 A 
ATOM     16  C   UNL     1       3.557   2.258  17.929  0.00  0.00    +0.000 A 
ATOM     17  C   UNL     1       4.011   2.509  19.223  0.00  0.00    +0.000 A 
ATOM     18  C   UNL     1       3.488   3.553  19.980  0.00  0.00    +0.000 A 
BRANCH  17  19
ATOM     19  O   UNL     1       4.973   1.731  19.797  0.00  0.00    +0.000 OA
ATOM     20  H   UNL     1       4.639   0.821  19.861  0.00  0.00    +0.000 HD
ENDBRANCH  17  19
ENDBRANCH  12  13
ENDBRANCH   3  11
TORSDOF 4
ENDMDL
MODEL 5
REMARK VINA RESULT:      -6.9      5.339      7.330
REMARK  Name = 
REMARK  4 active torsions:
REMARK  status: ('A' for Active; 'I' for Inactive)
REMARK    1  A    between atoms: C_2  and  C_13
REMARK    2  A    between atoms: N_3  and  N_4
REMARK    3  A    between atoms: C_5  and  C_6
REMARK    4  A    between atoms: C_10  and  O_11
REMARK                            x       y       z     vdW  Elec       q    Type
REMARK                         _______ _______ _______ _____ _____    ______ ____
ROOT
ATOM      1  O   UNL     1       1.343   8.996  19.149  0.00  0.00    +0.000 OA
ATOM      2  C   UNL     1       1.206   8.715  20.336  0.00  0.00    +0.000 C 
ATOM      3  N   UNL     1       1.650   7.547  20.945  0.00  0.00    +0.000 N 
ATOM      4  H   UNL     1       1.381   7.307  21.892  0.00  0.00    +0.000 HD
ENDROOT
BRANCH   2   5
ATOM      5  C   UNL     1       0.477   9.667  21.206  0.00  0.00    +0.000 A 
ATOM      6  C   UNL     1      -0.139   9.209  22.372  0.00  0.00    +0.000 A 
ATOM      7  C   UNL     1      -0.832  10.107  23.182  0.00  0.00    +0.000 A 
ATOM      8  C   UNL     1      -0.886  11.437  22.789  0.00  0.00    +0.000 A 
ATOM      9  N   UNL     1      -0.311  11.910  21.661  0.00  0.00    +0.000 NA
ATOM     10  C   UNL     1       0.345  11.011  20.887  0.00  0.00    +0.000 A 
ENDBRANCH   2   5
BRANCH   3  11
ATOM     11  N   UNL     1       2.290   6.612  20.187  0.00  0.00    +0.000 NA
ATOM     12  C   UNL     1       1.839   5.402  20.261  0.00  0.00    +0.000 C 
BRANCH  12  13
ATOM     13  C   UNL     1       2.426   4.318  19.448  0.00  0.00    +0.000 A 
ATOM     14  C   UNL     1       1.916   4.026  18.178  0.00  0.00    +0.000 A 
ATOM     15  C   UNL     1       2.444   2.964  17.442  0.00  0.00    +0.000 A 
ATOM     16  C   UNL     1       3.476   2.191  17.973  0.00  0.00    +0.000 A 
ATOM     17  C   UNL     1       3.980   2.495  19.236  0.00  0.00    +0.000 A 
ATOM     18  C   UNL     1       3.473   3.558  19.977  0.00  0.00    +0.000 A 
BRANCH  17  19
ATOM     19  O   UNL     1       4.978   1.752  19.796  0.00  0.00    +0.000 OA
ATOM     20  H   UNL     1       5.715   1.697  19.165  0.00  0.00    +0.000 HD
ENDBRANCH  17  19
ENDBRANCH  12  13
ENDBRANCH   3  11
TORSDOF 4
ENDMDL
MODEL 6
REMARK VINA RESULT:      -6.8      1.193      1.193
REMARK  Name = 
REMARK  4 active torsions:
REMARK  status: ('A' for Active; 'I' for Inactive)
REMARK    1  A    between atoms: C_2  and  C_13
REMARK    2  A    between atoms: N_3  and  N_4
REMARK    3  A    between atoms: C_5  and  C_6
REMARK    4  A    between atoms: C_10  and  O_11
REMARK                            x       y       z     vdW  Elec       q    Type
REMARK                         _______ _______ _______ _____ _____    ______ ____
ROOT
ATOM      1  O   UNL     1       5.451   3.435  18.828  0.00  0.00    +0.000 OA
ATOM      2  C   UNL     1       4.288   3.761  18.610  0.00  0.00    +0.000 C 
ATOM      3  N   UNL     1       3.830   4.393  17.459  0.00  0.00    +0.000 N 
ATOM      4  H   UNL     1       2.891   4.768  17.397  0.00  0.00    +0.000 HD
ENDROOT
BRANCH   2   5
ATOM      5  C   UNL     1       3.276   3.507  19.660  0.00  0.00    +0.000 A 
ATOM      6  C   UNL     1       1.959   3.929  19.472  0.00  0.00    +0.000 A 
ATOM      7  C   UNL     1       1.012   3.695  20.468  0.00  0.00    +0.000 A 
ATOM      8  C   UNL     1       1.424   3.048  21.624  0.00  0.00    +0.000 A 
ATOM      9  N   UNL     1       2.693   2.637  21.843  0.00  0.00    +0.000 NA
ATOM     10  C   UNL     1       3.594   2.890  20.862  0.00  0.00    +0.000 A 
ENDBRANCH   2   5
BRANCH   3  11
ATOM     11  N   UNL     1       4.722   4.694  16.473  0.00  0.00    +0.000 NA
ATOM     12  C   UNL     1       4.818   3.846  15.502  0.00  0.00    +0.000 C 
BRANCH  12  13
ATOM     13  C   UNL     1       5.717   4.093  14.357  0.00  0.00    +0.000 A 
ATOM     14  C   UNL     1       5.508   3.443  13.136  0.00  0.00    +0.000 A 
ATOM     15  C   UNL     1       6.397   3.644  12.078  0.00  0.00    +0.000 A 
ATOM     16  C   UNL     1       7.495   4.490  12.239  0.00  0.00    +0.000 A 
ATOM     17  C   UNL     1       7.688   5.137  13.459  0.00  0.00    +0.000 A 
ATOM     18  C   UNL     1       6.805   4.956  14.518  0.00  0.00    +0.000 A 
BRANCH  17  19
ATOM     19  O   UNL     1       8.759   5.958  13.660  0.00  0.00    +0.000 OA
ATOM     20  H   UNL     1       9.390   5.506  14.245  0.00  0.00    +0.000 HD
ENDBRANCH  17  19
ENDBRANCH  12  13
ENDBRANCH   3  11
TORSDOF 4
ENDMDL
MODEL 7
REMARK VINA RESULT:      -6.8      6.240      7.423
REMARK  Name = 
REMARK  4 active torsions:
REMARK  status: ('A' for Active; 'I' for Inactive)
REMARK    1  A    between atoms: C_2  and  C_13
REMARK    2  A    between atoms: N_3  and  N_4
REMARK    3  A    between atoms: C_5  and  C_6
REMARK    4  A    between atoms: C_10  and  O_11
REMARK                            x       y       z     vdW  Elec       q    Type
REMARK                         _______ _______ _______ _____ _____    ______ ____
ROOT
ATOM      1  O   UNL     1       7.640   5.708  19.951  0.00  0.00    +0.000 OA
ATOM      2  C   UNL     1       7.207   5.953  18.829  0.00  0.00    +0.000 C 
ATOM      3  N   UNL     1       7.557   7.049  18.050  0.00  0.00    +0.000 N 
ATOM      4  H   UNL     1       7.060   7.275  17.197  0.00  0.00    +0.000 HD
ENDROOT
BRANCH   2   5
ATOM      5  C   UNL     1       6.194   5.040  18.251  0.00  0.00    +0.000 A 
ATOM      6  C   UNL     1       5.196   4.503  19.066  0.00  0.00    +0.000 A 
ATOM      7  C   UNL     1       4.252   3.637  18.518  0.00  0.00    +0.000 A 
ATOM      8  C   UNL     1       4.345   3.336  17.167  0.00  0.00    +0.000 A 
ATOM      9  N   UNL     1       5.305   3.828  16.352  0.00  0.00    +0.000 NA
ATOM     10  C   UNL     1       6.217   4.657  16.916  0.00  0.00    +0.000 A 
ENDBRANCH   2   5
BRANCH   3  11
ATOM     11  N   UNL     1       8.452   7.950  18.545  0.00  0.00    +0.000 NA
ATOM     12  C   UNL     1       8.310   9.176  18.160  0.00  0.00    +0.000 C 
BRANCH  12  13
ATOM     13  C   UNL     1       9.194  10.244  18.671  0.00  0.00    +0.000 A 
ATOM     14  C   UNL     1      10.098  10.886  17.818  0.00  0.00    +0.000 A 
ATOM     15  C   UNL     1      10.965  11.857  18.325  0.00  0.00    +0.000 A 
ATOM     16  C   UNL     1      10.933  12.182  19.681  0.00  0.00    +0.000 A 
ATOM     17  C   UNL     1      10.023  11.540  20.519  0.00  0.00    +0.000 A 
ATOM     18  C   UNL     1       9.144  10.580  20.027  0.00  0.00    +0.000 A 
BRANCH  17  19
ATOM     19  O   UNL     1       9.973  11.819  21.853  0.00  0.00    +0.000 OA
ATOM     20  H   UNL     1      10.021  10.983  22.347  0.00  0.00    +0.000 HD
ENDBRANCH  17  19
ENDBRANCH  12  13
ENDBRANCH   3  11
TORSDOF 4
ENDMDL
MODEL 8
REMARK VINA RESULT:      -6.8      6.300      7.604
REMARK  Name = 
REMARK  4 active torsions:
REMARK  status: ('A' for Active; 'I' for Inactive)
REMARK    1  A    between atoms: C_2  and  C_13
REMARK    2  A    between atoms: N_3  and  N_4
REMARK    3  A    between atoms: C_5  and  C_6
REMARK    4  A    between atoms: C_10  and  O_11
REMARK                            x       y       z     vdW  Elec       q    Type
REMARK                         _______ _______ _______ _____ _____    ______ ____
ROOT
ATOM      1  O   UNL     1       8.121   5.980  19.110  0.00  0.00    +0.000 OA
ATOM      2  C   UNL     1       7.366   6.516  18.305  0.00  0.00    +0.000 C 
ATOM      3  N   UNL     1       7.533   7.786  17.764  0.00  0.00    +0.000 N 
ATOM      4  H   UNL     1       6.804   8.231  17.219  0.00  0.00    +0.000 HD
ENDROOT
BRANCH   2   5
ATOM      5  C   UNL     1       6.146   5.787  17.888  0.00  0.00    +0.000 A 
ATOM      6  C   UNL     1       6.004   5.369  16.564  0.00  0.00    +0.000 A 
ATOM      7  C   UNL     1       4.850   4.692  16.176  0.00  0.00    +0.000 A 
ATOM      8  C   UNL     1       3.873   4.460  17.133  0.00  0.00    +0.000 A 
ATOM      9  N   UNL     1       3.973   4.861  18.420  0.00  0.00    +0.000 NA
ATOM     10  C   UNL     1       5.101   5.529  18.765  0.00  0.00    +0.000 A 
ENDBRANCH   2   5
BRANCH   3  11
ATOM     11  N   UNL     1       8.614   8.526  18.142  0.00  0.00    +0.000 NA
ATOM     12  C   UNL     1       8.418   9.793  18.305  0.00  0.00    +0.000 C 
BRANCH  12  13
ATOM     13  C   UNL     1       9.506  10.682  18.760  0.00  0.00    +0.000 A 
ATOM     14  C   UNL     1       9.565  11.110  20.090  0.00  0.00    +0.000 A 
ATOM     15  C   UNL     1      10.568  11.993  20.495  0.00  0.00    +0.000 A 
ATOM     16  C   UNL     1      11.508  12.452  19.572  0.00  0.00    +0.000 A 
ATOM     17  C   UNL     1      11.442  12.014  18.251  0.00  0.00    +0.000 A 
ATOM     18  C   UNL     1      10.456  11.124  17.835  0.00  0.00    +0.000 A 
BRANCH  17  19
ATOM     19  O   UNL     1      12.333  12.453  17.316  0.00  0.00    +0.000 OA
ATOM     20  H   UNL     1      13.201  12.058  17.505  0.00  0.00    +0.000 HD
ENDBRANCH  17  19
ENDBRANCH  12  13
ENDBRANCH   3  11
TORSDOF 4
ENDMDL
MODEL 9
REMARK VINA RESULT:      -6.8      2.123      7.960
REMARK  Name = 
REMARK  4 active torsions:
REMARK  status: ('A' for Active; 'I' for Inactive)
REMARK    1  A    between atoms: C_2  and  C_13
REMARK    2  A    between atoms: N_3  and  N_4
REMARK    3  A    between atoms: C_5  and  C_6
REMARK    4  A    between atoms: C_10  and  O_11
REMARK                            x       y       z     vdW  Elec       q    Type
REMARK                         _______ _______ _______ _____ _____    ______ ____
ROOT
ATOM      1  O   UNL     1       6.928   4.512  16.757  0.00  0.00    +0.000 OA
ATOM      2  C   UNL     1       6.142   4.240  15.854  0.00  0.00    +0.000 C 
ATOM      3  N   UNL     1       4.854   3.747  16.027  0.00  0.00    +0.000 N 
ATOM      4  H   UNL     1       4.307   3.405  15.246  0.00  0.00    +0.000 HD
ENDROOT
BRANCH   2   5
ATOM      5  C   UNL     1       6.593   4.406  14.453  0.00  0.00    +0.000 A 
ATOM      6  C   UNL     1       6.054   3.599  13.450  0.00  0.00    +0.000 A 
ATOM      7  C   UNL     1       6.489   3.753  12.135  0.00  0.00    +0.000 A 
ATOM      8  C   UNL     1       7.456   4.713  11.873  0.00  0.00    +0.000 A 
ATOM      9  N   UNL     1       8.006   5.503  12.822  0.00  0.00    +0.000 NA
ATOM     10  C   UNL     1       7.573   5.321  14.093  0.00  0.00    +0.000 A 
ENDBRANCH   2   5
BRANCH   3  11
ATOM     11  N   UNL     1       4.396   3.530  17.292  0.00  0.00    +0.000 NA
ATOM     12  C   UNL     1       3.156   3.822  17.516  0.00  0.00    +0.000 C 
BRANCH  12  13
ATOM     13  C   UNL     1       2.541   3.583  18.837  0.00  0.00    +0.000 A 
ATOM     14  C   UNL     1       1.280   4.108  19.139  0.00  0.00    +0.000 A 
ATOM     15  C   UNL     1       0.733   3.921  20.410  0.00  0.00    +0.000 A 
ATOM     16  C   UNL     1       1.445   3.215  21.380  0.00  0.00    +0.000 A 
ATOM     17  C   UNL     1       2.698   2.692  21.065  0.00  0.00    +0.000 A 
ATOM     18  C   UNL     1       3.251   2.860  19.799  0.00  0.00    +0.000 A 
BRANCH  17  19
ATOM     19  O   UNL     1       3.432   2.011  21.991  0.00  0.00    +0.000 OA
ATOM     20  H   UNL     1       4.008   2.641  22.455  0.00  0.00    +0.000 HD
ENDBRANCH  17  19
ENDBRANCH  12  13
ENDBRANCH   3  11
TORSDOF 4
ENDMDL
