MODEL 1
REMARK VINA RESULT:      -7.4      0.000      0.000
REMARK  Name = 
REMARK  6 active torsions:
REMARK  status: ('A' for Active; 'I' for Inactive)
REMARK    1  A    between atoms: C_1  and  N_2
REMARK    2  A    between atoms: C_6  and  C_7
REMARK    3  A    between atoms: C_7  and  N_8
REMARK    4  A    between atoms: N_8  and  S_9
REMARK    5  A    between atoms: S_9  and  C_12
REMARK    6  A    between atoms: C_14  and  C_15
REMARK                            x       y       z     vdW  Elec       q    Type
REMARK                         _______ _______ _______ _____ _____    ______ ____
ROOT
ATOM      1  S   UNL     1       6.844   5.112  16.243  0.00  0.00    +0.000 S 
ATOM      2  O   UNL     1       6.726   6.554  16.182  0.00  0.00    +0.000 OA
ATOM      3  O   UNL     1       8.012   4.476  16.806  0.00  0.00    +0.000 OA
ENDROOT
BRANCH   1   4
ATOM      4  C   UNL     1       6.751   4.520  14.572  0.00  0.00    +0.000 A 
ATOM      5  C   UNL     1       5.911   3.605  13.968  0.00  0.00    +0.000 A 
ATOM      6  C   UNL     1       6.120   3.484  12.547  0.00  0.00    +0.000 A 
ATOM      7  C   UNL     1       7.134   4.335  12.148  0.00  0.00    +0.000 A 
ATOM      8  S   UNL     1       7.822   5.221  13.444  0.00  0.00    +0.000 S 
BRANCH   6   9
ATOM      9  C   UNL     1       5.343   2.585  11.698  0.00  0.00    +0.000 C 
ATOM     10  N   UNL     1       5.895   1.377  11.390  0.00  0.00    +0.000 N 
ATOM     11  O   UNL     1       4.235   2.877  11.261  0.00  0.00    +0.000 OA
ATOM     12  H   UNL     1       6.809   1.070  11.689  0.00  0.00    +0.000 HD
ATOM     13  H   UNL     1       5.352   0.772  10.791  0.00  0.00    +0.000 HD
ENDBRANCH   6   9
ENDBRANCH   1   4
BRANCH   1  14
ATOM     14  N   UNL     1       5.512   4.512  17.111  0.00  0.00    +0.000 NA
ATOM     15  H   UNL     1       5.137   3.720  16.585  0.00  0.00    +0.000 HD
BRANCH  14  16
ATOM     16  C   UNL     1       4.478   5.527  17.429  0.00  0.00    +0.000 C 
BRANCH  16  22
ATOM     17  C   UNL     1       3.684   1.406  18.499  0.00  0.00    +0.000 C 
ATOM     18  N   UNL     1       3.389   2.798  18.151  0.00  0.00    +0.000 NA
ATOM     19  C   UNL     1       1.935   3.000  18.054  0.00  0.00    +0.000 C 
ATOM     20  C   UNL     1       1.574   4.445  17.706  0.00  0.00    +0.000 C 
ATOM     21  C   UNL     1       2.239   5.434  18.660  0.00  0.00    +0.000 C 
ATOM     22  C   UNL     1       3.755   5.192  18.745  0.00  0.00    +0.000 C 
ATOM     23  C   UNL     1       3.990   3.716  19.133  0.00  0.00    +0.000 C 
ENDBRANCH  16  22
ENDBRANCH  14  16
ENDBRANCH   1  14
TORSDOF 5
ENDMDL
MODEL 2
REMARK VINA RESULT:      -7.3      2.767      3.617
REMARK  Name = 
REMARK  6 active torsions:
REMARK  status: ('A' for Active; 'I' for Inactive)
REMARK    1  A    between atoms: C_1  and  N_2
REMARK    2  A    between atoms: C_6  and  C_7
REMARK    3  A    between atoms: C_7  and  N_8
REMARK    4  A    between atoms: N_8  and  S_9
REMARK    5  A    between atoms: S_9  and  C_12
REMARK    6  A    between atoms: C_14  and  C_15
REMARK                            x       y       z     vdW  Elec       q    Type
REMARK                         _______ _______ _______ _____ _____    ______ ____
ROOT
ATOM      1  S   UNL     1       3.437   6.141  18.176  0.00  0.00    +0.000 S 
ATOM      2  O   UNL     1       2.253   5.491  17.654  0.00  0.00    +0.000 OA
ATOM      3  O   UNL     1       3.595   7.575  18.119  0.00  0.00    +0.000 OA
ENDROOT
BRANCH   1   4
ATOM      4  C   UNL     1       4.820   5.485  17.277  0.00  0.00    +0.000 A 
ATOM      5  C   UNL     1       5.072   5.387  15.922  0.00  0.00    +0.000 A 
ATOM      6  C   UNL     1       6.380   4.865  15.617  0.00  0.00    +0.000 A 
ATOM      7  C   UNL     1       7.060   4.588  16.789  0.00  0.00    +0.000 A 
ATOM      8  S   UNL     1       6.141   4.920  18.197  0.00  0.00    +0.000 S 
BRANCH   6   9
ATOM      9  C   UNL     1       6.870   4.681  14.253  0.00  0.00    +0.000 C 
ATOM     10  N   UNL     1       7.847   5.525  13.817  0.00  0.00    +0.000 N 
ATOM     11  O   UNL     1       6.437   3.812  13.505  0.00  0.00    +0.000 OA
ATOM     12  H   UNL     1       8.241   6.279  14.360  0.00  0.00    +0.000 HD
ATOM     13  H   UNL     1       8.167   5.393  12.868  0.00  0.00    +0.000 HD
ENDBRANCH   6   9
ENDBRANCH   1   4
BRANCH   1  14
ATOM     14  N   UNL     1       3.595   5.710  19.812  0.00  0.00    +0.000 NA
ATOM     15  H   UNL     1       4.354   5.030  19.876  0.00  0.00    +0.000 HD
BRANCH  14  16
ATOM     16  C   UNL     1       2.342   5.230  20.444  0.00  0.00    +0.000 C 
BRANCH  16  22
ATOM     17  C   UNL     1       3.751   1.955  17.987  0.00  0.00    +0.000 C 
ATOM     18  N   UNL     1       2.834   2.711  18.843  0.00  0.00    +0.000 NA
ATOM     19  C   UNL     1       1.557   1.992  18.979  0.00  0.00    +0.000 C 
ATOM     20  C   UNL     1       0.568   2.737  19.878  0.00  0.00    +0.000 C 
ATOM     21  C   UNL     1       1.190   3.086  21.227  0.00  0.00    +0.000 C 
ATOM     22  C   UNL     1       2.525   3.828  21.050  0.00  0.00    +0.000 C 
ATOM     23  C   UNL     1       3.445   2.967  20.157  0.00  0.00    +0.000 C 
ENDBRANCH  16  22
ENDBRANCH  14  16
ENDBRANCH   1  14
TORSDOF 5
ENDMDL
MODEL 3
REMARK VINA RESULT:      -7.1      4.072      7.051
REMARK  Name = 
REMARK  6 active torsions:
REMARK  status: ('A' for Active; 'I' for Inactive)
REMARK    1  A    between atoms: C_1  and  N_2
REMARK    2  A    between atoms: C_6  and  C_7
REMARK    3  A    between atoms: C_7  and  N_8
REMARK    4  A    between atoms: N_8  and  S_9
REMARK    5  A    between atoms: S_9  and  C_12
REMARK    6  A    between atoms: C_14  and  C_15
REMARK                            x       y       z     vdW  Elec       q    Type
REMARK                         _______ _______ _______ _____ _____    ______ ____
ROOT
ATOM      1  S   UNL     1       4.219   2.625  19.267  0.00  0.00    +0.000 S 
ATOM      2  O   UNL     1       3.393   1.742  18.471  0.00  0.00    +0.000 OA
ATOM      3  O   UNL     1       4.904   2.154  20.449  0.00  0.00    +0.000 OA
ENDROOT
BRANCH   1   4
ATOM      4  C   UNL     1       3.168   3.939  19.833  0.00  0.00    +0.000 A 
ATOM      5  C   UNL     1       3.237   5.308  19.664  0.00  0.00    +0.000 A 
ATOM      6  C   UNL     1       2.109   6.013  20.217  0.00  0.00    +0.000 A 
ATOM      7  C   UNL     1       1.228   5.114  20.790  0.00  0.00    +0.000 A 
ATOM      8  S   UNL     1       1.760   3.488  20.686  0.00  0.00    +0.000 S 
BRANCH   6   9
ATOM      9  C   UNL     1       1.961   7.465  20.151  0.00  0.00    +0.000 C 
ATOM     10  N   UNL     1       1.649   8.119  21.305  0.00  0.00    +0.000 N 
ATOM     11  O   UNL     1       2.105   8.099  19.111  0.00  0.00    +0.000 OA
ATOM     12  H   UNL     1       1.492   7.670  22.195  0.00  0.00    +0.000 HD
ATOM     13  H   UNL     1       1.538   9.121  21.240  0.00  0.00    +0.000 HD
ENDBRANCH   6   9
ENDBRANCH   1   4
BRANCH   1  14
ATOM     14  N   UNL     1       5.416   3.281  18.255  0.00  0.00    +0.000 NA
ATOM     15  H   UNL     1       5.822   4.082  18.741  0.00  0.00    +0.000 HD
BRANCH  14  16
ATOM     16  C   UNL     1       4.947   3.618  16.889  0.00  0.00    +0.000 C 
BRANCH  16  22
ATOM     17  C   UNL     1       7.820   6.223  18.817  0.00  0.00    +0.000 C 
ATOM     18  N   UNL     1       6.745   5.831  17.904  0.00  0.00    +0.000 NA
ATOM     19  C   UNL     1       6.259   7.003  17.158  0.00  0.00    +0.000 C 
ATOM     20  C   UNL     1       5.141   6.642  16.178  0.00  0.00    +0.000 C 
ATOM     21  C   UNL     1       5.552   5.494  15.259  0.00  0.00    +0.000 C 
ATOM     22  C   UNL     1       6.062   4.289  16.067  0.00  0.00    +0.000 C 
ATOM     23  C   UNL     1       7.202   4.771  16.991  0.00  0.00    +0.000 C 
ENDBRANCH  16  22
ENDBRANCH  14  16
ENDBRANCH   1  14
TORSDOF 5
ENDMDL
MODEL 4
REMARK VINA RESULT:      -7.1      1.010      1.034
REMARK  Name = 
REMARK  6 active torsions:
REMARK  status: ('A' for Active; 'I' for Inactive)
REMARK    1  A    between atoms: C_1  and  N_2
REMARK    2  A    between atoms: C_6  and  C_7
REMARK    3  A    between atoms: C_7  and  N_8
REMARK    4  A    between atoms: N_8  and  S_9
REMARK    5  A    between atoms: S_9  and  C_12
REMARK    6  A    between atoms: C_14  and  C_15
REMARK                            x       y       z     vdW  Elec       q    Type
REMARK                         _______ _______ _______ _____ _____    ______ ____
ROOT
ATOM      1  S   UNL     1       6.737   4.977  16.213  0.00  0.00    +0.000 S 
ATOM      2  O   UNL     1       6.456   6.398  16.200  0.00  0.00    +0.000 OA
ATOM      3  O   UNL     1       7.986   4.462  16.724  0.00  0.00    +0.000 OA
ENDROOT
BRANCH   1   4
ATOM      4  C   UNL     1       6.660   4.424  14.528  0.00  0.00    +0.000 A 
ATOM      5  C   UNL     1       5.798   3.558  13.884  0.00  0.00    +0.000 A 
ATOM      6  C   UNL     1       6.035   3.458  12.467  0.00  0.00    +0.000 A 
ATOM      7  C   UNL     1       7.094   4.273  12.110  0.00  0.00    +0.000 A 
ATOM      8  S   UNL     1       7.786   5.103  13.441  0.00  0.00    +0.000 S 
BRANCH   6   9
ATOM      9  C   UNL     1       5.243   2.610  11.580  0.00  0.00    +0.000 C 
ATOM     10  N   UNL     1       4.047   3.099  11.145  0.00  0.00    +0.000 N 
ATOM     11  O   UNL     1       5.611   1.496  11.224  0.00  0.00    +0.000 OA
ATOM     12  H   UNL     1       3.662   3.994  11.408  0.00  0.00    +0.000 HD
ATOM     13  H   UNL     1       3.505   2.496  10.543  0.00  0.00    +0.000 HD
ENDBRANCH   6   9
ENDBRANCH   1   4
BRANCH   1  14
ATOM     14  N   UNL     1       5.508   4.207  17.098  0.00  0.00    +0.000 NA
ATOM     15  H   UNL     1       5.570   3.207  16.900  0.00  0.00    +0.000 HD
BRANCH  14  16
ATOM     16  C   UNL     1       4.148   4.752  16.864  0.00  0.00    +0.000 C 
BRANCH  16  22
ATOM     17  C   UNL     1       4.232   2.247  20.396  0.00  0.00    +0.000 C 
ATOM     18  N   UNL     1       3.653   3.012  19.289  0.00  0.00    +0.000 NA
ATOM     19  C   UNL     1       2.188   2.867  19.284  0.00  0.00    +0.000 C 
ATOM     20  C   UNL     1       1.534   3.661  18.151  0.00  0.00    +0.000 C 
ATOM     21  C   UNL     1       1.977   5.122  18.163  0.00  0.00    +0.000 C 
ATOM     22  C   UNL     1       3.509   5.239  18.177  0.00  0.00    +0.000 C 
ATOM     23  C   UNL     1       4.048   4.427  19.375  0.00  0.00    +0.000 C 
ENDBRANCH  16  22
ENDBRANCH  14  16
ENDBRANCH   1  14
TORSDOF 5
ENDMDL
MODEL 5
REMARK VINA RESULT:      -7.0      4.032      5.199
REMARK  Name = 
REMARK  6 active torsions:
REMARK  status: ('A' for Active; 'I' for Inactive)
REMARK    1  A    between atoms: C_1  and  N_2
REMARK    2  A    between atoms: C_6  and  C_7
REMARK    3  A    between atoms: C_7  and  N_8
REMARK    4  A    between atoms: N_8  and  S_9
REMARK    5  A    between atoms: S_9  and  C_12
REMARK    6  A    between atoms: C_14  and  C_15
REMARK                            x       y       z     vdW  Elec       q    Type
REMARK                         _______ _______ _______ _____ _____    ______ ____
ROOT
ATOM      1  S   UNL     1       2.573   6.322  18.557  0.00  0.00    +0.000 S 
ATOM      2  O   UNL     1       2.047   7.400  17.746  0.00  0.00    +0.000 OA
ATOM      3  O   UNL     1       2.556   6.389  20.000  0.00  0.00    +0.000 OA
ENDROOT
BRANCH   1   4
ATOM      4  C   UNL     1       4.285   6.142  18.121  0.00  0.00    +0.000 A 
ATOM      5  C   UNL     1       5.342   5.543  18.777  0.00  0.00    +0.000 A 
ATOM      6  C   UNL     1       6.564   5.539  18.015  0.00  0.00    +0.000 A 
ATOM      7  C   UNL     1       6.358   6.154  16.794  0.00  0.00    +0.000 A 
ATOM      8  S   UNL     1       4.758   6.735  16.592  0.00  0.00    +0.000 S 
BRANCH   6   9
ATOM      9  C   UNL     1       7.810   4.953  18.504  0.00  0.00    +0.000 C 
ATOM     10  N   UNL     1       8.258   5.355  19.726  0.00  0.00    +0.000 N 
ATOM     11  O   UNL     1       8.452   4.130  17.860  0.00  0.00    +0.000 OA
ATOM     12  H   UNL     1       7.802   6.044  20.308  0.00  0.00    +0.000 HD
ATOM     13  H   UNL     1       9.127   4.951  20.045  0.00  0.00    +0.000 HD
ENDBRANCH   6   9
ENDBRANCH   1   4
BRANCH   1  14
ATOM     14  N   UNL     1       1.750   4.897  18.137  0.00  0.00    +0.000 NA
ATOM     15  H   UNL     1       1.313   4.535  18.987  0.00  0.00    +0.000 HD
BRANCH  14  16
ATOM     16  C   UNL     1       2.587   3.884  17.448  0.00  0.00    +0.000 C 
BRANCH  16  22
ATOM     17  C   UNL     1       1.463   3.199  21.574  0.00  0.00    +0.000 C 
ATOM     18  N   UNL     1       2.260   3.093  20.350  0.00  0.00    +0.000 NA
ATOM     19  C   UNL     1       3.472   2.296  20.602  0.00  0.00    +0.000 C 
ATOM     20  C   UNL     1       4.334   2.144  19.347  0.00  0.00    +0.000 C 
ATOM     21  C   UNL     1       3.520   1.615  18.169  0.00  0.00    +0.000 C 
ATOM     22  C   UNL     1       2.258   2.463  17.938  0.00  0.00    +0.000 C 
ATOM     23  C   UNL     1       1.459   2.516  19.259  0.00  0.00    +0.000 C 
ENDBRANCH  16  22
ENDBRANCH  14  16
ENDBRANCH   1  14
TORSDOF 5
ENDMDL
MODEL 6
REMARK VINA RESULT:      -7.0      2.557      3.378
REMARK  Name = 
REMARK  6 active torsions:
REMARK  status: ('A' for Active; 'I' for Inactive)
REMARK    1  A    between atoms: C_1  and  N_2
REMARK    2  A    between atoms: C_6  and  C_7
REMARK    3  A    between atoms: C_7  and  N_8
REMARK    4  A    between atoms: N_8  and  S_9
REMARK    5  A    between atoms: S_9  and  C_12
REMARK    6  A    between atoms: C_14  and  C_15
REMARK                            x       y       z     vdW  Elec       q    Type
REMARK                         _______ _______ _______ _____ _____    ______ ____
ROOT
ATOM      1  S   UNL     1       5.487   4.837  19.282  0.00  0.00    +0.000 S 
ATOM      2  O   UNL     1       4.360   5.603  19.772  0.00  0.00    +0.000 OA
ATOM      3  O   UNL     1       6.810   5.005  19.837  0.00  0.00    +0.000 OA
ENDROOT
BRANCH   1   4
ATOM      4  C   UNL     1       5.655   5.221  17.556  0.00  0.00    +0.000 A 
ATOM      5  C   UNL     1       6.365   4.606  16.544  0.00  0.00    +0.000 A 
ATOM      6  C   UNL     1       6.147   5.197  15.248  0.00  0.00    +0.000 A 
ATOM      7  C   UNL     1       5.263   6.255  15.357  0.00  0.00    +0.000 A 
ATOM      8  S   UNL     1       4.743   6.536  16.966  0.00  0.00    +0.000 S 
BRANCH   6   9
ATOM      9  C   UNL     1       6.785   4.709  14.028  0.00  0.00    +0.000 C 
ATOM     10  N   UNL     1       6.364   3.510  13.534  0.00  0.00    +0.000 N 
ATOM     11  O   UNL     1       7.670   5.329  13.449  0.00  0.00    +0.000 OA
ATOM     12  H   UNL     1       5.659   2.928  13.962  0.00  0.00    +0.000 HD
ATOM     13  H   UNL     1       6.823   3.180  12.697  0.00  0.00    +0.000 HD
ENDBRANCH   6   9
ENDBRANCH   1   4
BRANCH   1  14
ATOM     14  N   UNL     1       5.111   3.187  19.441  0.00  0.00    +0.000 NA
ATOM     15  H   UNL     1       4.739   2.872  18.544  0.00  0.00    +0.000 HD
BRANCH  14  16
ATOM     16  C   UNL     1       4.213   2.869  20.577  0.00  0.00    +0.000 C 
BRANCH  16  22
ATOM     17  C   UNL     1       2.484   3.485  16.654  0.00  0.00    +0.000 C 
ATOM     18  N   UNL     1       2.547   3.441  18.117  0.00  0.00    +0.000 NA
ATOM     19  C   UNL     1       1.279   3.918  18.694  0.00  0.00    +0.000 C 
ATOM     20  C   UNL     1       1.290   3.878  20.224  0.00  0.00    +0.000 C 
ATOM     21  C   UNL     1       1.688   2.500  20.745  0.00  0.00    +0.000 C 
ATOM     22  C   UNL     1       3.010   2.027  20.117  0.00  0.00    +0.000 C 
ATOM     23  C   UNL     1       2.865   2.081  18.581  0.00  0.00    +0.000 C 
ENDBRANCH  16  22
ENDBRANCH  14  16
ENDBRANCH   1  14
TORSDOF 5
ENDMDL
MODEL 7
REMARK VINA RESULT:      -7.0      2.821      3.983
REMARK  Name = 
REMARK  6 active torsions:
REMARK  status: ('A' for Active; 'I' for Inactive)
REMARK    1  A    between atoms: C_1  and  N_2
REMARK    2  A    between atoms: C_6  and  C_7
REMARK    3  A    between atoms: C_7  and  N_8
REMARK    4  A    between atoms: N_8  and  S_9
REMARK    5  A    between atoms: S_9  and  C_12
REMARK    6  A    between atoms: C_14  and  C_15
REMARK                            x       y       z     vdW  Elec       q    Type
REMARK                         _______ _______ _______ _____ _____    ______ ____
ROOT
ATOM      1  S   UNL     1       3.094   5.946  18.514  0.00  0.00    +0.000 S 
ATOM      2  O   UNL     1       2.030   5.289  17.784  0.00  0.00    +0.000 OA
ATOM      3  O   UNL     1       3.154   7.385  18.624  0.00  0.00    +0.000 OA
ENDROOT
BRANCH   1   4
ATOM      4  C   UNL     1       4.617   5.475  17.733  0.00  0.00    +0.000 A 
ATOM      5  C   UNL     1       4.927   5.196  16.417  0.00  0.00    +0.000 A 
ATOM      6  C   UNL     1       6.328   4.944  16.197  0.00  0.00    +0.000 A 
ATOM      7  C   UNL     1       7.017   5.047  17.391  0.00  0.00    +0.000 A 
ATOM      8  S   UNL     1       6.004   5.406  18.726  0.00  0.00    +0.000 S 
BRANCH   6   9
ATOM      9  C   UNL     1       6.889   4.635  14.884  0.00  0.00    +0.000 C 
ATOM     10  N   UNL     1       6.326   3.610  14.184  0.00  0.00    +0.000 N 
ATOM     11  O   UNL     1       7.832   5.256  14.403  0.00  0.00    +0.000 OA
ATOM     12  H   UNL     1       5.565   3.037  14.517  0.00  0.00    +0.000 HD
ATOM     13  H   UNL     1       6.733   3.401  13.284  0.00  0.00    +0.000 HD
ENDBRANCH   6   9
ENDBRANCH   1   4
BRANCH   1  14
ATOM     14  N   UNL     1       3.087   5.348  20.105  0.00  0.00    +0.000 NA
ATOM     15  H   UNL     1       3.655   4.498  20.113  0.00  0.00    +0.000 HD
BRANCH  14  16
ATOM     16  C   UNL     1       1.735   5.138  20.676  0.00  0.00    +0.000 C 
BRANCH  16  22
ATOM     17  C   UNL     1       4.590   2.060  19.615  0.00  0.00    +0.000 C 
ATOM     18  N   UNL     1       3.293   2.734  19.703  0.00  0.00    +0.000 NA
ATOM     19  C   UNL     1       2.271   1.965  18.974  0.00  0.00    +0.000 C 
ATOM     20  C   UNL     1       0.892   2.623  19.048  0.00  0.00    +0.000 C 
ATOM     21  C   UNL     1       0.487   2.914  20.491  0.00  0.00    +0.000 C 
ATOM     22  C   UNL     1       1.577   3.710  21.226  0.00  0.00    +0.000 C 
ATOM     23  C   UNL     1       2.908   2.934  21.109  0.00  0.00    +0.000 C 
ENDBRANCH  16  22
ENDBRANCH  14  16
ENDBRANCH   1  14
TORSDOF 5
ENDMDL
MODEL 8
REMARK VINA RESULT:      -6.9      1.247      1.710
REMARK  Name = 
REMARK  6 active torsions:
REMARK  status: ('A' for Active; 'I' for Inactive)
REMARK    1  A    between atoms: C_1  and  N_2
REMARK    2  A    between atoms: C_6  and  C_7
REMARK    3  A    between atoms: C_7  and  N_8
REMARK    4  A    between atoms: N_8  and  S_9
REMARK    5  A    between atoms: S_9  and  C_12
REMARK    6  A    between atoms: C_14  and  C_15
REMARK                            x       y       z     vdW  Elec       q    Type
REMARK                         _______ _______ _______ _____ _____    ______ ____
ROOT
ATOM      1  S   UNL     1       6.742   4.926  16.310  0.00  0.00    +0.000 S 
ATOM      2  O   UNL     1       6.294   6.302  16.353  0.00  0.00    +0.000 OA
ATOM      3  O   UNL     1       8.065   4.551  16.753  0.00  0.00    +0.000 OA
ENDROOT
BRANCH   1   4
ATOM      4  C   UNL     1       6.658   4.413  14.612  0.00  0.00    +0.000 A 
ATOM      5  C   UNL     1       5.815   3.536  13.958  0.00  0.00    +0.000 A 
ATOM      6  C   UNL     1       6.035   3.480  12.536  0.00  0.00    +0.000 A 
ATOM      7  C   UNL     1       7.060   4.338  12.185  0.00  0.00    +0.000 A 
ATOM      8  S   UNL     1       7.745   5.156  13.527  0.00  0.00    +0.000 S 
BRANCH   6   9
ATOM      9  C   UNL     1       5.257   2.629  11.639  0.00  0.00    +0.000 C 
ATOM     10  N   UNL     1       4.056   3.105  11.204  0.00  0.00    +0.000 N 
ATOM     11  O   UNL     1       5.642   1.523  11.274  0.00  0.00    +0.000 OA
ATOM     12  H   UNL     1       3.657   3.992  11.475  0.00  0.00    +0.000 HD
ATOM     13  H   UNL     1       3.524   2.500  10.595  0.00  0.00    +0.000 HD
ENDBRANCH   6   9
ENDBRANCH   1   4
BRANCH   1  14
ATOM     14  N   UNL     1       5.653   3.989  17.218  0.00  0.00    +0.000 NA
ATOM     15  H   UNL     1       5.163   3.374  16.567  0.00  0.00    +0.000 HD
BRANCH  14  16
ATOM     16  C   UNL     1       4.727   4.776  18.068  0.00  0.00    +0.000 C 
BRANCH  16  22
ATOM     17  C   UNL     1       1.458   4.241  20.859  0.00  0.00    +0.000 C 
ATOM     18  N   UNL     1       2.362   3.922  19.751  0.00  0.00    +0.000 NA
ATOM     19  C   UNL     1       2.054   2.587  19.214  0.00  0.00    +0.000 C 
ATOM     20  C   UNL     1       2.965   2.212  18.042  0.00  0.00    +0.000 C 
ATOM     21  C   UNL     1       2.963   3.292  16.963  0.00  0.00    +0.000 C 
ATOM     22  C   UNL     1       3.279   4.673  17.558  0.00  0.00    +0.000 C 
ATOM     23  C   UNL     1       2.280   4.951  18.702  0.00  0.00    +0.000 C 
ENDBRANCH  16  22
ENDBRANCH  14  16
ENDBRANCH   1  14
TORSDOF 5
ENDMDL
MODEL 9
REMARK VINA RESULT:      -6.8      2.795      4.119
REMARK  Name = 
REMARK  6 active torsions:
REMARK  status: ('A' for Active; 'I' for Inactive)
REMARK    1  A    between atoms: C_1  and  N_2
REMARK    2  A    between atoms: C_6  and  C_7
REMARK    3  A    between atoms: C_7  and  N_8
REMARK    4  A    between atoms: N_8  and  S_9
REMARK    5  A    between atoms: S_9  and  C_12
REMARK    6  A    between atoms: C_14  and  C_15
REMARK                            x       y       z     vdW  Elec       q    Type
REMARK                         _______ _______ _______ _____ _____    ______ ____
ROOT
ATOM      1  S   UNL     1       3.074   6.033  18.443  0.00  0.00    +0.000 S 
ATOM      2  O   UNL     1       2.587   7.180  17.704  0.00  0.00    +0.000 OA
ATOM      3  O   UNL     1       3.371   6.118  19.854  0.00  0.00    +0.000 OA
ENDROOT
BRANCH   1   4
ATOM      4  C   UNL     1       4.597   5.538  17.676  0.00  0.00    +0.000 A 
ATOM      5  C   UNL     1       4.931   5.319  16.354  0.00  0.00    +0.000 A 
ATOM      6  C   UNL     1       6.325   5.016  16.156  0.00  0.00    +0.000 A 
ATOM      7  C   UNL     1       6.984   5.021  17.372  0.00  0.00    +0.000 A 
ATOM      8  S   UNL     1       5.950   5.352  18.699  0.00  0.00    +0.000 S 
BRANCH   6   9
ATOM      9  C   UNL     1       6.909   4.756  14.843  0.00  0.00    +0.000 C 
ATOM     10  N   UNL     1       6.427   3.693  14.139  0.00  0.00    +0.000 N 
ATOM     11  O   UNL     1       7.802   5.448  14.365  0.00  0.00    +0.000 OA
ATOM     12  H   UNL     1       5.711   3.062  14.470  0.00  0.00    +0.000 HD
ATOM     13  H   UNL     1       6.849   3.518  13.239  0.00  0.00    +0.000 HD
ENDBRANCH   6   9
ENDBRANCH   1   4
BRANCH   1  14
ATOM     14  N   UNL     1       1.942   4.778  18.270  0.00  0.00    +0.000 NA
ATOM     15  H   UNL     1       1.677   4.474  19.209  0.00  0.00    +0.000 HD
BRANCH  14  16
ATOM     16  C   UNL     1       2.396   3.656  17.413  0.00  0.00    +0.000 C 
BRANCH  16  22
ATOM     17  C   UNL     1       1.905   3.398  21.708  0.00  0.00    +0.000 C 
ATOM     18  N   UNL     1       2.505   3.153  20.394  0.00  0.00    +0.000 NA
ATOM     19  C   UNL     1       3.729   2.349  20.537  0.00  0.00    +0.000 C 
ATOM     20  C   UNL     1       4.388   2.054  19.188  0.00  0.00    +0.000 C 
ATOM     21  C   UNL     1       3.396   1.439  18.204  0.00  0.00    +0.000 C 
ATOM     22  C   UNL     1       2.126   2.297  18.084  0.00  0.00    +0.000 C 
ATOM     23  C   UNL     1       1.539   2.498  19.498  0.00  0.00    +0.000 C 
ENDBRANCH  16  22
ENDBRANCH  14  16
ENDBRANCH   1  14
TORSDOF 5
ENDMDL
