MODEL 1
REMARK VINA RESULT:      -7.7      0.000      0.000
REMARK  Name = 
REMARK  3 active torsions:
REMARK  status: ('A' for Active; 'I' for Inactive)
REMARK    1  A    between atoms: C_2  and  C_5
REMARK    2  A    between atoms: N_12  and  C_13
REMARK    3  A    between atoms: C_19  and  C_20
REMARK                            x       y       z     vdW  Elec       q    Type
REMARK                         _______ _______ _______ _____ _____    ______ ____
ROOT
ATOM      1  C   UNL     1       5.343   5.338  17.813  0.00  0.00    +0.000 A 
ATOM      2  N   UNL     1       4.879   4.875  18.955  0.00  0.00    +0.000 NA
ATOM      3  N   UNL     1       3.778   5.582  19.391  0.00  0.00    +0.000 NA
ATOM      4  C   UNL     1       3.404   6.552  18.577  0.00  0.00    +0.000 A 
ATOM      5  N   UNL     1       2.352   7.386  18.799  0.00  0.00    +0.000 N 
ATOM      6  C   UNL     1       1.653   7.396  20.094  0.00  0.00    +0.000 C 
ATOM      7  C   UNL     1       1.696   8.806  20.726  0.00  0.00    +0.000 C 
ATOM      8  N   UNL     1       1.323   9.866  19.769  0.00  0.00    +0.000 N 
ATOM      9  C   UNL     1       1.927   9.791  18.434  0.00  0.00    +0.000 C 
ATOM     10  C   UNL     1       1.849   8.370  17.844  0.00  0.00    +0.000 C 
ATOM     11  S   UNL     1       4.436   6.652  17.187  0.00  0.00    +0.000 S 
ENDROOT
BRANCH   8  12
ATOM     12  C   UNL     1       0.252  10.693  20.031  0.00  0.00    +0.000 A 
ATOM     13  N   UNL     1       0.302  11.511  21.111  0.00  0.00    +0.000 NA
ATOM     14  C   UNL     1      -0.742  12.312  21.381  0.00  0.00    +0.000 A 
ATOM     15  N   UNL     1      -1.875  12.443  20.687  0.00  0.00    +0.000 NA
ATOM     16  C   UNL     1      -1.899  11.646  19.606  0.00  0.00    +0.000 A 
ATOM     17  S   UNL     1      -3.237  11.652  18.547  0.00  0.00    +0.000 S 
ATOM     18  C   UNL     1      -2.552  10.445  17.569  0.00  0.00    +0.000 A 
ATOM     19  C   UNL     1      -1.289  10.102  17.993  0.00  0.00    +0.000 A 
ATOM     20  C   UNL     1      -0.906  10.758  19.216  0.00  0.00    +0.000 A 
BRANCH  18  21
ATOM     21  C   UNL     1      -3.186   9.759  16.360  0.00  0.00    +0.000 C 
ATOM     22  C   UNL     1      -3.790  10.608  15.262  0.00  0.00    +0.000 C 
ATOM     23  C   UNL     1      -2.530   9.855  15.003  0.00  0.00    +0.000 C 
ENDBRANCH  18  21
ENDBRANCH   8  12
BRANCH   1  25
ATOM     24  F   UNL     1       7.357   4.073  17.838  0.00  0.00    +0.000 F 
ATOM     25  C   UNL     1       6.537   4.843  17.075  0.00  0.00    +0.000 C 
ATOM     26  F   UNL     1       7.302   5.865  16.601  0.00  0.00    +0.000 F 
ATOM     27  F   UNL     1       6.199   4.088  15.993  0.00  0.00    +0.000 F 
ENDBRANCH   1  25
TORSDOF 3
ENDMDL
MODEL 2
REMARK VINA RESULT:      -7.5      3.448      4.449
REMARK  Name = 
REMARK  3 active torsions:
REMARK  status: ('A' for Active; 'I' for Inactive)
REMARK    1  A    between atoms: C_2  and  C_5
REMARK    2  A    between atoms: N_12  and  C_13
REMARK    3  A    between atoms: C_19  and  C_20
REMARK                            x       y       z     vdW  Elec       q    Type
REMARK                         _______ _______ _______ _____ _____    ______ ____
ROOT
ATOM      1  C   UNL     1       2.005   3.715  18.992  0.00  0.00    +0.000 A 
ATOM      2  N   UNL     1       2.544   4.147  17.872  0.00  0.00    +0.000 NA
ATOM      3  N   UNL     1       2.667   5.521  17.853  0.00  0.00    +0.000 NA
ATOM      4  C   UNL     1       2.246   6.115  18.954  0.00  0.00    +0.000 A 
ATOM      5  N   UNL     1       2.262   7.459  19.164  0.00  0.00    +0.000 N 
ATOM      6  C   UNL     1       2.576   8.392  18.071  0.00  0.00    +0.000 C 
ATOM      7  C   UNL     1       1.411   9.386  17.851  0.00  0.00    +0.000 C 
ATOM      8  N   UNL     1       0.934   9.986  19.112  0.00  0.00    +0.000 N 
ATOM      9  C   UNL     1       0.735   9.073  20.242  0.00  0.00    +0.000 C 
ATOM     10  C   UNL     1       1.925   8.112  20.426  0.00  0.00    +0.000 C 
ATOM     11  S   UNL     1       1.644   4.967  20.107  0.00  0.00    +0.000 S 
ENDROOT
BRANCH   8  12
ATOM     12  C   UNL     1       0.964  11.354  19.284  0.00  0.00    +0.000 A 
ATOM     13  N   UNL     1       2.001  12.059  18.770  0.00  0.00    +0.000 NA
ATOM     14  C   UNL     1       2.043  13.390  18.942  0.00  0.00    +0.000 A 
ATOM     15  N   UNL     1       1.150  14.165  19.562  0.00  0.00    +0.000 NA
ATOM     16  C   UNL     1       0.116  13.456  20.044  0.00  0.00    +0.000 A 
ATOM     17  S   UNL     1      -1.168  14.229  20.860  0.00  0.00    +0.000 S 
ATOM     18  C   UNL     1      -1.955  12.754  21.156  0.00  0.00    +0.000 A 
ATOM     19  C   UNL     1      -1.295  11.698  20.572  0.00  0.00    +0.000 A 
ATOM     20  C   UNL     1      -0.050  12.081  19.957  0.00  0.00    +0.000 A 
BRANCH  18  21
ATOM     21  C   UNL     1      -3.230  12.529  21.967  0.00  0.00    +0.000 C 
ATOM     22  C   UNL     1      -3.130  12.339  23.465  0.00  0.00    +0.000 C 
ATOM     23  C   UNL     1      -3.724  13.593  22.917  0.00  0.00    +0.000 C 
ENDBRANCH  18  21
ENDBRANCH   8  12
BRANCH   1  25
ATOM     24  F   UNL     1       2.647   1.425  18.932  0.00  0.00    +0.000 F 
ATOM     25  C   UNL     1       1.690   2.301  19.338  0.00  0.00    +0.000 C 
ATOM     26  F   UNL     1       0.524   1.886  18.768  0.00  0.00    +0.000 F 
ATOM     27  F   UNL     1       1.544   2.117  20.679  0.00  0.00    +0.000 F 
ENDBRANCH   1  25
TORSDOF 3
ENDMDL
MODEL 3
REMARK VINA RESULT:      -7.3      5.004      8.454
REMARK  Name = 
REMARK  3 active torsions:
REMARK  status: ('A' for Active; 'I' for Inactive)
REMARK    1  A    between atoms: C_2  and  C_5
REMARK    2  A    between atoms: N_12  and  C_13
REMARK    3  A    between atoms: C_19  and  C_20
REMARK                            x       y       z     vdW  Elec       q    Type
REMARK                         _______ _______ _______ _____ _____    ______ ____
ROOT
ATOM      1  C   UNL     1       1.384  13.438  19.745  0.00  0.00    +0.000 A 
ATOM      2  N   UNL     1       1.603  13.154  18.478  0.00  0.00    +0.000 NA
ATOM      3  N   UNL     1       1.528  11.800  18.229  0.00  0.00    +0.000 NA
ATOM      4  C   UNL     1       1.234  11.073  19.292  0.00  0.00    +0.000 A 
ATOM      5  N   UNL     1       1.112   9.718  19.293  0.00  0.00    +0.000 N 
ATOM      6  C   UNL     1       1.503   8.921  18.119  0.00  0.00    +0.000 C 
ATOM      7  C   UNL     1       2.587   7.886  18.500  0.00  0.00    +0.000 C 
ATOM      8  N   UNL     1       2.246   7.133  19.722  0.00  0.00    +0.000 N 
ATOM      9  C   UNL     1       1.740   7.912  20.857  0.00  0.00    +0.000 C 
ATOM     10  C   UNL     1       0.657   8.920  20.429  0.00  0.00    +0.000 C 
ATOM     11  S   UNL     1       1.039  12.059  20.706  0.00  0.00    +0.000 S 
ENDROOT
BRANCH   8  12
ATOM     12  C   UNL     1       2.135   5.759  19.683  0.00  0.00    +0.000 A 
ATOM     13  N   UNL     1       1.215   5.152  20.471  0.00  0.00    +0.000 NA
ATOM     14  C   UNL     1       1.107   3.813  20.447  0.00  0.00    +0.000 A 
ATOM     15  N   UNL     1       1.798   2.948  19.701  0.00  0.00    +0.000 NA
ATOM     16  C   UNL     1       2.688   3.567  18.907  0.00  0.00    +0.000 A 
ATOM     17  S   UNL     1       3.676   2.672  17.842  0.00  0.00    +0.000 S 
ATOM     18  C   UNL     1       4.468   4.072  17.297  0.00  0.00    +0.000 A 
ATOM     19  C   UNL     1       3.933   5.210  17.854  0.00  0.00    +0.000 A 
ATOM     20  C   UNL     1       2.920   4.933  18.840  0.00  0.00    +0.000 A 
BRANCH  18  21
ATOM     21  C   UNL     1       5.642   4.155  16.323  0.00  0.00    +0.000 C 
ATOM     22  C   UNL     1       5.365   4.247  14.838  0.00  0.00    +0.000 C 
ATOM     23  C   UNL     1       5.909   5.431  15.563  0.00  0.00    +0.000 C 
ENDBRANCH  18  21
ENDBRANCH   8  12
BRANCH   1  25
ATOM     24  F   UNL     1       1.170  14.764  21.708  0.00  0.00    +0.000 F 
ATOM     25  C   UNL     1       1.425  14.787  20.373  0.00  0.00    +0.000 C 
ATOM     26  F   UNL     1       0.509  15.632  19.822  0.00  0.00    +0.000 F 
ATOM     27  F   UNL     1       2.637  15.390  20.223  0.00  0.00    +0.000 F 
ENDBRANCH   1  25
TORSDOF 3
ENDMDL
MODEL 4
REMARK VINA RESULT:      -7.2      3.696      4.802
REMARK  Name = 
REMARK  3 active torsions:
REMARK  status: ('A' for Active; 'I' for Inactive)
REMARK    1  A    between atoms: C_2  and  C_5
REMARK    2  A    between atoms: N_12  and  C_13
REMARK    3  A    between atoms: C_19  and  C_20
REMARK                            x       y       z     vdW  Elec       q    Type
REMARK                         _______ _______ _______ _____ _____    ______ ____
ROOT
ATOM      1  C   UNL     1       1.669   3.825  19.074  0.00  0.00    +0.000 A 
ATOM      2  N   UNL     1       2.180   4.190  17.917  0.00  0.00    +0.000 NA
ATOM      3  N   UNL     1       2.421   5.546  17.862  0.00  0.00    +0.000 NA
ATOM      4  C   UNL     1       2.115   6.194  18.971  0.00  0.00    +0.000 A 
ATOM      5  N   UNL     1       2.259   7.535  19.150  0.00  0.00    +0.000 N 
ATOM      6  C   UNL     1       2.591   8.418  18.021  0.00  0.00    +0.000 C 
ATOM      7  C   UNL     1       1.507   9.507  17.843  0.00  0.00    +0.000 C 
ATOM      8  N   UNL     1       1.155  10.167  19.114  0.00  0.00    +0.000 N 
ATOM      9  C   UNL     1       0.940   9.296  20.274  0.00  0.00    +0.000 C 
ATOM     10  C   UNL     1       2.051   8.237  20.414  0.00  0.00    +0.000 C 
ATOM     11  S   UNL     1       1.481   5.123  20.180  0.00  0.00    +0.000 S 
ENDROOT
BRANCH   8  12
ATOM     12  C   UNL     1       1.313  11.530  19.255  0.00  0.00    +0.000 A 
ATOM     13  N   UNL     1       2.111  12.193  18.383  0.00  0.00    +0.000 NA
ATOM     14  C   UNL     1       2.279  13.519  18.519  0.00  0.00    +0.000 A 
ATOM     15  N   UNL     1       1.724  14.326  19.426  0.00  0.00    +0.000 NA
ATOM     16  C   UNL     1       0.916  13.660  20.267  0.00  0.00    +0.000 A 
ATOM     17  S   UNL     1       0.074  14.481  21.502  0.00  0.00    +0.000 S 
ATOM     18  C   UNL     1      -0.612  13.040  22.082  0.00  0.00    +0.000 A 
ATOM     19  C   UNL     1      -0.273  11.963  21.299  0.00  0.00    +0.000 A 
ATOM     20  C   UNL     1       0.664  12.295  20.257  0.00  0.00    +0.000 A 
BRANCH  18  21
ATOM     21  C   UNL     1      -1.497  12.864  23.316  0.00  0.00    +0.000 C 
ATOM     22  C   UNL     1      -2.855  13.532  23.352  0.00  0.00    +0.000 C 
ATOM     23  C   UNL     1      -2.764  12.048  23.231  0.00  0.00    +0.000 C 
ENDBRANCH  18  21
ENDBRANCH   8  12
BRANCH   1  25
ATOM     24  F   UNL     1       0.847   2.364  20.762  0.00  0.00    +0.000 F 
ATOM     25  C   UNL     1       1.252   2.451  19.467  0.00  0.00    +0.000 C 
ATOM     26  F   UNL     1       2.264   1.551  19.321  0.00  0.00    +0.000 F 
ATOM     27  F   UNL     1       0.220   1.988  18.709  0.00  0.00    +0.000 F 
ENDBRANCH   1  25
TORSDOF 3
ENDMDL
MODEL 5
REMARK VINA RESULT:      -7.2      5.039      8.702
REMARK  Name = 
REMARK  3 active torsions:
REMARK  status: ('A' for Active; 'I' for Inactive)
REMARK    1  A    between atoms: C_2  and  C_5
REMARK    2  A    between atoms: N_12  and  C_13
REMARK    3  A    between atoms: C_19  and  C_20
REMARK                            x       y       z     vdW  Elec       q    Type
REMARK                         _______ _______ _______ _____ _____    ______ ____
ROOT
ATOM      1  C   UNL     1       0.420  13.627  20.188  0.00  0.00    +0.000 A 
ATOM      2  N   UNL     1       0.551  13.423  18.894  0.00  0.00    +0.000 NA
ATOM      3  N   UNL     1       0.643  12.082  18.588  0.00  0.00    +0.000 NA
ATOM      4  C   UNL     1       0.561  11.283  19.636  0.00  0.00    +0.000 A 
ATOM      5  N   UNL     1       0.633   9.925  19.583  0.00  0.00    +0.000 N 
ATOM      6  C   UNL     1       1.015   9.235  18.340  0.00  0.00    +0.000 C 
ATOM      7  C   UNL     1       2.266   8.356  18.568  0.00  0.00    +0.000 C 
ATOM      8  N   UNL     1       2.157   7.520  19.778  0.00  0.00    +0.000 N 
ATOM      9  C   UNL     1       1.661   8.177  20.992  0.00  0.00    +0.000 C 
ATOM     10  C   UNL     1       0.409   9.031  20.715  0.00  0.00    +0.000 C 
ATOM     11  S   UNL     1       0.370  12.180  21.108  0.00  0.00    +0.000 S 
ENDROOT
BRANCH   8  12
ATOM     12  C   UNL     1       2.238   6.146  19.682  0.00  0.00    +0.000 A 
ATOM     13  N   UNL     1       1.532   5.384  20.553  0.00  0.00    +0.000 NA
ATOM     14  C   UNL     1       1.613   4.045  20.474  0.00  0.00    +0.000 A 
ATOM     15  N   UNL     1       2.309   3.317  19.599  0.00  0.00    +0.000 NA
ATOM     16  C   UNL     1       2.983   4.085  18.727  0.00  0.00    +0.000 A 
ATOM     17  S   UNL     1       3.931   3.382  17.495  0.00  0.00    +0.000 S 
ATOM     18  C   UNL     1       4.433   4.900  16.924  0.00  0.00    +0.000 A 
ATOM     19  C   UNL     1       3.824   5.927  17.605  0.00  0.00    +0.000 A 
ATOM     20  C   UNL     1       3.008   5.473  18.701  0.00  0.00    +0.000 A 
BRANCH  18  21
ATOM     21  C   UNL     1       5.437   5.187  15.808  0.00  0.00    +0.000 C 
ATOM     22  C   UNL     1       6.879   4.761  15.985  0.00  0.00    +0.000 C 
ATOM     23  C   UNL     1       6.015   4.052  14.998  0.00  0.00    +0.000 C 
ENDBRANCH  18  21
ENDBRANCH   8  12
BRANCH   1  25
ATOM     24  F   UNL     1       1.544  15.443  21.234  0.00  0.00    +0.000 F 
ATOM     25  C   UNL     1       0.331  14.945  20.875  0.00  0.00    +0.000 C 
ATOM     26  F   UNL     1      -0.409  14.876  22.016  0.00  0.00    +0.000 F 
ATOM     27  F   UNL     1      -0.258  15.894  20.096  0.00  0.00    +0.000 F 
ENDBRANCH   1  25
TORSDOF 3
ENDMDL
MODEL 6
REMARK VINA RESULT:      -7.2      5.078      8.788
REMARK  Name = 
REMARK  3 active torsions:
REMARK  status: ('A' for Active; 'I' for Inactive)
REMARK    1  A    between atoms: C_2  and  C_5
REMARK    2  A    between atoms: N_12  and  C_13
REMARK    3  A    between atoms: C_19  and  C_20
REMARK                            x       y       z     vdW  Elec       q    Type
REMARK                         _______ _______ _______ _____ _____    ______ ____
ROOT
ATOM      1  C   UNL     1      -0.351  13.935  19.800  0.00  0.00    +0.000 A 
ATOM      2  N   UNL     1      -0.287  13.636  18.519  0.00  0.00    +0.000 NA
ATOM      3  N   UNL     1      -0.075  12.289  18.313  0.00  0.00    +0.000 NA
ATOM      4  C   UNL     1      -0.001  11.579  19.423  0.00  0.00    +0.000 A 
ATOM      5  N   UNL     1       0.209  10.235  19.471  0.00  0.00    +0.000 N 
ATOM      6  C   UNL     1       0.577   9.483  18.260  0.00  0.00    +0.000 C 
ATOM      7  C   UNL     1       1.927   8.756  18.460  0.00  0.00    +0.000 C 
ATOM      8  N   UNL     1       1.989   8.019  19.737  0.00  0.00    +0.000 N 
ATOM      9  C   UNL     1       1.509   8.724  20.930  0.00  0.00    +0.000 C 
ATOM     10  C   UNL     1       0.158   9.423  20.683  0.00  0.00    +0.000 C 
ATOM     11  S   UNL     1      -0.186  12.575  20.831  0.00  0.00    +0.000 S 
ENDROOT
BRANCH   8  12
ATOM     12  C   UNL     1       2.207   6.657  19.743  0.00  0.00    +0.000 A 
ATOM     13  N   UNL     1       1.605   5.899  20.692  0.00  0.00    +0.000 NA
ATOM     14  C   UNL     1       1.821   4.573  20.711  0.00  0.00    +0.000 A 
ATOM     15  N   UNL     1       2.565   3.852  19.871  0.00  0.00    +0.000 NA
ATOM     16  C   UNL     1       3.135   4.613  18.922  0.00  0.00    +0.000 A 
ATOM     17  S   UNL     1       4.118   3.913  17.716  0.00  0.00    +0.000 S 
ATOM     18  C   UNL     1       4.447   5.424  17.015  0.00  0.00    +0.000 A 
ATOM     19  C   UNL     1       3.754   6.435  17.636  0.00  0.00    +0.000 A 
ATOM     20  C   UNL     1       3.016   5.989  18.790  0.00  0.00    +0.000 A 
BRANCH  18  21
ATOM     21  C   UNL     1       5.387   5.721  15.847  0.00  0.00    +0.000 C 
ATOM     22  C   UNL     1       6.855   5.370  15.973  0.00  0.00    +0.000 C 
ATOM     23  C   UNL     1       5.985   4.589  15.047  0.00  0.00    +0.000 C 
ENDBRANCH  18  21
ENDBRANCH   8  12
BRANCH   1  25
ATOM     24  F   UNL     1      -1.052  16.190  19.508  0.00  0.00    +0.000 F 
ATOM     25  C   UNL     1      -0.532  15.292  20.386  0.00  0.00    +0.000 C 
ATOM     26  F   UNL     1       0.647  15.819  20.821  0.00  0.00    +0.000 F 
ATOM     27  F   UNL     1      -1.364  15.282  21.464  0.00  0.00    +0.000 F 
ENDBRANCH   1  25
TORSDOF 3
ENDMDL
MODEL 7
REMARK VINA RESULT:      -7.1      5.083      8.895
REMARK  Name = 
REMARK  3 active torsions:
REMARK  status: ('A' for Active; 'I' for Inactive)
REMARK    1  A    between atoms: C_2  and  C_5
REMARK    2  A    between atoms: N_12  and  C_13
REMARK    3  A    between atoms: C_19  and  C_20
REMARK                            x       y       z     vdW  Elec       q    Type
REMARK                         _______ _______ _______ _____ _____    ______ ____
ROOT
ATOM      1  C   UNL     1       0.423  13.659  20.050  0.00  0.00    +0.000 A 
ATOM      2  N   UNL     1       0.592  13.374  18.776  0.00  0.00    +0.000 NA
ATOM      3  N   UNL     1       0.671  12.016  18.555  0.00  0.00    +0.000 NA
ATOM      4  C   UNL     1       0.541  11.284  19.647  0.00  0.00    +0.000 A 
ATOM      5  N   UNL     1       0.590   9.924  19.678  0.00  0.00    +0.000 N 
ATOM      6  C   UNL     1       1.000   9.154  18.493  0.00  0.00    +0.000 C 
ATOM      7  C   UNL     1       2.228   8.271  18.816  0.00  0.00    +0.000 C 
ATOM      8  N   UNL     1       2.065   7.512  20.070  0.00  0.00    +0.000 N 
ATOM      9  C   UNL     1       1.541   8.249  21.224  0.00  0.00    +0.000 C 
ATOM     10  C   UNL     1       0.314   9.104  20.855  0.00  0.00    +0.000 C 
ATOM     11  S   UNL     1       0.318  12.272  21.054  0.00  0.00    +0.000 S 
ENDROOT
BRANCH   8  12
ATOM     12  C   UNL     1       2.124   6.134  20.061  0.00  0.00    +0.000 A 
ATOM     13  N   UNL     1       1.031   5.426  20.437  0.00  0.00    +0.000 NA
ATOM     14  C   UNL     1       1.084   4.084  20.441  0.00  0.00    +0.000 A 
ATOM     15  N   UNL     1       2.106   3.303  20.087  0.00  0.00    +0.000 NA
ATOM     16  C   UNL     1       3.173   4.018  19.692  0.00  0.00    +0.000 A 
ATOM     17  S   UNL     1       4.599   3.240  19.170  0.00  0.00    +0.000 S 
ATOM     18  C   UNL     1       5.394   4.721  18.922  0.00  0.00    +0.000 A 
ATOM     19  C   UNL     1       4.561   5.790  19.153  0.00  0.00    +0.000 A 
ATOM     20  C   UNL     1       3.268   5.402  19.655  0.00  0.00    +0.000 A 
BRANCH  18  21
ATOM     21  C   UNL     1       6.848   4.936  18.507  0.00  0.00    +0.000 C 
ATOM     22  C   UNL     1       7.234   4.769  17.052  0.00  0.00    +0.000 C 
ATOM     23  C   UNL     1       7.229   6.129  17.664  0.00  0.00    +0.000 C 
ENDBRANCH  18  21
ENDBRANCH   8  12
BRANCH   1  25
ATOM     24  F   UNL     1       0.257  16.009  19.725  0.00  0.00    +0.000 F 
ATOM     25  C   UNL     1       0.336  15.018  20.652  0.00  0.00    +0.000 C 
ATOM     26  F   UNL     1       1.420  15.302  21.426  0.00  0.00    +0.000 F 
ATOM     27  F   UNL     1      -0.754  15.157  21.457  0.00  0.00    +0.000 F 
ENDBRANCH   1  25
TORSDOF 3
ENDMDL
MODEL 8
REMARK VINA RESULT:      -7.1      3.297      4.033
REMARK  Name = 
REMARK  3 active torsions:
REMARK  status: ('A' for Active; 'I' for Inactive)
REMARK    1  A    between atoms: C_2  and  C_5
REMARK    2  A    between atoms: N_12  and  C_13
REMARK    3  A    between atoms: C_19  and  C_20
REMARK                            x       y       z     vdW  Elec       q    Type
REMARK                         _______ _______ _______ _____ _____    ______ ____
ROOT
ATOM      1  C   UNL     1       1.920   3.922  19.125  0.00  0.00    +0.000 A 
ATOM      2  N   UNL     1       2.352   4.519  18.034  0.00  0.00    +0.000 NA
ATOM      3  N   UNL     1       2.386   5.891  18.174  0.00  0.00    +0.000 NA
ATOM      4  C   UNL     1       2.005   6.321  19.363  0.00  0.00    +0.000 A 
ATOM      5  N   UNL     1       1.951   7.629  19.733  0.00  0.00    +0.000 N 
ATOM      6  C   UNL     1       2.129   8.703  18.743  0.00  0.00    +0.000 C 
ATOM      7  C   UNL     1       0.891   9.631  18.717  0.00  0.00    +0.000 C 
ATOM      8  N   UNL     1       0.466  10.044  20.068  0.00  0.00    +0.000 N 
ATOM      9  C   UNL     1       0.403   8.994  21.090  0.00  0.00    +0.000 C 
ATOM     10  C   UNL     1       1.661   8.106  21.083  0.00  0.00    +0.000 C 
ATOM     11  S   UNL     1       1.559   5.007  20.404  0.00  0.00    +0.000 S 
ENDROOT
BRANCH   8  12
ATOM     12  C   UNL     1       0.421  11.382  20.403  0.00  0.00    +0.000 A 
ATOM     13  N   UNL     1       1.574  12.017  20.725  0.00  0.00    +0.000 NA
ATOM     14  C   UNL     1       1.538  13.317  21.062  0.00  0.00    +0.000 A 
ATOM     15  N   UNL     1       0.475  14.123  21.107  0.00  0.00    +0.000 NA
ATOM     16  C   UNL     1      -0.656  13.485  20.761  0.00  0.00    +0.000 A 
ATOM     17  S   UNL     1      -2.147  14.313  20.722  0.00  0.00    +0.000 S 
ATOM     18  C   UNL     1      -2.990  12.907  20.279  0.00  0.00    +0.000 A 
ATOM     19  C   UNL     1      -2.141  11.844  20.083  0.00  0.00    +0.000 A 
ATOM     20  C   UNL     1      -0.771  12.148  20.409  0.00  0.00    +0.000 A 
BRANCH  18  21
ATOM     21  C   UNL     1      -4.500  12.746  20.107  0.00  0.00    +0.000 C 
ATOM     22  C   UNL     1      -5.381  12.685  21.337  0.00  0.00    +0.000 C 
ATOM     23  C   UNL     1      -5.429  13.884  20.451  0.00  0.00    +0.000 C 
ENDBRANCH  18  21
ENDBRANCH   8  12
BRANCH   1  25
ATOM     24  F   UNL     1       2.760   1.713  18.861  0.00  0.00    +0.000 F 
ATOM     25  C   UNL     1       1.719   2.459  19.315  0.00  0.00    +0.000 C 
ATOM     26  F   UNL     1       0.611   2.008  18.664  0.00  0.00    +0.000 F 
ATOM     27  F   UNL     1       1.551   2.127  20.625  0.00  0.00    +0.000 F 
ENDBRANCH   1  25
TORSDOF 3
ENDMDL
MODEL 9
REMARK VINA RESULT:      -7.0      5.481      9.064
REMARK  Name = 
REMARK  3 active torsions:
REMARK  status: ('A' for Active; 'I' for Inactive)
REMARK    1  A    between atoms: C_2  and  C_5
REMARK    2  A    between atoms: N_12  and  C_13
REMARK    3  A    between atoms: C_19  and  C_20
REMARK                            x       y       z     vdW  Elec       q    Type
REMARK                         _______ _______ _______ _____ _____    ______ ____
ROOT
ATOM      1  C   UNL     1      -2.135  12.343  22.009  0.00  0.00    +0.000 A 
ATOM      2  N   UNL     1      -1.521  11.745  23.008  0.00  0.00    +0.000 NA
ATOM      3  N   UNL     1      -0.452  10.987  22.579  0.00  0.00    +0.000 NA
ATOM      4  C   UNL     1      -0.249  11.031  21.275  0.00  0.00    +0.000 A 
ATOM      5  N   UNL     1       0.739  10.361  20.621  0.00  0.00    +0.000 N 
ATOM      6  C   UNL     1       1.558   9.355  21.315  0.00  0.00    +0.000 C 
ATOM      7  C   UNL     1       1.449   7.983  20.609  0.00  0.00    +0.000 C 
ATOM      8  N   UNL     1       1.627   8.084  19.148  0.00  0.00    +0.000 N 
ATOM      9  C   UNL     1       0.905   9.164  18.468  0.00  0.00    +0.000 C 
ATOM     10  C   UNL     1       1.053  10.509  19.203  0.00  0.00    +0.000 C 
ATOM     11  S   UNL     1      -1.418  12.038  20.482  0.00  0.00    +0.000 S 
ENDROOT
BRANCH   8  12
ATOM     12  C   UNL     1       2.639   7.386  18.522  0.00  0.00    +0.000 A 
ATOM     13  N   UNL     1       3.459   8.045  17.667  0.00  0.00    +0.000 NA
ATOM     14  C   UNL     1       4.441   7.371  17.045  0.00  0.00    +0.000 A 
ATOM     15  N   UNL     1       4.758   6.081  17.172  0.00  0.00    +0.000 NA
ATOM     16  C   UNL     1       3.953   5.448  18.042  0.00  0.00    +0.000 A 
ATOM     17  S   UNL     1       4.176   3.793  18.391  0.00  0.00    +0.000 S 
ATOM     18  C   UNL     1       2.842   3.768  19.442  0.00  0.00    +0.000 A 
ATOM     19  C   UNL     1       2.288   5.017  19.591  0.00  0.00    +0.000 A 
ATOM     20  C   UNL     1       2.893   6.009  18.740  0.00  0.00    +0.000 A 
BRANCH  18  21
ATOM     21  C   UNL     1       2.254   2.558  20.167  0.00  0.00    +0.000 C 
ATOM     22  C   UNL     1       2.681   2.271  21.591  0.00  0.00    +0.000 C 
ATOM     23  C   UNL     1       1.296   2.754  21.317  0.00  0.00    +0.000 C 
ENDBRANCH  18  21
ENDBRANCH   8  12
BRANCH   1  25
ATOM     24  F   UNL     1      -4.494  12.498  22.276  0.00  0.00    +0.000 F 
ATOM     25  C   UNL     1      -3.346  13.205  22.101  0.00  0.00    +0.000 C 
ATOM     26  F   UNL     1      -3.524  13.952  20.976  0.00  0.00    +0.000 F 
ATOM     27  F   UNL     1      -3.276  14.086  23.136  0.00  0.00    +0.000 F 
ENDBRANCH   1  25
TORSDOF 3
ENDMDL
