MODEL 1
REMARK VINA RESULT:      -7.7      0.000      0.000
REMARK  Name = 
REMARK  6 active torsions:
REMARK  status: ('A' for Active; 'I' for Inactive)
REMARK    1  A    between atoms: C_1  and  C_2
REMARK    2  A    between atoms: C_5  and  C_6
REMARK    3  A    between atoms: C_9  and  C_10
REMARK    4  A    between atoms: C_13  and  O_14
REMARK    5  A    between atoms: C_23  and  C_24
REMARK    6  A    between atoms: C_25  and  O_26
REMARK                            x       y       z     vdW  Elec       q    Type
REMARK                         _______ _______ _______ _____ _____    ______ ____
ROOT
ATOM      1  C   UNL     1      -7.130  12.265  17.776  0.00  0.00    +0.000 C 
ATOM      2  C   UNL     1      -5.869  11.900  18.565  0.00  0.00    +0.000 C 
ATOM      3  C   UNL     1      -4.729  11.558  17.610  0.00  0.00    +0.000 C 
ATOM      4  C   UNL     1      -3.451  11.211  18.370  0.00  0.00    +0.000 C 
ATOM      5  C   UNL     1      -2.272  10.848  17.451  0.00  0.00    +0.000 C 
ATOM      6  C   UNL     1      -2.612   9.884  16.319  0.00  0.00    +0.000 C 
ATOM      7  O   UNL     1      -1.268  10.202  18.244  0.00  0.00    +0.000 OA
ATOM      8  C   UNL     1      -0.920  10.874  19.398  0.00  0.00    +0.000 A 
ATOM      9  C   UNL     1       0.280  10.339  20.033  0.00  0.00    +0.000 A 
ATOM     10  C   UNL     1       0.653  10.842  21.223  0.00  0.00    +0.000 A 
ATOM     11  N   UNL     1       0.005  11.933  21.735  0.00  0.00    +0.000 N 
ATOM     12  C   UNL     1      -0.945  12.634  21.030  0.00  0.00    +0.000 A 
ATOM     13  O   UNL     1      -1.166  13.806  21.300  0.00  0.00    +0.000 OA
ATOM     14  C   UNL     1      -1.628  11.904  19.920  0.00  0.00    +0.000 A 
ATOM     15  C   UNL     1      -2.975  12.349  19.340  0.00  0.00    +0.000 C 
ATOM     16  C   UNL     1      -4.162  12.686  20.315  0.00  0.00    +0.000 C 
ATOM     17  C   UNL     1      -3.902  13.857  21.275  0.00  0.00    +0.000 C 
ATOM     18  C   UNL     1      -5.451  13.023  19.516  0.00  0.00    +0.000 C 
ATOM     19  H   UNL     1       0.397  12.415  22.535  0.00  0.00    +0.000 HD
ENDROOT
BRANCH   9  20
ATOM     20  C   UNL     1       1.131   9.285  19.452  0.00  0.00    +0.000 A 
ATOM     21  C   UNL     1       1.634   9.403  18.150  0.00  0.00    +0.000 A 
ATOM     22  C   UNL     1       2.459   8.407  17.623  0.00  0.00    +0.000 A 
ATOM     23  C   UNL     1       2.778   7.298  18.401  0.00  0.00    +0.000 A 
ATOM     24  C   UNL     1       2.283   7.165  19.693  0.00  0.00    +0.000 A 
ATOM     25  C   UNL     1       1.461   8.159  20.221  0.00  0.00    +0.000 A 
BRANCH  23  26
ATOM     26  O   UNL     1       3.587   6.306  17.929  0.00  0.00    +0.000 OA
ATOM     27  H   UNL     1       3.581   5.574  18.566  0.00  0.00    +0.000 HD
ENDBRANCH  23  26
ENDBRANCH   9  20
BRANCH  18  28
ATOM     28  O   UNL     1      -6.538  13.277  20.408  0.00  0.00    +0.000 OA
ATOM     29  H   UNL     1      -6.333  14.082  20.913  0.00  0.00    +0.000 HD
ENDBRANCH  18  28
TORSDOF 3
ENDMDL
MODEL 2
REMARK VINA RESULT:      -6.7      3.895      6.074
REMARK  Name = 
REMARK  6 active torsions:
REMARK  status: ('A' for Active; 'I' for Inactive)
REMARK    1  A    between atoms: C_1  and  C_2
REMARK    2  A    between atoms: C_5  and  C_6
REMARK    3  A    between atoms: C_9  and  C_10
REMARK    4  A    between atoms: C_13  and  O_14
REMARK    5  A    between atoms: C_23  and  C_24
REMARK    6  A    between atoms: C_25  and  O_26
REMARK                            x       y       z     vdW  Elec       q    Type
REMARK                         _______ _______ _______ _____ _____    ______ ____
ROOT
ATOM      1  C   UNL     1      -3.004  16.717  24.490  0.00  0.00    +0.000 C 
ATOM      2  C   UNL     1      -3.772  15.929  23.424  0.00  0.00    +0.000 C 
ATOM      3  C   UNL     1      -2.866  14.876  22.792  0.00  0.00    +0.000 C 
ATOM      4  C   UNL     1      -3.611  14.059  21.739  0.00  0.00    +0.000 C 
ATOM      5  C   UNL     1      -2.737  12.989  21.062  0.00  0.00    +0.000 C 
ATOM      6  C   UNL     1      -1.357  13.469  20.624  0.00  0.00    +0.000 C 
ATOM      7  O   UNL     1      -3.408  12.547  19.875  0.00  0.00    +0.000 OA
ATOM      8  C   UNL     1      -4.729  12.191  20.055  0.00  0.00    +0.000 A 
ATOM      9  C   UNL     1      -5.296  11.497  18.903  0.00  0.00    +0.000 A 
ATOM     10  C   UNL     1      -6.607  11.198  18.919  0.00  0.00    +0.000 A 
ATOM     11  N   UNL     1      -7.340  11.404  20.055  0.00  0.00    +0.000 N 
ATOM     12  C   UNL     1      -6.774  11.792  21.247  0.00  0.00    +0.000 A 
ATOM     13  O   UNL     1      -7.336  11.539  22.303  0.00  0.00    +0.000 OA
ATOM     14  C   UNL     1      -5.449  12.477  21.165  0.00  0.00    +0.000 A 
ATOM     15  C   UNL     1      -4.896  13.351  22.297  0.00  0.00    +0.000 C 
ATOM     16  C   UNL     1      -5.817  14.451  22.944  0.00  0.00    +0.000 C 
ATOM     17  C   UNL     1      -7.081  13.916  23.633  0.00  0.00    +0.000 C 
ATOM     18  C   UNL     1      -5.029  15.274  23.999  0.00  0.00    +0.000 C 
ATOM     19  H   UNL     1      -8.274  11.017  20.123  0.00  0.00    +0.000 HD
ENDROOT
BRANCH   9  20
ATOM     20  C   UNL     1      -4.525  11.081  17.717  0.00  0.00    +0.000 A 
ATOM     21  C   UNL     1      -3.609  10.025  17.789  0.00  0.00    +0.000 A 
ATOM     22  C   UNL     1      -2.905   9.628  16.650  0.00  0.00    +0.000 A 
ATOM     23  C   UNL     1      -3.120  10.290  15.445  0.00  0.00    +0.000 A 
ATOM     24  C   UNL     1      -4.023  11.342  15.359  0.00  0.00    +0.000 A 
ATOM     25  C   UNL     1      -4.729  11.738  16.495  0.00  0.00    +0.000 A 
BRANCH  23  26
ATOM     26  O   UNL     1      -2.460   9.929  14.307  0.00  0.00    +0.000 OA
ATOM     27  H   UNL     1      -2.461   8.960  14.244  0.00  0.00    +0.000 HD
ENDBRANCH  23  26
ENDBRANCH   9  20
BRANCH  18  28
ATOM     28  O   UNL     1      -5.855  16.304  24.545  0.00  0.00    +0.000 OA
ATOM     29  H   UNL     1      -6.677  16.340  24.026  0.00  0.00    +0.000 HD
ENDBRANCH  18  28
TORSDOF 3
ENDMDL
MODEL 3
REMARK VINA RESULT:      -6.6      3.221      3.713
REMARK  Name = 
REMARK  6 active torsions:
REMARK  status: ('A' for Active; 'I' for Inactive)
REMARK    1  A    between atoms: C_1  and  C_2
REMARK    2  A    between atoms: C_5  and  C_6
REMARK    3  A    between atoms: C_9  and  C_10
REMARK    4  A    between atoms: C_13  and  O_14
REMARK    5  A    between atoms: C_23  and  C_24
REMARK    6  A    between atoms: C_25  and  O_26
REMARK                            x       y       z     vdW  Elec       q    Type
REMARK                         _______ _______ _______ _____ _____    ______ ____
ROOT
ATOM      1  C   UNL     1      -0.525  17.122  18.641  0.00  0.00    +0.000 C 
ATOM      2  C   UNL     1      -0.668  15.646  19.023  0.00  0.00    +0.000 C 
ATOM      3  C   UNL     1       0.675  14.934  18.895  0.00  0.00    +0.000 C 
ATOM      4  C   UNL     1       0.567  13.463  19.291  0.00  0.00    +0.000 C 
ATOM      5  C   UNL     1       1.895  12.696  19.169  0.00  0.00    +0.000 C 
ATOM      6  C   UNL     1       2.663  12.944  17.874  0.00  0.00    +0.000 C 
ATOM      7  O   UNL     1       1.608  11.293  19.207  0.00  0.00    +0.000 OA
ATOM      8  C   UNL     1       0.801  10.895  20.253  0.00  0.00    +0.000 A 
ATOM      9  C   UNL     1       0.752   9.446  20.420  0.00  0.00    +0.000 A 
ATOM     10  C   UNL     1      -0.088   8.936  21.338  0.00  0.00    +0.000 A 
ATOM     11  N   UNL     1      -0.754   9.771  22.191  0.00  0.00    +0.000 N 
ATOM     12  C   UNL     1      -0.516  11.124  22.248  0.00  0.00    +0.000 A 
ATOM     13  O   UNL     1      -0.765  11.748  23.269  0.00  0.00    +0.000 OA
ATOM     14  C   UNL     1       0.094  11.746  21.034  0.00  0.00    +0.000 A 
ATOM     15  C   UNL     1       0.019  13.250  20.746  0.00  0.00    +0.000 C 
ATOM     16  C   UNL     1      -1.365  13.990  20.858  0.00  0.00    +0.000 C 
ATOM     17  C   UNL     1      -2.002  13.968  22.256  0.00  0.00    +0.000 C 
ATOM     18  C   UNL     1      -1.228  15.478  20.437  0.00  0.00    +0.000 C 
ATOM     19  H   UNL     1      -1.243   9.382  22.989  0.00  0.00    +0.000 HD
ENDROOT
BRANCH   9  20
ATOM     20  C   UNL     1       1.577   8.491  19.658  0.00  0.00    +0.000 A 
ATOM     21  C   UNL     1       1.988   8.778  18.351  0.00  0.00    +0.000 A 
ATOM     22  C   UNL     1       2.790   7.873  17.651  0.00  0.00    +0.000 A 
ATOM     23  C   UNL     1       3.176   6.684  18.263  0.00  0.00    +0.000 A 
ATOM     24  C   UNL     1       2.772   6.383  19.558  0.00  0.00    +0.000 A 
ATOM     25  C   UNL     1       1.974   7.287  20.258  0.00  0.00    +0.000 A 
BRANCH  23  26
ATOM     26  O   UNL     1       3.965   5.777  17.620  0.00  0.00    +0.000 OA
ATOM     27  H   UNL     1       4.839   6.174  17.475  0.00  0.00    +0.000 HD
ENDBRANCH  23  26
ENDBRANCH   9  20
BRANCH  18  28
ATOM     28  O   UNL     1      -2.498  16.131  20.491  0.00  0.00    +0.000 OA
ATOM     29  H   UNL     1      -2.457  16.814  21.182  0.00  0.00    +0.000 HD
ENDBRANCH  18  28
TORSDOF 3
ENDMDL
MODEL 4
REMARK VINA RESULT:      -6.6      3.482      5.994
REMARK  Name = 
REMARK  6 active torsions:
REMARK  status: ('A' for Active; 'I' for Inactive)
REMARK    1  A    between atoms: C_1  and  C_2
REMARK    2  A    between atoms: C_5  and  C_6
REMARK    3  A    between atoms: C_9  and  C_10
REMARK    4  A    between atoms: C_13  and  O_14
REMARK    5  A    between atoms: C_23  and  C_24
REMARK    6  A    between atoms: C_25  and  O_26
REMARK                            x       y       z     vdW  Elec       q    Type
REMARK                         _______ _______ _______ _____ _____    ______ ____
ROOT
ATOM      1  C   UNL     1      -1.197  15.567  25.117  0.00  0.00    +0.000 C 
ATOM      2  C   UNL     1      -2.131  15.150  23.977  0.00  0.00    +0.000 C 
ATOM      3  C   UNL     1      -1.558  13.943  23.240  0.00  0.00    +0.000 C 
ATOM      4  C   UNL     1      -2.480  13.491  22.110  0.00  0.00    +0.000 C 
ATOM      5  C   UNL     1      -1.942  12.281  21.328  0.00  0.00    +0.000 C 
ATOM      6  C   UNL     1      -0.469  12.369  20.941  0.00  0.00    +0.000 C 
ATOM      7  O   UNL     1      -2.677  12.176  20.102  0.00  0.00    +0.000 OA
ATOM      8  C   UNL     1      -4.049  12.213  20.244  0.00  0.00    +0.000 A 
ATOM      9  C   UNL     1      -4.761  11.835  19.028  0.00  0.00    +0.000 A 
ATOM     10  C   UNL     1      -6.101  11.940  19.013  0.00  0.00    +0.000 A 
ATOM     11  N   UNL     1      -6.775  12.243  20.164  0.00  0.00    +0.000 N 
ATOM     12  C   UNL     1      -6.155  12.327  21.389  0.00  0.00    +0.000 A 
ATOM     13  O   UNL     1      -6.799  12.151  22.414  0.00  0.00    +0.000 OA
ATOM     14  C   UNL     1      -4.685  12.591  21.378  0.00  0.00    +0.000 A 
ATOM     15  C   UNL     1      -3.933  13.147  22.593  0.00  0.00    +0.000 C 
ATOM     16  C   UNL     1      -4.506  14.402  23.349  0.00  0.00    +0.000 C 
ATOM     17  C   UNL     1      -5.892  14.203  23.980  0.00  0.00    +0.000 C 
ATOM     18  C   UNL     1      -3.542  14.847  24.483  0.00  0.00    +0.000 C 
ATOM     19  H   UNL     1      -7.783  12.147  20.193  0.00  0.00    +0.000 HD
ENDROOT
BRANCH   9  20
ATOM     20  C   UNL     1      -4.112  11.326  17.806  0.00  0.00    +0.000 A 
ATOM     21  C   UNL     1      -3.025  10.448  17.881  0.00  0.00    +0.000 A 
ATOM     22  C   UNL     1      -2.437   9.956  16.713  0.00  0.00    +0.000 A 
ATOM     23  C   UNL     1      -2.940  10.347  15.475  0.00  0.00    +0.000 A 
ATOM     24  C   UNL     1      -4.015  11.221  15.385  0.00  0.00    +0.000 A 
ATOM     25  C   UNL     1      -4.605  11.711  16.550  0.00  0.00    +0.000 A 
BRANCH  23  26
ATOM     26  O   UNL     1      -2.402   9.884  14.311  0.00  0.00    +0.000 OA
ATOM     27  H   UNL     1      -3.096   9.426  13.810  0.00  0.00    +0.000 HD
ENDBRANCH  23  26
ENDBRANCH   9  20
BRANCH  18  28
ATOM     28  O   UNL     1      -4.043  16.018  25.131  0.00  0.00    +0.000 OA
ATOM     29  H   UNL     1      -4.782  15.753  25.704  0.00  0.00    +0.000 HD
ENDBRANCH  18  28
TORSDOF 3
ENDMDL
MODEL 5
REMARK VINA RESULT:      -6.6     10.000     13.006
REMARK  Name = 
REMARK  6 active torsions:
REMARK  status: ('A' for Active; 'I' for Inactive)
REMARK    1  A    between atoms: C_1  and  C_2
REMARK    2  A    between atoms: C_5  and  C_6
REMARK    3  A    between atoms: C_9  and  C_10
REMARK    4  A    between atoms: C_13  and  O_14
REMARK    5  A    between atoms: C_23  and  C_24
REMARK    6  A    between atoms: C_25  and  O_26
REMARK                            x       y       z     vdW  Elec       q    Type
REMARK                         _______ _______ _______ _____ _____    ______ ____
ROOT
ATOM      1  C   UNL     1      11.819  13.255  15.976  0.00  0.00    +0.000 C 
ATOM      2  C   UNL     1      11.112  13.783  17.228  0.00  0.00    +0.000 C 
ATOM      3  C   UNL     1      11.044  12.693  18.294  0.00  0.00    +0.000 C 
ATOM      4  C   UNL     1      10.362  13.198  19.564  0.00  0.00    +0.000 C 
ATOM      5  C   UNL     1      10.258  12.132  20.668  0.00  0.00    +0.000 C 
ATOM      6  C   UNL     1       9.776  10.764  20.198  0.00  0.00    +0.000 C 
ATOM      7  O   UNL     1       9.306  12.585  21.640  0.00  0.00    +0.000 OA
ATOM      8  C   UNL     1       9.507  13.873  22.092  0.00  0.00    +0.000 A 
ATOM      9  C   UNL     1       8.700  14.202  23.262  0.00  0.00    +0.000 A 
ATOM     10  C   UNL     1       8.729  15.463  23.725  0.00  0.00    +0.000 A 
ATOM     11  N   UNL     1       9.617  16.362  23.201  0.00  0.00    +0.000 N 
ATOM     12  C   UNL     1      10.586  16.008  22.291  0.00  0.00    +0.000 A 
ATOM     13  O   UNL     1      11.603  16.678  22.189  0.00  0.00    +0.000 OA
ATOM     14  C   UNL     1      10.340  14.764  21.502  0.00  0.00    +0.000 A 
ATOM     15  C   UNL     1      11.054  14.465  20.179  0.00  0.00    +0.000 C 
ATOM     16  C   UNL     1      11.115  15.576  19.067  0.00  0.00    +0.000 C 
ATOM     17  C   UNL     1      11.857  16.859  19.470  0.00  0.00    +0.000 C 
ATOM     18  C   UNL     1      11.800  15.031  17.784  0.00  0.00    +0.000 C 
ATOM     19  H   UNL     1       9.761  17.251  23.666  0.00  0.00    +0.000 HD
ENDROOT
BRANCH   9  20
ATOM     20  C   UNL     1       7.856  13.237  23.991  0.00  0.00    +0.000 A 
ATOM     21  C   UNL     1       6.757  12.630  23.371  0.00  0.00    +0.000 A 
ATOM     22  C   UNL     1       5.983  11.700  24.068  0.00  0.00    +0.000 A 
ATOM     23  C   UNL     1       6.312  11.382  25.383  0.00  0.00    +0.000 A 
ATOM     24  C   UNL     1       7.397  11.978  26.013  0.00  0.00    +0.000 A 
ATOM     25  C   UNL     1       8.172  12.906  25.317  0.00  0.00    +0.000 A 
BRANCH  23  26
ATOM     26  O   UNL     1       5.588  10.473  26.097  0.00  0.00    +0.000 OA
ATOM     27  H   UNL     1       6.199   9.821  26.476  0.00  0.00    +0.000 HD
ENDBRANCH  23  26
ENDBRANCH   9  20
BRANCH  18  28
ATOM     28  O   UNL     1      11.806  16.028  16.760  0.00  0.00    +0.000 OA
ATOM     29  H   UNL     1      11.207  15.736  16.052  0.00  0.00    +0.000 HD
ENDBRANCH  18  28
TORSDOF 3
ENDMDL
MODEL 6
REMARK VINA RESULT:      -6.5      3.148      4.936
REMARK  Name = 
REMARK  6 active torsions:
REMARK  status: ('A' for Active; 'I' for Inactive)
REMARK    1  A    between atoms: C_1  and  C_2
REMARK    2  A    between atoms: C_5  and  C_6
REMARK    3  A    between atoms: C_9  and  C_10
REMARK    4  A    between atoms: C_13  and  O_14
REMARK    5  A    between atoms: C_23  and  C_24
REMARK    6  A    between atoms: C_25  and  O_26
REMARK                            x       y       z     vdW  Elec       q    Type
REMARK                         _______ _______ _______ _____ _____    ______ ____
ROOT
ATOM      1  C   UNL     1      -7.592  13.251  24.273  0.00  0.00    +0.000 C 
ATOM      2  C   UNL     1      -6.453  12.671  23.430  0.00  0.00    +0.000 C 
ATOM      3  C   UNL     1      -6.616  13.080  21.969  0.00  0.00    +0.000 C 
ATOM      4  C   UNL     1      -5.481  12.533  21.106  0.00  0.00    +0.000 C 
ATOM      5  C   UNL     1      -5.605  12.910  19.620  0.00  0.00    +0.000 C 
ATOM      6  C   UNL     1      -6.996  12.722  19.022  0.00  0.00    +0.000 C 
ATOM      7  O   UNL     1      -4.724  12.067  18.868  0.00  0.00    +0.000 OA
ATOM      8  C   UNL     1      -3.431  12.006  19.347  0.00  0.00    +0.000 A 
ATOM      9  C   UNL     1      -2.505  11.367  18.417  0.00  0.00    +0.000 A 
ATOM     10  C   UNL     1      -1.240  11.153  18.820  0.00  0.00    +0.000 A 
ATOM     11  N   UNL     1      -0.808  11.667  20.011  0.00  0.00    +0.000 N 
ATOM     12  C   UNL     1      -1.573  12.514  20.780  0.00  0.00    +0.000 A 
ATOM     13  O   UNL     1      -1.035  13.287  21.559  0.00  0.00    +0.000 OA
ATOM     14  C   UNL     1      -3.050  12.459  20.565  0.00  0.00    +0.000 A 
ATOM     15  C   UNL     1      -4.058  12.974  21.599  0.00  0.00    +0.000 C 
ATOM     16  C   UNL     1      -3.908  12.543  23.105  0.00  0.00    +0.000 C 
ATOM     17  C   UNL     1      -2.603  12.988  23.782  0.00  0.00    +0.000 C 
ATOM     18  C   UNL     1      -5.082  13.101  23.955  0.00  0.00    +0.000 C 
ATOM     19  H   UNL     1       0.182  11.658  20.229  0.00  0.00    +0.000 HD
ENDROOT
BRANCH   9  20
ATOM     20  C   UNL     1      -2.855  10.948  17.048  0.00  0.00    +0.000 A 
ATOM     21  C   UNL     1      -3.882  11.586  16.341  0.00  0.00    +0.000 A 
ATOM     22  C   UNL     1      -4.185  11.193  15.035  0.00  0.00    +0.000 A 
ATOM     23  C   UNL     1      -3.459  10.164  14.443  0.00  0.00    +0.000 A 
ATOM     24  C   UNL     1      -2.440   9.519  15.133  0.00  0.00    +0.000 A 
ATOM     25  C   UNL     1      -2.135   9.912  16.436  0.00  0.00    +0.000 A 
BRANCH  23  26
ATOM     26  O   UNL     1      -3.715   9.754  13.168  0.00  0.00    +0.000 OA
ATOM     27  H   UNL     1      -4.364  10.360  12.774  0.00  0.00    +0.000 HD
ENDBRANCH  23  26
ENDBRANCH   9  20
BRANCH  18  28
ATOM     28  O   UNL     1      -4.969  12.663  25.310  0.00  0.00    +0.000 OA
ATOM     29  H   UNL     1      -4.907  11.693  25.310  0.00  0.00    +0.000 HD
ENDBRANCH  18  28
TORSDOF 3
ENDMDL
MODEL 7
REMARK VINA RESULT:      -6.4      3.135      3.766
REMARK  Name = 
REMARK  6 active torsions:
REMARK  status: ('A' for Active; 'I' for Inactive)
REMARK    1  A    between atoms: C_1  and  C_2
REMARK    2  A    between atoms: C_5  and  C_6
REMARK    3  A    between atoms: C_9  and  C_10
REMARK    4  A    between atoms: C_13  and  O_14
REMARK    5  A    between atoms: C_23  and  C_24
REMARK    6  A    between atoms: C_25  and  O_26
REMARK                            x       y       z     vdW  Elec       q    Type
REMARK                         _______ _______ _______ _____ _____    ______ ____
ROOT
ATOM      1  C   UNL     1      -0.756  16.711  18.719  0.00  0.00    +0.000 C 
ATOM      2  C   UNL     1      -0.812  15.222  19.073  0.00  0.00    +0.000 C 
ATOM      3  C   UNL     1       0.565  14.587  18.907  0.00  0.00    +0.000 C 
ATOM      4  C   UNL     1       0.544  13.105  19.274  0.00  0.00    +0.000 C 
ATOM      5  C   UNL     1       1.909  12.415  19.113  0.00  0.00    +0.000 C 
ATOM      6  C   UNL     1       2.639  12.729  17.810  0.00  0.00    +0.000 C 
ATOM      7  O   UNL     1       1.699  10.997  19.127  0.00  0.00    +0.000 OA
ATOM      8  C   UNL     1       0.935  10.535  20.179  0.00  0.00    +0.000 A 
ATOM      9  C   UNL     1       0.968   9.083  20.317  0.00  0.00    +0.000 A 
ATOM     10  C   UNL     1       0.175   8.510  21.239  0.00  0.00    +0.000 A 
ATOM     11  N   UNL     1      -0.520   9.291  22.121  0.00  0.00    +0.000 N 
ATOM     12  C   UNL     1      -0.354  10.653  22.201  0.00  0.00    +0.000 A 
ATOM     13  O   UNL     1      -0.617  11.242  23.240  0.00  0.00    +0.000 OA
ATOM     14  C   UNL     1       0.198  11.332  20.990  0.00  0.00    +0.000 A 
ATOM     15  C   UNL     1       0.036  12.835  20.734  0.00  0.00    +0.000 C 
ATOM     16  C   UNL     1      -1.384  13.495  20.886  0.00  0.00    +0.000 C 
ATOM     17  C   UNL     1      -1.992  13.412  22.295  0.00  0.00    +0.000 C 
ATOM     18  C   UNL     1      -1.335  14.997  20.493  0.00  0.00    +0.000 C 
ATOM     19  H   UNL     1      -0.972   8.860  22.920  0.00  0.00    +0.000 HD
ENDROOT
BRANCH   9  20
ATOM     20  C   UNL     1       1.829   8.189  19.521  0.00  0.00    +0.000 A 
ATOM     21  C   UNL     1       2.205   6.931  20.007  0.00  0.00    +0.000 A 
ATOM     22  C   UNL     1       3.001   6.087  19.230  0.00  0.00    +0.000 A 
ATOM     23  C   UNL     1       3.418   6.506  17.970  0.00  0.00    +0.000 A 
ATOM     24  C   UNL     1       3.058   7.753  17.476  0.00  0.00    +0.000 A 
ATOM     25  C   UNL     1       2.260   8.596  18.250  0.00  0.00    +0.000 A 
BRANCH  23  26
ATOM     26  O   UNL     1       4.190   5.710  17.175  0.00  0.00    +0.000 OA
ATOM     27  H   UNL     1       5.108   6.023  17.223  0.00  0.00    +0.000 HD
ENDBRANCH  23  26
ENDBRANCH   9  20
BRANCH  18  28
ATOM     28  O   UNL     1      -2.637  15.578  20.583  0.00  0.00    +0.000 OA
ATOM     29  H   UNL     1      -3.291  14.858  20.568  0.00  0.00    +0.000 HD
ENDBRANCH  18  28
TORSDOF 3
ENDMDL
MODEL 8
REMARK VINA RESULT:      -6.4      3.381      4.063
REMARK  Name = 
REMARK  6 active torsions:
REMARK  status: ('A' for Active; 'I' for Inactive)
REMARK    1  A    between atoms: C_1  and  C_2
REMARK    2  A    between atoms: C_5  and  C_6
REMARK    3  A    between atoms: C_9  and  C_10
REMARK    4  A    between atoms: C_13  and  O_14
REMARK    5  A    between atoms: C_23  and  C_24
REMARK    6  A    between atoms: C_25  and  O_26
REMARK                            x       y       z     vdW  Elec       q    Type
REMARK                         _______ _______ _______ _____ _____    ______ ____
ROOT
ATOM      1  C   UNL     1      -0.170  17.886  18.301  0.00  0.00    +0.000 C 
ATOM      2  C   UNL     1      -0.448  16.461  18.788  0.00  0.00    +0.000 C 
ATOM      3  C   UNL     1       0.822  15.619  18.712  0.00  0.00    +0.000 C 
ATOM      4  C   UNL     1       0.580  14.197  19.212  0.00  0.00    +0.000 C 
ATOM      5  C   UNL     1       1.830  13.303  19.145  0.00  0.00    +0.000 C 
ATOM      6  C   UNL     1       2.610  13.385  17.837  0.00  0.00    +0.000 C 
ATOM      7  O   UNL     1       1.414  11.939  19.283  0.00  0.00    +0.000 OA
ATOM      8  C   UNL     1       0.580  11.693  20.355  0.00  0.00    +0.000 A 
ATOM      9  C   UNL     1       0.398  10.271  20.624  0.00  0.00    +0.000 A 
ATOM     10  C   UNL     1      -0.481   9.907  21.575  0.00  0.00    +0.000 A 
ATOM     11  N   UNL     1      -1.061  10.860  22.367  0.00  0.00    +0.000 N 
ATOM     12  C   UNL     1      -0.698  12.185  22.327  0.00  0.00    +0.000 A 
ATOM     13  O   UNL     1      -0.882  12.900  23.301  0.00  0.00    +0.000 OA
ATOM     14  C   UNL     1      -0.041  12.660  21.072  0.00  0.00    +0.000 A 
ATOM     15  C   UNL     1       0.023  14.140  20.678  0.00  0.00    +0.000 C 
ATOM     16  C   UNL     1      -1.286  15.012  20.736  0.00  0.00    +0.000 C 
ATOM     17  C   UNL     1      -1.913  15.149  22.132  0.00  0.00    +0.000 C 
ATOM     18  C   UNL     1      -1.013  16.447  20.210  0.00  0.00    +0.000 C 
ATOM     19  H   UNL     1      -1.580  10.576  23.190  0.00  0.00    +0.000 HD
ENDROOT
BRANCH   9  20
ATOM     20  C   UNL     1       1.126   9.191  19.933  0.00  0.00    +0.000 A 
ATOM     21  C   UNL     1       1.558   8.055  20.627  0.00  0.00    +0.000 A 
ATOM     22  C   UNL     1       2.225   7.030  19.952  0.00  0.00    +0.000 A 
ATOM     23  C   UNL     1       2.457   7.148  18.585  0.00  0.00    +0.000 A 
ATOM     24  C   UNL     1       2.038   8.271  17.883  0.00  0.00    +0.000 A 
ATOM     25  C   UNL     1       1.370   9.294  18.555  0.00  0.00    +0.000 A 
BRANCH  23  26
ATOM     26  O   UNL     1       3.097   6.167  17.886  0.00  0.00    +0.000 OA
ATOM     27  H   UNL     1       2.703   5.312  18.122  0.00  0.00    +0.000 HD
ENDBRANCH  23  26
ENDBRANCH   9  20
BRANCH  18  28
ATOM     28  O   UNL     1      -2.216  17.217  20.217  0.00  0.00    +0.000 OA
ATOM     29  H   UNL     1      -2.014  18.090  20.595  0.00  0.00    +0.000 HD
ENDBRANCH  18  28
TORSDOF 3
ENDMDL
MODEL 9
REMARK VINA RESULT:      -6.3      2.540      7.531
REMARK  Name = 
REMARK  6 active torsions:
REMARK  status: ('A' for Active; 'I' for Inactive)
REMARK    1  A    between atoms: C_1  and  C_2
REMARK    2  A    between atoms: C_5  and  C_6
REMARK    3  A    between atoms: C_9  and  C_10
REMARK    4  A    between atoms: C_13  and  O_14
REMARK    5  A    between atoms: C_23  and  C_24
REMARK    6  A    between atoms: C_25  and  O_26
REMARK                            x       y       z     vdW  Elec       q    Type
REMARK                         _______ _______ _______ _____ _____    ______ ____
ROOT
ATOM      1  C   UNL     1       2.043   5.301  20.848  0.00  0.00    +0.000 C 
ATOM      2  C   UNL     1       1.426   6.600  20.321  0.00  0.00    +0.000 C 
ATOM      3  C   UNL     1       1.175   7.570  21.471  0.00  0.00    +0.000 C 
ATOM      4  C   UNL     1       0.579   8.885  20.971  0.00  0.00    +0.000 C 
ATOM      5  C   UNL     1       0.297   9.896  22.096  0.00  0.00    +0.000 C 
ATOM      6  C   UNL     1      -0.401   9.315  23.322  0.00  0.00    +0.000 C 
ATOM      7  O   UNL     1      -0.572  10.911  21.579  0.00  0.00    +0.000 OA
ATOM      8  C   UNL     1      -0.165  11.469  20.384  0.00  0.00    +0.000 A 
ATOM      9  C   UNL     1      -0.913  12.670  20.029  0.00  0.00    +0.000 A 
ATOM     10  C   UNL     1      -0.679  13.239  18.833  0.00  0.00    +0.000 A 
ATOM     11  N   UNL     1       0.346  12.784  18.050  0.00  0.00    +0.000 N 
ATOM     12  C   UNL     1       1.248  11.838  18.479  0.00  0.00    +0.000 A 
ATOM     13  O   UNL     1       2.362  11.783  17.978  0.00  0.00    +0.000 OA
ATOM     14  C   UNL     1       0.805  10.949  19.594  0.00  0.00    +0.000 A 
ATOM     15  C   UNL     1       1.467   9.599  19.892  0.00  0.00    +0.000 C 
ATOM     16  C   UNL     1       1.714   8.584  18.715  0.00  0.00    +0.000 C 
ATOM     17  C   UNL     1       2.654   9.088  17.610  0.00  0.00    +0.000 C 
ATOM     18  C   UNL     1       2.307   7.253  19.254  0.00  0.00    +0.000 C 
ATOM     19  H   UNL     1       0.632  13.321  17.240  0.00  0.00    +0.000 HD
ENDROOT
BRANCH   9  20
ATOM     20  C   UNL     1      -1.906  13.323  20.901  0.00  0.00    +0.000 A 
ATOM     21  C   UNL     1      -3.268  13.016  20.795  0.00  0.00    +0.000 A 
ATOM     22  C   UNL     1      -4.194  13.625  21.645  0.00  0.00    +0.000 A 
ATOM     23  C   UNL     1      -3.752  14.539  22.598  0.00  0.00    +0.000 A 
ATOM     24  C   UNL     1      -2.404  14.856  22.712  0.00  0.00    +0.000 A 
ATOM     25  C   UNL     1      -1.479  14.247  21.865  0.00  0.00    +0.000 A 
BRANCH  23  26
ATOM     26  O   UNL     1      -4.620  15.150  23.454  0.00  0.00    +0.000 OA
ATOM     27  H   UNL     1      -4.293  15.035  24.360  0.00  0.00    +0.000 HD
ENDBRANCH  23  26
ENDBRANCH   9  20
BRANCH  18  28
ATOM     28  O   UNL     1       2.480   6.318  18.188  0.00  0.00    +0.000 OA
ATOM     29  H   UNL     1       3.035   6.735  17.507  0.00  0.00    +0.000 HD
ENDBRANCH  18  28
TORSDOF 3
ENDMDL
