MODEL 1
REMARK VINA RESULT:      -8.7      0.000      0.000
REMARK  Name = 
REMARK  6 active torsions:
REMARK  status: ('A' for Active; 'I' for Inactive)
REMARK    1  A    between atoms: N_1  and  N_2
REMARK    2  A    between atoms: C_3  and  C_5
REMARK    3  A    between atoms: N_8  and  C_9
REMARK    4  A    between atoms: C_12  and  S_13
REMARK    5  A    between atoms: S_13  and  N_14
REMARK    6  A    between atoms: C_19  and  C_20
REMARK                            x       y       z     vdW  Elec       q    Type
REMARK                         _______ _______ _______ _____ _____    ______ ____
ROOT
ATOM      1  C   UNL     1       3.129   3.401  19.429  0.00  0.00    +0.000 A 
ATOM      2  N   UNL     1       1.899   3.417  20.052  0.00  0.00    +0.000 NA
ATOM      3  N   UNL     1       1.548   4.681  20.240  0.00  0.00    +0.000 NA
ATOM      4  N   UNL     1       2.442   5.471  19.597  0.00  0.00    +0.000 N 
ATOM      5  C   UNL     1       3.530   4.705  19.152  0.00  0.00    +0.000 A 
ENDROOT
BRANCH   5   6
ATOM      6  C   UNL     1       4.756   5.232  18.530  0.00  0.00    +0.000 A 
ATOM      7  C   UNL     1       5.959   5.325  19.255  0.00  0.00    +0.000 A 
ATOM      8  C   UNL     1       7.045   6.048  18.754  0.00  0.00    +0.000 A 
ATOM      9  C   UNL     1       6.972   6.593  17.482  0.00  0.00    +0.000 A 
ATOM     10  F   UNL     1       8.000   7.310  17.009  0.00  0.00    +0.000 F 
ATOM     11  C   UNL     1       5.841   6.414  16.698  0.00  0.00    +0.000 A 
ATOM     12  C   UNL     1       4.730   5.745  17.225  0.00  0.00    +0.000 A 
ENDBRANCH   5   6
BRANCH   4  13
ATOM     13  C   UNL     1       2.208   6.870  19.489  0.00  0.00    +0.000 A 
ATOM     14  C   UNL     1       2.305   7.488  18.233  0.00  0.00    +0.000 A 
ATOM     15  C   UNL     1       1.841   8.799  18.071  0.00  0.00    +0.000 A 
ATOM     16  C   UNL     1       1.304   9.484  19.166  0.00  0.00    +0.000 A 
ATOM     17  C   UNL     1       1.317   8.913  20.439  0.00  0.00    +0.000 A 
ATOM     18  C   UNL     1       1.792   7.613  20.601  0.00  0.00    +0.000 A 
BRANCH  16  19
ATOM     19  S   UNL     1       0.613  11.098  18.954  0.00  0.00    +0.000 S 
ATOM     20  O   UNL     1      -0.618  10.999  18.205  0.00  0.00    +0.000 OA
ATOM     21  O   UNL     1       0.708  11.816  20.203  0.00  0.00    +0.000 OA
BRANCH  19  22
ATOM     22  N   UNL     1       1.726  11.814  17.917  0.00  0.00    +0.000 NA
ATOM     23  H   UNL     1       1.640  11.408  16.986  0.00  0.00    +0.000 HD
ATOM     24  H   UNL     1       1.608  12.829  17.931  0.00  0.00    +0.000 HD
ENDBRANCH  19  22
ENDBRANCH  16  19
ENDBRANCH   4  13
BRANCH   1  26
ATOM     25  N   UNL     1       4.827   1.881  20.112  0.00  0.00    +0.000 N 
ATOM     26  C   UNL     1       3.822   2.146  19.175  0.00  0.00    +0.000 C 
ATOM     27  O   UNL     1       3.539   1.390  18.252  0.00  0.00    +0.000 OA
ATOM     28  H   UNL     1       4.915   2.511  20.910  0.00  0.00    +0.000 HD
BRANCH  25  29
ATOM     29  N   UNL     1       5.452   0.612  20.144  0.00  0.00    +0.000 NA
ATOM     30  H   UNL     1       6.441   0.721  20.376  0.00  0.00    +0.000 HD
ATOM     31  H   UNL     1       5.425   0.230  19.191  0.00  0.00    +0.000 HD
ENDBRANCH  25  29
ENDBRANCH   1  26
TORSDOF 6
ENDMDL
MODEL 2
REMARK VINA RESULT:      -8.5      1.086      1.127
REMARK  Name = 
REMARK  6 active torsions:
REMARK  status: ('A' for Active; 'I' for Inactive)
REMARK    1  A    between atoms: N_1  and  N_2
REMARK    2  A    between atoms: C_3  and  C_5
REMARK    3  A    between atoms: N_8  and  C_9
REMARK    4  A    between atoms: C_12  and  S_13
REMARK    5  A    between atoms: S_13  and  N_14
REMARK    6  A    between atoms: C_19  and  C_20
REMARK                            x       y       z     vdW  Elec       q    Type
REMARK                         _______ _______ _______ _____ _____    ______ ____
ROOT
ATOM      1  C   UNL     1       3.275   3.576  19.890  0.00  0.00    +0.000 A 
ATOM      2  N   UNL     1       2.084   3.590  20.584  0.00  0.00    +0.000 NA
ATOM      3  N   UNL     1       1.693   4.851  20.705  0.00  0.00    +0.000 NA
ATOM      4  N   UNL     1       2.514   5.625  19.955  0.00  0.00    +0.000 N 
ATOM      5  C   UNL     1       3.606   4.870  19.499  0.00  0.00    +0.000 A 
ENDROOT
BRANCH   5   6
ATOM      6  C   UNL     1       4.770   5.396  18.768  0.00  0.00    +0.000 A 
ATOM      7  C   UNL     1       6.057   5.382  19.340  0.00  0.00    +0.000 A 
ATOM      8  C   UNL     1       7.108   6.099  18.761  0.00  0.00    +0.000 A 
ATOM      9  C   UNL     1       6.905   6.747  17.553  0.00  0.00    +0.000 A 
ATOM     10  F   UNL     1       7.901   7.458  17.009  0.00  0.00    +0.000 F 
ATOM     11  C   UNL     1       5.679   6.677  16.907  0.00  0.00    +0.000 A 
ATOM     12  C   UNL     1       4.610   6.013  17.519  0.00  0.00    +0.000 A 
ENDBRANCH   5   6
BRANCH   4  13
ATOM     13  C   UNL     1       2.217   7.003  19.764  0.00  0.00    +0.000 A 
ATOM     14  C   UNL     1       2.329   7.558  18.480  0.00  0.00    +0.000 A 
ATOM     15  C   UNL     1       1.809   8.834  18.233  0.00  0.00    +0.000 A 
ATOM     16  C   UNL     1       1.200   9.548  19.271  0.00  0.00    +0.000 A 
ATOM     17  C   UNL     1       1.194   9.046  20.572  0.00  0.00    +0.000 A 
ATOM     18  C   UNL     1       1.726   7.781  20.820  0.00  0.00    +0.000 A 
BRANCH  16  19
ATOM     19  S   UNL     1       0.439  11.112  18.948  0.00  0.00    +0.000 S 
ATOM     20  O   UNL     1      -0.411  11.471  20.058  0.00  0.00    +0.000 OA
ATOM     21  O   UNL     1       1.430  12.010  18.404  0.00  0.00    +0.000 OA
BRANCH  19  22
ATOM     22  N   UNL     1      -0.597  10.734  17.679  0.00  0.00    +0.000 NA
ATOM     23  H   UNL     1      -1.487  11.216  17.805  0.00  0.00    +0.000 HD
ATOM     24  H   UNL     1      -0.143  10.944  16.788  0.00  0.00    +0.000 HD
ENDBRANCH  19  22
ENDBRANCH  16  19
ENDBRANCH   4  13
BRANCH   1  26
ATOM     25  N   UNL     1       3.525   1.596  18.595  0.00  0.00    +0.000 N 
ATOM     26  C   UNL     1       4.004   2.332  19.684  0.00  0.00    +0.000 C 
ATOM     27  O   UNL     1       4.952   1.978  20.377  0.00  0.00    +0.000 OA
ATOM     28  H   UNL     1       2.807   2.022  18.008  0.00  0.00    +0.000 HD
BRANCH  25  29
ATOM     29  N   UNL     1       4.247   0.475  18.121  0.00  0.00    +0.000 NA
ATOM     30  H   UNL     1       4.049  -0.337  18.708  0.00  0.00    +0.000 HD
ATOM     31  H   UNL     1       5.246   0.677  18.244  0.00  0.00    +0.000 HD
ENDBRANCH  25  29
ENDBRANCH   1  26
TORSDOF 6
ENDMDL
MODEL 3
REMARK VINA RESULT:      -8.5      0.585      1.094
REMARK  Name = 
REMARK  6 active torsions:
REMARK  status: ('A' for Active; 'I' for Inactive)
REMARK    1  A    between atoms: N_1  and  N_2
REMARK    2  A    between atoms: C_3  and  C_5
REMARK    3  A    between atoms: N_8  and  C_9
REMARK    4  A    between atoms: C_12  and  S_13
REMARK    5  A    between atoms: S_13  and  N_14
REMARK    6  A    between atoms: C_19  and  C_20
REMARK                            x       y       z     vdW  Elec       q    Type
REMARK                         _______ _______ _______ _____ _____    ______ ____
ROOT
ATOM      1  C   UNL     1       3.145   3.465  19.767  0.00  0.00    +0.000 A 
ATOM      2  N   UNL     1       2.075   3.519  20.635  0.00  0.00    +0.000 NA
ATOM      3  N   UNL     1       1.741   4.791  20.799  0.00  0.00    +0.000 NA
ATOM      4  N   UNL     1       2.459   5.536  19.924  0.00  0.00    +0.000 N 
ATOM      5  C   UNL     1       3.447   4.747  19.315  0.00  0.00    +0.000 A 
ENDROOT
BRANCH   5   6
ATOM      6  C   UNL     1       4.500   5.234  18.409  0.00  0.00    +0.000 A 
ATOM      7  C   UNL     1       4.315   5.242  17.013  0.00  0.00    +0.000 A 
ATOM      8  C   UNL     1       5.390   5.464  16.148  0.00  0.00    +0.000 A 
ATOM      9  C   UNL     1       6.632   5.784  16.673  0.00  0.00    +0.000 A 
ATOM     10  F   UNL     1       7.670   5.971  15.849  0.00  0.00    +0.000 F 
ATOM     11  C   UNL     1       6.813   5.902  18.044  0.00  0.00    +0.000 A 
ATOM     12  C   UNL     1       5.753   5.616  18.911  0.00  0.00    +0.000 A 
ENDBRANCH   5   6
BRANCH   4  13
ATOM     13  C   UNL     1       2.173   6.920  19.765  0.00  0.00    +0.000 A 
ATOM     14  C   UNL     1       2.350   7.519  18.508  0.00  0.00    +0.000 A 
ATOM     15  C   UNL     1       1.844   8.804  18.278  0.00  0.00    +0.000 A 
ATOM     16  C   UNL     1       1.185   9.484  19.308  0.00  0.00    +0.000 A 
ATOM     17  C   UNL     1       1.114   8.938  20.590  0.00  0.00    +0.000 A 
ATOM     18  C   UNL     1       1.631   7.664  20.821  0.00  0.00    +0.000 A 
BRANCH  16  19
ATOM     19  S   UNL     1       0.443  11.059  19.001  0.00  0.00    +0.000 S 
ATOM     20  O   UNL     1      -0.715  10.889  18.156  0.00  0.00    +0.000 OA
ATOM     21  O   UNL     1       0.402  11.805  20.238  0.00  0.00    +0.000 OA
BRANCH  19  22
ATOM     22  N   UNL     1       1.606  11.806  18.044  0.00  0.00    +0.000 NA
ATOM     23  H   UNL     1       2.267  12.310  18.636  0.00  0.00    +0.000 HD
ATOM     24  H   UNL     1       2.050  11.114  17.437  0.00  0.00    +0.000 HD
ENDBRANCH  19  22
ENDBRANCH  16  19
ENDBRANCH   4  13
BRANCH   1  26
ATOM     25  N   UNL     1       4.877   1.928  20.315  0.00  0.00    +0.000 N 
ATOM     26  C   UNL     1       3.799   2.200  19.465  0.00  0.00    +0.000 C 
ATOM     27  O   UNL     1       3.431   1.442  18.574  0.00  0.00    +0.000 OA
ATOM     28  H   UNL     1       5.039   2.562  21.099  0.00  0.00    +0.000 HD
BRANCH  25  29
ATOM     29  N   UNL     1       5.488   0.652  20.304  0.00  0.00    +0.000 NA
ATOM     30  H   UNL     1       5.672   0.349  21.261  0.00  0.00    +0.000 HD
ATOM     31  H   UNL     1       6.406   0.753  19.856  0.00  0.00    +0.000 HD
ENDBRANCH  25  29
ENDBRANCH   1  26
TORSDOF 6
ENDMDL
MODEL 4
REMARK VINA RESULT:      -8.4      1.179      1.523
REMARK  Name = 
REMARK  6 active torsions:
REMARK  status: ('A' for Active; 'I' for Inactive)
REMARK    1  A    between atoms: N_1  and  N_2
REMARK    2  A    between atoms: C_3  and  C_5
REMARK    3  A    between atoms: N_8  and  C_9
REMARK    4  A    between atoms: C_12  and  S_13
REMARK    5  A    between atoms: S_13  and  N_14
REMARK    6  A    between atoms: C_19  and  C_20
REMARK                            x       y       z     vdW  Elec       q    Type
REMARK                         _______ _______ _______ _____ _____    ______ ____
ROOT
ATOM      1  C   UNL     1       3.187   3.726  19.964  0.00  0.00    +0.000 A 
ATOM      2  N   UNL     1       2.043   3.739  20.733  0.00  0.00    +0.000 NA
ATOM      3  N   UNL     1       1.646   4.997  20.861  0.00  0.00    +0.000 NA
ATOM      4  N   UNL     1       2.409   5.768  20.050  0.00  0.00    +0.000 N 
ATOM      5  C   UNL     1       3.477   5.018  19.534  0.00  0.00    +0.000 A 
ENDROOT
BRANCH   5   6
ATOM      6  C   UNL     1       4.587   5.545  18.723  0.00  0.00    +0.000 A 
ATOM      7  C   UNL     1       4.397   5.908  17.376  0.00  0.00    +0.000 A 
ATOM      8  C   UNL     1       5.489   6.168  16.542  0.00  0.00    +0.000 A 
ATOM      9  C   UNL     1       6.768   6.169  17.075  0.00  0.00    +0.000 A 
ATOM     10  F   UNL     1       7.817   6.391  16.274  0.00  0.00    +0.000 F 
ATOM     11  C   UNL     1       6.973   5.933  18.427  0.00  0.00    +0.000 A 
ATOM     12  C   UNL     1       5.886   5.609  19.247  0.00  0.00    +0.000 A 
ENDBRANCH   5   6
BRANCH   4  13
ATOM     13  C   UNL     1       2.085   7.140  19.859  0.00  0.00    +0.000 A 
ATOM     14  C   UNL     1       2.211   7.705  18.580  0.00  0.00    +0.000 A 
ATOM     15  C   UNL     1       1.667   8.970  18.329  0.00  0.00    +0.000 A 
ATOM     16  C   UNL     1       1.021   9.665  19.357  0.00  0.00    +0.000 A 
ATOM     17  C   UNL     1       1.000   9.155  20.656  0.00  0.00    +0.000 A 
ATOM     18  C   UNL     1       1.555   7.901  20.909  0.00  0.00    +0.000 A 
BRANCH  16  19
ATOM     19  S   UNL     1       0.232  11.212  19.027  0.00  0.00    +0.000 S 
ATOM     20  O   UNL     1      -0.673  11.530  20.106  0.00  0.00    +0.000 OA
ATOM     21  O   UNL     1       1.220  12.146  18.539  0.00  0.00    +0.000 OA
BRANCH  19  22
ATOM     22  N   UNL     1      -0.739  10.828  17.709  0.00  0.00    +0.000 NA
ATOM     23  H   UNL     1      -1.658  11.257  17.822  0.00  0.00    +0.000 HD
ATOM     24  H   UNL     1      -0.268  11.096  16.843  0.00  0.00    +0.000 HD
ENDBRANCH  19  22
ENDBRANCH  16  19
ENDBRANCH   4  13
BRANCH   1  26
ATOM     25  N   UNL     1       3.415   1.762  18.640  0.00  0.00    +0.000 N 
ATOM     26  C   UNL     1       3.914   2.487  19.728  0.00  0.00    +0.000 C 
ATOM     27  O   UNL     1       4.877   2.128  20.397  0.00  0.00    +0.000 OA
ATOM     28  H   UNL     1       2.685   2.193  18.073  0.00  0.00    +0.000 HD
BRANCH  25  29
ATOM     29  N   UNL     1       4.131   0.649  18.139  0.00  0.00    +0.000 NA
ATOM     30  H   UNL     1       4.153   0.684  17.119  0.00  0.00    +0.000 HD
ATOM     31  H   UNL     1       3.599  -0.195  18.382  0.00  0.00    +0.000 HD
ENDBRANCH  25  29
ENDBRANCH   1  26
TORSDOF 6
ENDMDL
MODEL 5
REMARK VINA RESULT:      -8.3      3.470      4.669
REMARK  Name = 
REMARK  6 active torsions:
REMARK  status: ('A' for Active; 'I' for Inactive)
REMARK    1  A    between atoms: N_1  and  N_2
REMARK    2  A    between atoms: C_3  and  C_5
REMARK    3  A    between atoms: N_8  and  C_9
REMARK    4  A    between atoms: C_12  and  S_13
REMARK    5  A    between atoms: S_13  and  N_14
REMARK    6  A    between atoms: C_19  and  C_20
REMARK                            x       y       z     vdW  Elec       q    Type
REMARK                         _______ _______ _______ _____ _____    ______ ____
ROOT
ATOM      1  C   UNL     1       5.193   5.591  16.286  0.00  0.00    +0.000 A 
ATOM      2  N   UNL     1       5.395   6.923  15.990  0.00  0.00    +0.000 NA
ATOM      3  N   UNL     1       4.452   7.628  16.600  0.00  0.00    +0.000 NA
ATOM      4  N   UNL     1       3.760   6.797  17.416  0.00  0.00    +0.000 N 
ATOM      5  C   UNL     1       4.127   5.464  17.172  0.00  0.00    +0.000 A 
ENDROOT
BRANCH   5   6
ATOM      6  C   UNL     1       3.497   4.276  17.770  0.00  0.00    +0.000 A 
ATOM      7  C   UNL     1       2.171   3.919  17.460  0.00  0.00    +0.000 A 
ATOM      8  C   UNL     1       1.495   2.950  18.206  0.00  0.00    +0.000 A 
ATOM      9  C   UNL     1       2.174   2.258  19.197  0.00  0.00    +0.000 A 
ATOM     10  F   UNL     1       1.522   1.348  19.932  0.00  0.00    +0.000 F 
ATOM     11  C   UNL     1       3.517   2.506  19.442  0.00  0.00    +0.000 A 
ATOM     12  C   UNL     1       4.175   3.521  18.739  0.00  0.00    +0.000 A 
ENDBRANCH   5   6
BRANCH   4  13
ATOM     13  C   UNL     1       2.799   7.325  18.322  0.00  0.00    +0.000 A 
ATOM     14  C   UNL     1       2.634   6.721  19.578  0.00  0.00    +0.000 A 
ATOM     15  C   UNL     1       1.880   7.371  20.563  0.00  0.00    +0.000 A 
ATOM     16  C   UNL     1       1.285   8.605  20.278  0.00  0.00    +0.000 A 
ATOM     17  C   UNL     1       1.350   9.147  18.995  0.00  0.00    +0.000 A 
ATOM     18  C   UNL     1       2.089   8.492  18.011  0.00  0.00    +0.000 A 
BRANCH  16  19
ATOM     19  S   UNL     1       0.424   9.490  21.544  0.00  0.00    +0.000 S 
ATOM     20  O   UNL     1       1.300   9.686  22.675  0.00  0.00    +0.000 OA
ATOM     21  O   UNL     1      -0.317  10.571  20.937  0.00  0.00    +0.000 OA
BRANCH  19  22
ATOM     22  N   UNL     1      -0.719   8.360  22.037  0.00  0.00    +0.000 NA
ATOM     23  H   UNL     1      -0.374   7.418  21.849  0.00  0.00    +0.000 HD
ATOM     24  H   UNL     1      -0.960   8.516  23.017  0.00  0.00    +0.000 HD
ENDBRANCH  19  22
ENDBRANCH  16  19
ENDBRANCH   4  13
BRANCH   1  26
ATOM     25  N   UNL     1       5.580   4.192  14.401  0.00  0.00    +0.000 N 
ATOM     26  C   UNL     1       6.019   4.558  15.678  0.00  0.00    +0.000 C 
ATOM     27  O   UNL     1       7.008   4.076  16.219  0.00  0.00    +0.000 OA
ATOM     28  H   UNL     1       4.816   4.727  13.986  0.00  0.00    +0.000 HD
BRANCH  25  29
ATOM     29  N   UNL     1       6.383   3.363  13.583  0.00  0.00    +0.000 NA
ATOM     30  H   UNL     1       6.854   2.663  14.158  0.00  0.00    +0.000 HD
ATOM     31  H   UNL     1       7.127   3.949  13.184  0.00  0.00    +0.000 HD
ENDBRANCH  25  29
ENDBRANCH   1  26
TORSDOF 6
ENDMDL
MODEL 6
REMARK VINA RESULT:      -8.2      3.212      4.325
REMARK  Name = 
REMARK  6 active torsions:
REMARK  status: ('A' for Active; 'I' for Inactive)
REMARK    1  A    between atoms: N_1  and  N_2
REMARK    2  A    between atoms: C_3  and  C_5
REMARK    3  A    between atoms: N_8  and  C_9
REMARK    4  A    between atoms: C_12  and  S_13
REMARK    5  A    between atoms: S_13  and  N_14
REMARK    6  A    between atoms: C_19  and  C_20
REMARK                            x       y       z     vdW  Elec       q    Type
REMARK                         _______ _______ _______ _____ _____    ______ ____
ROOT
ATOM      1  C   UNL     1       4.580   5.914  17.224  0.00  0.00    +0.000 A 
ATOM      2  N   UNL     1       4.771   7.135  16.612  0.00  0.00    +0.000 NA
ATOM      3  N   UNL     1       3.797   7.947  16.999  0.00  0.00    +0.000 NA
ATOM      4  N   UNL     1       3.090   7.328  17.975  0.00  0.00    +0.000 N 
ATOM      5  C   UNL     1       3.486   5.986  18.082  0.00  0.00    +0.000 A 
ENDROOT
BRANCH   5   6
ATOM      6  C   UNL     1       2.855   4.968  18.937  0.00  0.00    +0.000 A 
ATOM      7  C   UNL     1       1.673   4.314  18.543  0.00  0.00    +0.000 A 
ATOM      8  C   UNL     1       0.942   3.541  19.450  0.00  0.00    +0.000 A 
ATOM      9  C   UNL     1       1.444   3.331  20.724  0.00  0.00    +0.000 A 
ATOM     10  F   UNL     1       0.734   2.614  21.604  0.00  0.00    +0.000 F 
ATOM     11  C   UNL     1       2.668   3.866  21.101  0.00  0.00    +0.000 A 
ATOM     12  C   UNL     1       3.367   4.692  20.214  0.00  0.00    +0.000 A 
ENDBRANCH   5   6
BRANCH   4  13
ATOM     13  C   UNL     1       2.090   8.041  18.692  0.00  0.00    +0.000 A 
ATOM     14  C   UNL     1       1.904   7.778  20.059  0.00  0.00    +0.000 A 
ATOM     15  C   UNL     1       1.106   8.636  20.824  0.00  0.00    +0.000 A 
ATOM     16  C   UNL     1       0.487   9.734  20.216  0.00  0.00    +0.000 A 
ATOM     17  C   UNL     1       0.575   9.927  18.838  0.00  0.00    +0.000 A 
ATOM     18  C   UNL     1       1.359   9.064  18.074  0.00  0.00    +0.000 A 
BRANCH  16  19
ATOM     19  S   UNL     1      -0.433  10.889  21.190  0.00  0.00    +0.000 S 
ATOM     20  O   UNL     1      -1.432  11.525  20.365  0.00  0.00    +0.000 OA
ATOM     21  O   UNL     1      -0.745  10.282  22.463  0.00  0.00    +0.000 OA
BRANCH  19  22
ATOM     22  N   UNL     1       0.723  12.068  21.506  0.00  0.00    +0.000 NA
ATOM     23  H   UNL     1       0.288  12.856  21.986  0.00  0.00    +0.000 HD
ATOM     24  H   UNL     1       1.503  11.658  22.022  0.00  0.00    +0.000 HD
ENDBRANCH  19  22
ENDBRANCH  16  19
ENDBRANCH   4  13
BRANCH   1  26
ATOM     25  N   UNL     1       6.803   5.108  16.961  0.00  0.00    +0.000 N 
ATOM     26  C   UNL     1       5.443   4.783  16.918  0.00  0.00    +0.000 C 
ATOM     27  O   UNL     1       5.023   3.657  16.670  0.00  0.00    +0.000 OA
ATOM     28  H   UNL     1       7.061   6.040  17.286  0.00  0.00    +0.000 HD
BRANCH  25  29
ATOM     29  N   UNL     1       7.781   4.087  16.901  0.00  0.00    +0.000 NA
ATOM     30  H   UNL     1       7.700   3.483  17.719  0.00  0.00    +0.000 HD
ATOM     31  H   UNL     1       8.702   4.537  16.970  0.00  0.00    +0.000 HD
ENDBRANCH  25  29
ENDBRANCH   1  26
TORSDOF 6
ENDMDL
MODEL 7
REMARK VINA RESULT:      -8.1      3.317      4.392
REMARK  Name = 
REMARK  6 active torsions:
REMARK  status: ('A' for Active; 'I' for Inactive)
REMARK    1  A    between atoms: N_1  and  N_2
REMARK    2  A    between atoms: C_3  and  C_5
REMARK    3  A    between atoms: N_8  and  C_9
REMARK    4  A    between atoms: C_12  and  S_13
REMARK    5  A    between atoms: S_13  and  N_14
REMARK    6  A    between atoms: C_19  and  C_20
REMARK                            x       y       z     vdW  Elec       q    Type
REMARK                         _______ _______ _______ _____ _____    ______ ____
ROOT
ATOM      1  C   UNL     1       4.143   5.682  17.558  0.00  0.00    +0.000 A 
ATOM      2  N   UNL     1       4.452   6.840  16.875  0.00  0.00    +0.000 NA
ATOM      3  N   UNL     1       3.593   7.779  17.245  0.00  0.00    +0.000 NA
ATOM      4  N   UNL     1       2.856   7.298  18.275  0.00  0.00    +0.000 N 
ATOM      5  C   UNL     1       3.098   5.926  18.444  0.00  0.00    +0.000 A 
ENDROOT
BRANCH   5   6
ATOM      6  C   UNL     1       2.385   5.034  19.373  0.00  0.00    +0.000 A 
ATOM      7  C   UNL     1       2.733   4.972  20.736  0.00  0.00    +0.000 A 
ATOM      8  C   UNL     1       2.235   3.959  21.559  0.00  0.00    +0.000 A 
ATOM      9  C   UNL     1       1.306   3.064  21.051  0.00  0.00    +0.000 A 
ATOM     10  F   UNL     1       0.847   2.075  21.829  0.00  0.00    +0.000 F 
ATOM     11  C   UNL     1       0.855   3.176  19.744  0.00  0.00    +0.000 A 
ATOM     12  C   UNL     1       1.402   4.151  18.902  0.00  0.00    +0.000 A 
ENDBRANCH   5   6
BRANCH   4  13
ATOM     13  C   UNL     1       1.972   8.160  18.983  0.00  0.00    +0.000 A 
ATOM     14  C   UNL     1       1.769   7.959  20.357  0.00  0.00    +0.000 A 
ATOM     15  C   UNL     1       1.105   8.937  21.107  0.00  0.00    +0.000 A 
ATOM     16  C   UNL     1       0.636  10.095  20.476  0.00  0.00    +0.000 A 
ATOM     17  C   UNL     1       0.733  10.240  19.092  0.00  0.00    +0.000 A 
ATOM     18  C   UNL     1       1.381   9.258  18.344  0.00  0.00    +0.000 A 
BRANCH  16  19
ATOM     19  S   UNL     1      -0.104  11.388  21.428  0.00  0.00    +0.000 S 
ATOM     20  O   UNL     1       0.834  12.476  21.572  0.00  0.00    +0.000 OA
ATOM     21  O   UNL     1      -1.460  11.586  20.972  0.00  0.00    +0.000 OA
BRANCH  19  22
ATOM     22  N   UNL     1      -0.220  10.674  22.945  0.00  0.00    +0.000 NA
ATOM     23  H   UNL     1      -0.321   9.664  22.843  0.00  0.00    +0.000 HD
ATOM     24  H   UNL     1       0.580  10.948  23.518  0.00  0.00    +0.000 HD
ENDBRANCH  19  22
ENDBRANCH  16  19
ENDBRANCH   4  13
BRANCH   1  26
ATOM     25  N   UNL     1       5.226   4.309  15.945  0.00  0.00    +0.000 N 
ATOM     26  C   UNL     1       4.857   4.443  17.288  0.00  0.00    +0.000 C 
ATOM     27  O   UNL     1       5.128   3.614  18.151  0.00  0.00    +0.000 OA
ATOM     28  H   UNL     1       5.058   5.100  15.322  0.00  0.00    +0.000 HD
BRANCH  25  29
ATOM     29  N   UNL     1       6.107   3.275  15.549  0.00  0.00    +0.000 NA
ATOM     30  H   UNL     1       6.516   2.835  16.374  0.00  0.00    +0.000 HD
ATOM     31  H   UNL     1       6.888   3.712  15.044  0.00  0.00    +0.000 HD
ENDBRANCH  25  29
ENDBRANCH   1  26
TORSDOF 6
ENDMDL
MODEL 8
REMARK VINA RESULT:      -8.1      3.562      4.559
REMARK  Name = 
REMARK  6 active torsions:
REMARK  status: ('A' for Active; 'I' for Inactive)
REMARK    1  A    between atoms: N_1  and  N_2
REMARK    2  A    between atoms: C_3  and  C_5
REMARK    3  A    between atoms: N_8  and  C_9
REMARK    4  A    between atoms: C_12  and  S_13
REMARK    5  A    between atoms: S_13  and  N_14
REMARK    6  A    between atoms: C_19  and  C_20
REMARK                            x       y       z     vdW  Elec       q    Type
REMARK                         _______ _______ _______ _____ _____    ______ ____
ROOT
ATOM      1  C   UNL     1       5.031   5.347  16.016  0.00  0.00    +0.000 A 
ATOM      2  N   UNL     1       5.343   6.627  15.610  0.00  0.00    +0.000 NA
ATOM      3  N   UNL     1       4.574   7.472  16.282  0.00  0.00    +0.000 NA
ATOM      4  N   UNL     1       3.904   6.773  17.231  0.00  0.00    +0.000 N 
ATOM      5  C   UNL     1       4.083   5.395  17.033  0.00  0.00    +0.000 A 
ENDROOT
BRANCH   5   6
ATOM      6  C   UNL     1       3.406   4.324  17.781  0.00  0.00    +0.000 A 
ATOM      7  C   UNL     1       2.048   4.024  17.558  0.00  0.00    +0.000 A 
ATOM      8  C   UNL     1       1.345   3.189  18.431  0.00  0.00    +0.000 A 
ATOM      9  C   UNL     1       2.019   2.567  19.470  0.00  0.00    +0.000 A 
ATOM     10  F   UNL     1       1.342   1.789  20.324  0.00  0.00    +0.000 F 
ATOM     11  C   UNL     1       3.383   2.751  19.640  0.00  0.00    +0.000 A 
ATOM     12  C   UNL     1       4.074   3.637  18.806  0.00  0.00    +0.000 A 
ENDBRANCH   5   6
BRANCH   4  13
ATOM     13  C   UNL     1       3.136   7.460  18.212  0.00  0.00    +0.000 A 
ATOM     14  C   UNL     1       2.516   8.673  17.874  0.00  0.00    +0.000 A 
ATOM     15  C   UNL     1       1.567   9.228  18.741  0.00  0.00    +0.000 A 
ATOM     16  C   UNL     1       1.259   8.577  19.941  0.00  0.00    +0.000 A 
ATOM     17  C   UNL     1       1.960   7.435  20.331  0.00  0.00    +0.000 A 
ATOM     18  C   UNL     1       2.916   6.892  19.473  0.00  0.00    +0.000 A 
BRANCH  16  19
ATOM     19  S   UNL     1      -0.017   9.204  20.992  0.00  0.00    +0.000 S 
ATOM     20  O   UNL     1      -0.777  10.205  20.281  0.00  0.00    +0.000 OA
ATOM     21  O   UNL     1      -0.639   8.099  21.682  0.00  0.00    +0.000 OA
BRANCH  19  22
ATOM     22  N   UNL     1       0.872  10.037  22.151  0.00  0.00    +0.000 NA
ATOM     23  H   UNL     1       1.767   9.571  22.298  0.00  0.00    +0.000 HD
ATOM     24  H   UNL     1       0.964  11.017  21.877  0.00  0.00    +0.000 HD
ENDBRANCH  19  22
ENDBRANCH  16  19
ENDBRANCH   4  13
BRANCH   1  26
ATOM     25  N   UNL     1       5.519   4.202  13.988  0.00  0.00    +0.000 N 
ATOM     26  C   UNL     1       5.649   4.191  15.381  0.00  0.00    +0.000 C 
ATOM     27  O   UNL     1       6.240   3.312  16.000  0.00  0.00    +0.000 OA
ATOM     28  H   UNL     1       5.111   5.030  13.552  0.00  0.00    +0.000 HD
BRANCH  25  29
ATOM     29  N   UNL     1       6.240   3.275  13.199  0.00  0.00    +0.000 NA
ATOM     30  H   UNL     1       6.926   2.789  13.778  0.00  0.00    +0.000 HD
ATOM     31  H   UNL     1       6.779   3.810  12.508  0.00  0.00    +0.000 HD
ENDBRANCH  25  29
ENDBRANCH   1  26
TORSDOF 6
ENDMDL
MODEL 9
REMARK VINA RESULT:      -8.1      1.290      1.924
REMARK  Name = 
REMARK  6 active torsions:
REMARK  status: ('A' for Active; 'I' for Inactive)
REMARK    1  A    between atoms: N_1  and  N_2
REMARK    2  A    between atoms: C_3  and  C_5
REMARK    3  A    between atoms: N_8  and  C_9
REMARK    4  A    between atoms: C_12  and  S_13
REMARK    5  A    between atoms: S_13  and  N_14
REMARK    6  A    between atoms: C_19  and  C_20
REMARK                            x       y       z     vdW  Elec       q    Type
REMARK                         _______ _______ _______ _____ _____    ______ ____
ROOT
ATOM      1  C   UNL     1       3.366   3.545  20.106  0.00  0.00    +0.000 A 
ATOM      2  N   UNL     1       2.372   3.651  21.056  0.00  0.00    +0.000 NA
ATOM      3  N   UNL     1       1.928   4.899  21.051  0.00  0.00    +0.000 NA
ATOM      4  N   UNL     1       2.492   5.548  20.004  0.00  0.00    +0.000 N 
ATOM      5  C   UNL     1       3.500   4.755  19.431  0.00  0.00    +0.000 A 
ENDROOT
BRANCH   5   6
ATOM      6  C   UNL     1       4.419   5.174  18.361  0.00  0.00    +0.000 A 
ATOM      7  C   UNL     1       4.178   4.833  17.017  0.00  0.00    +0.000 A 
ATOM      8  C   UNL     1       5.164   5.010  16.043  0.00  0.00    +0.000 A 
ATOM      9  C   UNL     1       6.358   5.624  16.386  0.00  0.00    +0.000 A 
ATOM     10  F   UNL     1       7.316   5.770  15.462  0.00  0.00    +0.000 F 
ATOM     11  C   UNL     1       6.575   6.078  17.679  0.00  0.00    +0.000 A 
ATOM     12  C   UNL     1       5.613   5.843  18.668  0.00  0.00    +0.000 A 
ENDBRANCH   5   6
BRANCH   4  13
ATOM     13  C   UNL     1       2.058   6.857  19.659  0.00  0.00    +0.000 A 
ATOM     14  C   UNL     1       1.457   7.663  20.638  0.00  0.00    +0.000 A 
ATOM     15  C   UNL     1       1.252   9.024  20.382  0.00  0.00    +0.000 A 
ATOM     16  C   UNL     1       1.632   9.562  19.147  0.00  0.00    +0.000 A 
ATOM     17  C   UNL     1       2.120   8.739  18.133  0.00  0.00    +0.000 A 
ATOM     18  C   UNL     1       2.309   7.380  18.384  0.00  0.00    +0.000 A 
BRANCH  16  19
ATOM     19  S   UNL     1       1.484  11.299  18.850  0.00  0.00    +0.000 S 
ATOM     20  O   UNL     1       1.279  11.985  20.104  0.00  0.00    +0.000 OA
ATOM     21  O   UNL     1       2.495  11.699  17.900  0.00  0.00    +0.000 OA
BRANCH  19  22
ATOM     22  N   UNL     1       0.016  11.383  18.034  0.00  0.00    +0.000 NA
ATOM     23  H   UNL     1       0.146  11.099  17.063  0.00  0.00    +0.000 HD
ATOM     24  H   UNL     1      -0.687  10.831  18.529  0.00  0.00    +0.000 HD
ENDBRANCH  19  22
ENDBRANCH  16  19
ENDBRANCH   4  13
BRANCH   1  26
ATOM     25  N   UNL     1       3.720   1.576  18.819  0.00  0.00    +0.000 N 
ATOM     26  C   UNL     1       4.115   2.308  19.944  0.00  0.00    +0.000 C 
ATOM     27  O   UNL     1       5.014   1.955  20.700  0.00  0.00    +0.000 OA
ATOM     28  H   UNL     1       3.044   2.002  18.185  0.00  0.00    +0.000 HD
BRANCH  25  29
ATOM     29  N   UNL     1       4.482   0.463  18.390  0.00  0.00    +0.000 NA
ATOM     30  H   UNL     1       5.049   0.114  19.164  0.00  0.00    +0.000 HD
ATOM     31  H   UNL     1       5.145   0.797  17.681  0.00  0.00    +0.000 HD
ENDBRANCH  25  29
ENDBRANCH   1  26
TORSDOF 6
ENDMDL
