MODEL 1
REMARK VINA RESULT:      -6.9      0.000      0.000
REMARK  Name = 
REMARK  6 active torsions:
REMARK  status: ('A' for Active; 'I' for Inactive)
REMARK    1  A    between atoms: C_1  and  C_2
REMARK    2  A    between atoms: C_2  and  N_3
REMARK    3  A    between atoms: C_4  and  C_5
REMARK    4  A    between atoms: C_5  and  C_6
REMARK    5  A    between atoms: N_15  and  C_16
REMARK    6  A    between atoms: C_16  and  C_17
REMARK                            x       y       z     vdW  Elec       q    Type
REMARK                         _______ _______ _______ _____ _____    ______ ____
ROOT
ATOM      1  C   UNL     1       4.104   3.959  17.181  0.00  0.00    +0.000 C 
ENDROOT
BRANCH   1   2
ATOM      2  C   UNL     1       3.296   4.509  18.367  0.00  0.00    +0.000 A 
ATOM      3  C   UNL     1       3.049   5.892  18.650  0.00  0.00    +0.000 A 
ATOM      4 CL   UNL     1       3.582   7.244  17.657  0.00  0.00    +0.000 Cl
ATOM      5  C   UNL     1       2.311   6.257  19.780  0.00  0.00    +0.000 A 
ATOM      6  C   UNL     1       1.788   5.298  20.637  0.00  0.00    +0.000 A 
ATOM      7  C   UNL     1       1.989   3.946  20.383  0.00  0.00    +0.000 A 
ATOM      8 CL   UNL     1       1.280   2.775  21.486  0.00  0.00    +0.000 Cl
ATOM      9  C   UNL     1       2.737   3.545  19.258  0.00  0.00    +0.000 A 
ATOM     10 CL   UNL     1       2.958   1.811  18.976  0.00  0.00    +0.000 Cl
ENDBRANCH   1   2
BRANCH   1  12
ATOM     11  N   UNL     1       6.253   4.438  18.169  0.00  0.00    +0.000 NA
ATOM     12  C   UNL     1       5.593   4.240  17.070  0.00  0.00    +0.000 C 
ATOM     13  N   UNL     1       6.243   4.370  15.798  0.00  0.00    +0.000 N 
ATOM     14  H   UNL     1       7.272   4.365  15.762  0.00  0.00    +0.000 HD
BRANCH  11  16
ATOM     15  C   UNL     1       7.795   6.266  18.661  0.00  0.00    +0.000 C 
ATOM     16  C   UNL     1       7.651   4.813  18.234  0.00  0.00    +0.000 C 
ENDBRANCH  11  16
BRANCH  13  17
ATOM     17  C   UNL     1       5.522   4.552  14.554  0.00  0.00    +0.000 C 
ATOM     18  C   UNL     1       6.224   3.802  13.423  0.00  0.00    +0.000 C 
ENDBRANCH  13  17
ENDBRANCH   1  12
TORSDOF 4
ENDMDL
MODEL 2
REMARK VINA RESULT:      -6.6      1.238      3.067
REMARK  Name = 
REMARK  6 active torsions:
REMARK  status: ('A' for Active; 'I' for Inactive)
REMARK    1  A    between atoms: C_1  and  C_2
REMARK    2  A    between atoms: C_2  and  N_3
REMARK    3  A    between atoms: C_4  and  C_5
REMARK    4  A    between atoms: C_5  and  C_6
REMARK    5  A    between atoms: N_15  and  C_16
REMARK    6  A    between atoms: C_16  and  C_17
REMARK                            x       y       z     vdW  Elec       q    Type
REMARK                         _______ _______ _______ _____ _____    ______ ____
ROOT
ATOM      1  C   UNL     1       4.932   3.675  16.887  0.00  0.00    +0.000 C 
ENDROOT
BRANCH   1   2
ATOM      2  C   UNL     1       4.082   4.714  17.635  0.00  0.00    +0.000 A 
ATOM      3  C   UNL     1       4.014   6.116  17.345  0.00  0.00    +0.000 A 
ATOM      4 CL   UNL     1       4.859   6.923  16.029  0.00  0.00    +0.000 Cl
ATOM      5  C   UNL     1       3.212   6.957  18.122  0.00  0.00    +0.000 A 
ATOM      6  C   UNL     1       2.452   6.456  19.171  0.00  0.00    +0.000 A 
ATOM      7  C   UNL     1       2.475   5.099  19.469  0.00  0.00    +0.000 A 
ATOM      8 CL   UNL     1       1.472   4.516  20.790  0.00  0.00    +0.000 Cl
ATOM      9  C   UNL     1       3.282   4.226  18.711  0.00  0.00    +0.000 A 
ATOM     10 CL   UNL     1       3.270   2.505  19.127  0.00  0.00    +0.000 Cl
ENDBRANCH   1   2
BRANCH   1  12
ATOM     11  N   UNL     1       5.776   3.924  14.640  0.00  0.00    +0.000 NA
ATOM     12  C   UNL     1       5.999   4.122  15.902  0.00  0.00    +0.000 C 
ATOM     13  N   UNL     1       7.250   4.667  16.342  0.00  0.00    +0.000 N 
ATOM     14  H   UNL     1       7.860   5.134  15.655  0.00  0.00    +0.000 HD
BRANCH  11  16
ATOM     15  C   UNL     1       6.337   3.464  12.308  0.00  0.00    +0.000 C 
ATOM     16  C   UNL     1       6.726   4.201  13.582  0.00  0.00    +0.000 C 
ENDBRANCH  11  16
BRANCH  13  17
ATOM     17  C   UNL     1       7.727   4.558  17.707  0.00  0.00    +0.000 C 
ATOM     18  C   UNL     1       7.623   5.910  18.411  0.00  0.00    +0.000 C 
ENDBRANCH  13  17
ENDBRANCH   1  12
TORSDOF 4
ENDMDL
MODEL 3
REMARK VINA RESULT:      -6.6      1.161      1.243
REMARK  Name = 
REMARK  6 active torsions:
REMARK  status: ('A' for Active; 'I' for Inactive)
REMARK    1  A    between atoms: C_1  and  C_2
REMARK    2  A    between atoms: C_2  and  N_3
REMARK    3  A    between atoms: C_4  and  C_5
REMARK    4  A    between atoms: C_5  and  C_6
REMARK    5  A    between atoms: N_15  and  C_16
REMARK    6  A    between atoms: C_16  and  C_17
REMARK                            x       y       z     vdW  Elec       q    Type
REMARK                         _______ _______ _______ _____ _____    ______ ____
ROOT
ATOM      1  C   UNL     1       4.196   5.229  17.135  0.00  0.00    +0.000 C 
ENDROOT
BRANCH   1   2
ATOM      2  C   UNL     1       3.362   5.383  18.416  0.00  0.00    +0.000 A 
ATOM      3  C   UNL     1       2.692   6.574  18.849  0.00  0.00    +0.000 A 
ATOM      4 CL   UNL     1       2.647   8.094  17.963  0.00  0.00    +0.000 Cl
ATOM      5  C   UNL     1       1.981   6.582  20.053  0.00  0.00    +0.000 A 
ATOM      6  C   UNL     1       1.891   5.444  20.842  0.00  0.00    +0.000 A 
ATOM      7  C   UNL     1       2.510   4.264  20.444  0.00  0.00    +0.000 A 
ATOM      8 CL   UNL     1       2.339   2.845  21.468  0.00  0.00    +0.000 Cl
ATOM      9  C   UNL     1       3.243   4.225  19.241  0.00  0.00    +0.000 A 
ATOM     10 CL   UNL     1       4.006   2.696  18.777  0.00  0.00    +0.000 Cl
ENDBRANCH   1   2
BRANCH   1  12
ATOM     11  N   UNL     1       6.184   6.394  17.850  0.00  0.00    +0.000 NA
ATOM     12  C   UNL     1       5.706   5.394  17.177  0.00  0.00    +0.000 C 
ATOM     13  N   UNL     1       6.579   4.532  16.435  0.00  0.00    +0.000 N 
ATOM     14  H   UNL     1       7.588   4.550  16.639  0.00  0.00    +0.000 HD
BRANCH  11  16
ATOM     15  C   UNL     1       7.775   8.233  17.628  0.00  0.00    +0.000 C 
ATOM     16  C   UNL     1       7.588   6.749  17.910  0.00  0.00    +0.000 C 
ENDBRANCH  11  16
BRANCH  13  17
ATOM     17  C   UNL     1       6.118   3.661  15.372  0.00  0.00    +0.000 C 
ATOM     18  C   UNL     1       6.438   4.275  14.010  0.00  0.00    +0.000 C 
ENDBRANCH  13  17
ENDBRANCH   1  12
TORSDOF 4
ENDMDL
MODEL 4
REMARK VINA RESULT:      -6.5      1.223      2.560
REMARK  Name = 
REMARK  6 active torsions:
REMARK  status: ('A' for Active; 'I' for Inactive)
REMARK    1  A    between atoms: C_1  and  C_2
REMARK    2  A    between atoms: C_2  and  N_3
REMARK    3  A    between atoms: C_4  and  C_5
REMARK    4  A    between atoms: C_5  and  C_6
REMARK    5  A    between atoms: N_15  and  C_16
REMARK    6  A    between atoms: C_16  and  C_17
REMARK                            x       y       z     vdW  Elec       q    Type
REMARK                         _______ _______ _______ _____ _____    ______ ____
ROOT
ATOM      1  C   UNL     1       4.090   4.553  17.242  0.00  0.00    +0.000 C 
ENDROOT
BRANCH   1   2
ATOM      2  C   UNL     1       3.195   4.372  18.477  0.00  0.00    +0.000 A 
ATOM      3  C   UNL     1       2.839   3.124  19.086  0.00  0.00    +0.000 A 
ATOM      4 CL   UNL     1       3.406   1.542  18.567  0.00  0.00    +0.000 Cl
ATOM      5  C   UNL     1       1.994   3.101  20.201  0.00  0.00    +0.000 A 
ATOM      6  C   UNL     1       1.500   4.276  20.751  0.00  0.00    +0.000 A 
ATOM      7  C   UNL     1       1.841   5.506  20.201  0.00  0.00    +0.000 A 
ATOM      8 CL   UNL     1       1.208   6.963  20.957  0.00  0.00    +0.000 Cl
ATOM      9  C   UNL     1       2.681   5.564  19.071  0.00  0.00    +0.000 A 
ATOM     10 CL   UNL     1       3.090   7.156  18.413  0.00  0.00    +0.000 Cl
ENDBRANCH   1   2
BRANCH   1  12
ATOM     11  N   UNL     1       6.081   5.224  18.429  0.00  0.00    +0.000 NA
ATOM     12  C   UNL     1       5.601   4.611  17.391  0.00  0.00    +0.000 C 
ATOM     13  N   UNL     1       6.479   4.085  16.387  0.00  0.00    +0.000 N 
ATOM     14  H   UNL     1       7.477   3.968  16.610  0.00  0.00    +0.000 HD
BRANCH  11  16
ATOM     15  C   UNL     1       7.872   6.879  18.295  0.00  0.00    +0.000 C 
ATOM     16  C   UNL     1       7.491   5.453  18.670  0.00  0.00    +0.000 C 
ENDBRANCH  11  16
BRANCH  13  17
ATOM     17  C   UNL     1       6.039   3.748  15.048  0.00  0.00    +0.000 C 
ATOM     18  C   UNL     1       6.733   4.644  14.023  0.00  0.00    +0.000 C 
ENDBRANCH  13  17
ENDBRANCH   1  12
TORSDOF 4
ENDMDL
MODEL 5
REMARK VINA RESULT:      -6.4      1.173      2.851
REMARK  Name = 
REMARK  6 active torsions:
REMARK  status: ('A' for Active; 'I' for Inactive)
REMARK    1  A    between atoms: C_1  and  C_2
REMARK    2  A    between atoms: C_2  and  N_3
REMARK    3  A    between atoms: C_4  and  C_5
REMARK    4  A    between atoms: C_5  and  C_6
REMARK    5  A    between atoms: N_15  and  C_16
REMARK    6  A    between atoms: C_16  and  C_17
REMARK                            x       y       z     vdW  Elec       q    Type
REMARK                         _______ _______ _______ _____ _____    ______ ____
ROOT
ATOM      1  C   UNL     1       4.567   3.969  18.078  0.00  0.00    +0.000 C 
ENDROOT
BRANCH   1   2
ATOM      2  C   UNL     1       3.568   4.711  18.978  0.00  0.00    +0.000 A 
ATOM      3  C   UNL     1       2.928   4.180  20.145  0.00  0.00    +0.000 A 
ATOM      4 CL   UNL     1       3.202   2.575  20.813  0.00  0.00    +0.000 Cl
ATOM      5  C   UNL     1       2.019   4.961  20.866  0.00  0.00    +0.000 A 
ATOM      6  C   UNL     1       1.732   6.265  20.484  0.00  0.00    +0.000 A 
ATOM      7  C   UNL     1       2.351   6.822  19.370  0.00  0.00    +0.000 A 
ATOM      8 CL   UNL     1       1.971   8.486  18.950  0.00  0.00    +0.000 Cl
ATOM      9  C   UNL     1       3.264   6.057  18.616  0.00  0.00    +0.000 A 
ATOM     10 CL   UNL     1       4.028   6.816  17.211  0.00  0.00    +0.000 Cl
ENDBRANCH   1   2
BRANCH   1  12
ATOM     11  N   UNL     1       6.500   5.033  19.054  0.00  0.00    +0.000 NA
ATOM     12  C   UNL     1       6.024   4.400  18.027  0.00  0.00    +0.000 C 
ATOM     13  N   UNL     1       6.830   4.198  16.859  0.00  0.00    +0.000 N 
ATOM     14  H   UNL     1       7.850   4.322  16.930  0.00  0.00    +0.000 HD
BRANCH  11  16
ATOM     15  C   UNL     1       7.885   6.941  18.418  0.00  0.00    +0.000 C 
ATOM     16  C   UNL     1       7.833   5.596  19.128  0.00  0.00    +0.000 C 
ENDBRANCH  11  16
BRANCH  13  17
ATOM     17  C   UNL     1       6.277   3.865  15.562  0.00  0.00    +0.000 C 
ATOM     18  C   UNL     1       6.828   4.810  14.495  0.00  0.00    +0.000 C 
ENDBRANCH  13  17
ENDBRANCH   1  12
TORSDOF 4
ENDMDL
MODEL 6
REMARK VINA RESULT:      -6.3      1.314      2.866
REMARK  Name = 
REMARK  6 active torsions:
REMARK  status: ('A' for Active; 'I' for Inactive)
REMARK    1  A    between atoms: C_1  and  C_2
REMARK    2  A    between atoms: C_2  and  N_3
REMARK    3  A    between atoms: C_4  and  C_5
REMARK    4  A    between atoms: C_5  and  C_6
REMARK    5  A    between atoms: N_15  and  C_16
REMARK    6  A    between atoms: C_16  and  C_17
REMARK                            x       y       z     vdW  Elec       q    Type
REMARK                         _______ _______ _______ _____ _____    ______ ____
ROOT
ATOM      1  C   UNL     1       5.896   4.611  18.547  0.00  0.00    +0.000 C 
ENDROOT
BRANCH   1   2
ATOM      2  C   UNL     1       4.384   4.738  18.793  0.00  0.00    +0.000 A 
ATOM      3  C   UNL     1       3.545   5.813  18.354  0.00  0.00    +0.000 A 
ATOM      4 CL   UNL     1       4.074   7.187  17.390  0.00  0.00    +0.000 Cl
ATOM      5  C   UNL     1       2.182   5.814  18.666  0.00  0.00    +0.000 A 
ATOM      6  C   UNL     1       1.610   4.773  19.385  0.00  0.00    +0.000 A 
ATOM      7  C   UNL     1       2.388   3.703  19.810  0.00  0.00    +0.000 A 
ATOM      8 CL   UNL     1       1.605   2.400  20.693  0.00  0.00    +0.000 Cl
ATOM      9  C   UNL     1       3.767   3.677  19.521  0.00  0.00    +0.000 A 
ATOM     10 CL   UNL     1       4.712   2.287  20.079  0.00  0.00    +0.000 Cl
ENDBRANCH   1   2
BRANCH   1  12
ATOM     11  N   UNL     1       6.300   4.142  16.215  0.00  0.00    +0.000 NA
ATOM     12  C   UNL     1       6.486   4.972  17.194  0.00  0.00    +0.000 C 
ATOM     13  N   UNL     1       7.294   6.142  17.012  0.00  0.00    +0.000 N 
ATOM     14  H   UNL     1       7.510   6.454  16.054  0.00  0.00    +0.000 HD
BRANCH  11  16
ATOM     15  C   UNL     1       5.824   4.029  13.823  0.00  0.00    +0.000 C 
ATOM     16  C   UNL     1       6.875   4.286  14.893  0.00  0.00    +0.000 C 
ENDBRANCH  11  16
BRANCH  13  17
ATOM     17  C   UNL     1       7.863   6.892  18.113  0.00  0.00    +0.000 C 
ATOM     18  C   UNL     1       7.933   8.377  17.760  0.00  0.00    +0.000 C 
ENDBRANCH  13  17
ENDBRANCH   1  12
TORSDOF 4
ENDMDL
MODEL 7
REMARK VINA RESULT:      -6.3      1.164      1.320
REMARK  Name = 
REMARK  6 active torsions:
REMARK  status: ('A' for Active; 'I' for Inactive)
REMARK    1  A    between atoms: C_1  and  C_2
REMARK    2  A    between atoms: C_2  and  N_3
REMARK    3  A    between atoms: C_4  and  C_5
REMARK    4  A    between atoms: C_5  and  C_6
REMARK    5  A    between atoms: N_15  and  C_16
REMARK    6  A    between atoms: C_16  and  C_17
REMARK                            x       y       z     vdW  Elec       q    Type
REMARK                         _______ _______ _______ _____ _____    ______ ____
ROOT
ATOM      1  C   UNL     1       5.389   4.038  18.033  0.00  0.00    +0.000 C 
ENDROOT
BRANCH   1   2
ATOM      2  C   UNL     1       4.189   4.613  18.801  0.00  0.00    +0.000 A 
ATOM      3  C   UNL     1       3.591   5.899  18.591  0.00  0.00    +0.000 A 
ATOM      4 CL   UNL     1       4.084   7.062  17.366  0.00  0.00    +0.000 Cl
ATOM      5  C   UNL     1       2.510   6.308  19.379  0.00  0.00    +0.000 A 
ATOM      6  C   UNL     1       1.982   5.480  20.360  0.00  0.00    +0.000 A 
ATOM      7  C   UNL     1       2.522   4.217  20.577  0.00  0.00    +0.000 A 
ATOM      8 CL   UNL     1       1.795   3.200  21.814  0.00  0.00    +0.000 Cl
ATOM      9  C   UNL     1       3.618   3.779  19.808  0.00  0.00    +0.000 A 
ATOM     10 CL   UNL     1       4.264   2.160  20.120  0.00  0.00    +0.000 Cl
ENDBRANCH   1   2
BRANCH   1  12
ATOM     11  N   UNL     1       6.929   5.763  18.720  0.00  0.00    +0.000 NA
ATOM     12  C   UNL     1       6.637   4.877  17.819  0.00  0.00    +0.000 C 
ATOM     13  N   UNL     1       7.428   4.763  16.628  0.00  0.00    +0.000 N 
ATOM     14  H   UNL     1       8.361   5.198  16.606  0.00  0.00    +0.000 HD
BRANCH  11  16
ATOM     15  C   UNL     1       7.688   7.814  17.635  0.00  0.00    +0.000 C 
ATOM     16  C   UNL     1       8.024   6.707  18.623  0.00  0.00    +0.000 C 
ENDBRANCH  11  16
BRANCH  13  17
ATOM     17  C   UNL     1       6.962   4.098  15.428  0.00  0.00    +0.000 C 
ATOM     18  C   UNL     1       6.831   5.103  14.285  0.00  0.00    +0.000 C 
ENDBRANCH  13  17
ENDBRANCH   1  12
TORSDOF 4
ENDMDL
MODEL 8
REMARK VINA RESULT:      -6.3      1.457      2.752
REMARK  Name = 
REMARK  6 active torsions:
REMARK  status: ('A' for Active; 'I' for Inactive)
REMARK    1  A    between atoms: C_1  and  C_2
REMARK    2  A    between atoms: C_2  and  N_3
REMARK    3  A    between atoms: C_4  and  C_5
REMARK    4  A    between atoms: C_5  and  C_6
REMARK    5  A    between atoms: N_15  and  C_16
REMARK    6  A    between atoms: C_16  and  C_17
REMARK                            x       y       z     vdW  Elec       q    Type
REMARK                         _______ _______ _______ _____ _____    ______ ____
ROOT
ATOM      1  C   UNL     1       4.012   5.342  17.081  0.00  0.00    +0.000 C 
ENDROOT
BRANCH   1   2
ATOM      2  C   UNL     1       3.309   5.157  18.434  0.00  0.00    +0.000 A 
ATOM      3  C   UNL     1       3.224   3.937  19.182  0.00  0.00    +0.000 A 
ATOM      4 CL   UNL     1       3.961   2.408  18.717  0.00  0.00    +0.000 Cl
ATOM      5  C   UNL     1       2.534   3.903  20.397  0.00  0.00    +0.000 A 
ATOM      6  C   UNL     1       1.935   5.044  20.914  0.00  0.00    +0.000 A 
ATOM      7  C   UNL     1       2.014   6.251  20.229  0.00  0.00    +0.000 A 
ATOM      8 CL   UNL     1       1.262   7.669  20.945  0.00  0.00    +0.000 Cl
ATOM      9  C   UNL     1       2.695   6.316  18.996  0.00  0.00    +0.000 A 
ATOM     10 CL   UNL     1       2.772   7.878  18.166  0.00  0.00    +0.000 Cl
ENDBRANCH   1   2
BRANCH   1  12
ATOM     11  N   UNL     1       5.966   6.693  17.503  0.00  0.00    +0.000 NA
ATOM     12  C   UNL     1       5.512   5.578  17.020  0.00  0.00    +0.000 C 
ATOM     13  N   UNL     1       6.396   4.650  16.378  0.00  0.00    +0.000 N 
ATOM     14  H   UNL     1       7.410   4.744  16.526  0.00  0.00    +0.000 HD
BRANCH  11  16
ATOM     15  C   UNL     1       8.090   6.723  18.708  0.00  0.00    +0.000 C 
ATOM     16  C   UNL     1       7.350   7.115  17.437  0.00  0.00    +0.000 C 
ENDBRANCH  11  16
BRANCH  13  17
ATOM     17  C   UNL     1       5.936   3.602  15.489  0.00  0.00    +0.000 C 
ATOM     18  C   UNL     1       5.982   4.081  14.039  0.00  0.00    +0.000 C 
ENDBRANCH  13  17
ENDBRANCH   1  12
TORSDOF 4
ENDMDL
MODEL 9
REMARK VINA RESULT:      -6.0      2.645      5.618
REMARK  Name = 
REMARK  6 active torsions:
REMARK  status: ('A' for Active; 'I' for Inactive)
REMARK    1  A    between atoms: C_1  and  C_2
REMARK    2  A    between atoms: C_2  and  N_3
REMARK    3  A    between atoms: C_4  and  C_5
REMARK    4  A    between atoms: C_5  and  C_6
REMARK    5  A    between atoms: N_15  and  C_16
REMARK    6  A    between atoms: C_16  and  C_17
REMARK                            x       y       z     vdW  Elec       q    Type
REMARK                         _______ _______ _______ _____ _____    ______ ____
ROOT
ATOM      1  C   UNL     1       4.398   4.379  19.420  0.00  0.00    +0.000 C 
ENDROOT
BRANCH   1   2
ATOM      2  C   UNL     1       5.376   4.608  18.257  0.00  0.00    +0.000 A 
ATOM      3  C   UNL     1       6.695   5.160  18.360  0.00  0.00    +0.000 A 
ATOM      4 CL   UNL     1       7.481   5.641  19.859  0.00  0.00    +0.000 Cl
ATOM      5  C   UNL     1       7.475   5.333  17.213  0.00  0.00    +0.000 A 
ATOM      6  C   UNL     1       7.005   4.960  15.961  0.00  0.00    +0.000 A 
ATOM      7  C   UNL     1       5.739   4.401  15.825  0.00  0.00    +0.000 A 
ATOM      8 CL   UNL     1       5.207   3.921  14.220  0.00  0.00    +0.000 Cl
ATOM      9  C   UNL     1       4.923   4.223  16.960  0.00  0.00    +0.000 A 
ATOM     10 CL   UNL     1       3.323   3.500  16.733  0.00  0.00    +0.000 Cl
ENDBRANCH   1   2
BRANCH   1  12
ATOM     11  N   UNL     1       3.274   6.483  19.054  0.00  0.00    +0.000 NA
ATOM     12  C   UNL     1       3.229   5.325  19.637  0.00  0.00    +0.000 C 
ATOM     13  N   UNL     1       2.147   4.997  20.520  0.00  0.00    +0.000 N 
ATOM     14  H   UNL     1       1.290   5.567  20.490  0.00  0.00    +0.000 HD
BRANCH  11  16
ATOM     15  C   UNL     1       2.110   8.320  17.943  0.00  0.00    +0.000 C 
ATOM     16  C   UNL     1       2.293   7.534  19.233  0.00  0.00    +0.000 C 
ENDBRANCH  11  16
BRANCH  13  17
ATOM     17  C   UNL     1       2.214   3.922  21.489  0.00  0.00    +0.000 C 
ATOM     18  C   UNL     1       1.300   2.773  21.066  0.00  0.00    +0.000 C 
ENDBRANCH  13  17
ENDBRANCH   1  12
TORSDOF 4
ENDMDL
