MODEL 1
REMARK VINA RESULT:      -9.6      0.000      0.000
REMARK  Name = 
REMARK  4 active torsions:
REMARK  status: ('A' for Active; 'I' for Inactive)
REMARK    1  A    between atoms: C_2  and  C_4
REMARK    2  A    between atoms: C_8  and  C_9
REMARK    3  A    between atoms: N_12  and  C_13
REMARK    4  A    between atoms: N_23  and  C_24
REMARK                            x       y       z     vdW  Elec       q    Type
REMARK                         _______ _______ _______ _____ _____    ______ ____
ROOT
ATOM      1  C   UNL     1       4.035   6.716  18.117  0.00  0.00    +0.000 A 
ATOM      2  N   UNL     1       3.815   5.878  19.130  0.00  0.00    +0.000 NA
ATOM      3  C   UNL     1       2.801   6.185  19.923  0.00  0.00    +0.000 A 
ATOM      4  N   UNL     1       2.482   5.334  20.971  0.00  0.00    +0.000 N 
ATOM      5  N   UNL     1       2.047   7.274  19.765  0.00  0.00    +0.000 NA
ATOM      6  C   UNL     1       2.339   8.061  18.725  0.00  0.00    +0.000 A 
ATOM      7  N   UNL     1       1.595   9.196  18.433  0.00  0.00    +0.000 N 
ATOM      8  N   UNL     1       3.313   7.810  17.865  0.00  0.00    +0.000 NA
ATOM      9  H   UNL     1       1.587   5.568  21.376  0.00  0.00    +0.000 HD
ATOM     10  H   UNL     1       2.099   9.748  17.742  0.00  0.00    +0.000 HD
ENDROOT
BRANCH   4  11
ATOM     11  C   UNL     1       2.935   3.944  20.923  0.00  0.00    +0.000 C 
ATOM     12  C   UNL     1       3.314   3.497  19.501  0.00  0.00    +0.000 C 
ATOM     13  C   UNL     1       2.114   3.252  18.588  0.00  0.00    +0.000 C 
ATOM     14  C   UNL     1       1.112   2.306  19.220  0.00  0.00    +0.000 C 
ATOM     15  F   UNL     1       1.659   1.065  19.297  0.00  0.00    +0.000 F 
ATOM     16  F   UNL     1       0.024   2.198  18.418  0.00  0.00    +0.000 F 
ATOM     17  C   UNL     1       0.676   2.744  20.605  0.00  0.00    +0.000 C 
ATOM     18  C   UNL     1       1.868   3.010  21.525  0.00  0.00    +0.000 C 
ENDBRANCH   4  11
BRANCH   7  19
ATOM     19  C   UNL     1       0.878   9.900  19.488  0.00  0.00    +0.000 C 
ATOM     20  C   UNL     1      -0.635   9.868  19.194  0.00  0.00    +0.000 C 
ATOM     21  C   UNL     1      -1.102  10.859  18.128  0.00  0.00    +0.000 C 
ATOM     22  C   UNL     1      -0.597  12.263  18.401  0.00  0.00    +0.000 C 
ATOM     23  F   UNL     1      -1.204  12.744  19.517  0.00  0.00    +0.000 F 
ATOM     24  F   UNL     1      -0.957  13.081  17.382  0.00  0.00    +0.000 F 
ATOM     25  C   UNL     1       0.907  12.318  18.588  0.00  0.00    +0.000 C 
ATOM     26  C   UNL     1       1.393  11.339  19.658  0.00  0.00    +0.000 C 
ENDBRANCH   7  19
BRANCH   1  31
ATOM     27  C   UNL     1       5.988   5.174  15.400  0.00  0.00    +0.000 A 
ATOM     28  C   UNL     1       7.208   5.823  15.535  0.00  0.00    +0.000 A 
ATOM     29  N   UNL     1       7.435   6.758  16.485  0.00  0.00    +0.000 NA
ATOM     30  C   UNL     1       6.387   7.020  17.309  0.00  0.00    +0.000 A 
ATOM     31  C   UNL     1       5.145   6.400  17.195  0.00  0.00    +0.000 A 
ATOM     32  N   UNL     1       4.935   5.464  16.219  0.00  0.00    +0.000 NA
BRANCH  27  34
ATOM     33  F   UNL     1       4.701   4.194  13.639  0.00  0.00    +0.000 F 
ATOM     34  C   UNL     1       5.854   4.093  14.361  0.00  0.00    +0.000 C 
ATOM     35  F   UNL     1       6.861   4.133  13.440  0.00  0.00    +0.000 F 
ENDBRANCH  27  34
ENDBRANCH   1  31
TORSDOF 4
ENDMDL
MODEL 2
REMARK VINA RESULT:      -9.1      3.484      9.507
REMARK  Name = 
REMARK  4 active torsions:
REMARK  status: ('A' for Active; 'I' for Inactive)
REMARK    1  A    between atoms: C_2  and  C_4
REMARK    2  A    between atoms: C_8  and  C_9
REMARK    3  A    between atoms: N_12  and  C_13
REMARK    4  A    between atoms: N_23  and  C_24
REMARK                            x       y       z     vdW  Elec       q    Type
REMARK                         _______ _______ _______ _____ _____    ______ ____
ROOT
ATOM      1  C   UNL     1      -0.687  10.524  17.986  0.00  0.00    +0.000 A 
ATOM      2  N   UNL     1      -0.247  11.445  18.844  0.00  0.00    +0.000 NA
ATOM      3  C   UNL     1       0.955  11.230  19.355  0.00  0.00    +0.000 A 
ATOM      4  N   UNL     1       1.498  12.169  20.219  0.00  0.00    +0.000 N 
ATOM      5  N   UNL     1       1.690  10.153  19.076  0.00  0.00    +0.000 NA
ATOM      6  C   UNL     1       1.172   9.279  18.208  0.00  0.00    +0.000 A 
ATOM      7  N   UNL     1       1.864   8.146  17.806  0.00  0.00    +0.000 N 
ATOM      8  N   UNL     1      -0.007   9.435  17.625  0.00  0.00    +0.000 NA
ATOM      9  H   UNL     1       2.479  11.992  20.384  0.00  0.00    +0.000 HD
ATOM     10  H   UNL     1       1.223   7.528  17.314  0.00  0.00    +0.000 HD
ENDROOT
BRANCH   4  11
ATOM     11  C   UNL     1       0.984  13.538  20.199  0.00  0.00    +0.000 C 
ATOM     12  C   UNL     1       1.487  14.338  18.986  0.00  0.00    +0.000 C 
ATOM     13  C   UNL     1       2.948  14.773  19.093  0.00  0.00    +0.000 C 
ATOM     14  C   UNL     1       3.222  15.502  20.394  0.00  0.00    +0.000 C 
ATOM     15  F   UNL     1       2.578  16.698  20.377  0.00  0.00    +0.000 F 
ATOM     16  F   UNL     1       4.546  15.779  20.486  0.00  0.00    +0.000 F 
ATOM     17  C   UNL     1       2.784  14.718  21.616  0.00  0.00    +0.000 C 
ATOM     18  C   UNL     1       1.329  14.261  21.514  0.00  0.00    +0.000 C 
ENDBRANCH   4  11
BRANCH   7  19
ATOM     19  C   UNL     1       2.868   7.547  18.676  0.00  0.00    +0.000 C 
ATOM     20  C   UNL     1       4.131   7.214  17.855  0.00  0.00    +0.000 C 
ATOM     21  C   UNL     1       4.025   5.950  17.001  0.00  0.00    +0.000 C 
ATOM     22  C   UNL     1       3.530   4.764  17.806  0.00  0.00    +0.000 C 
ATOM     23  F   UNL     1       4.481   4.413  18.711  0.00  0.00    +0.000 F 
ATOM     24  F   UNL     1       3.364   3.697  16.986  0.00  0.00    +0.000 F 
ATOM     25  C   UNL     1       2.230   5.051  18.534  0.00  0.00    +0.000 C 
ATOM     26  C   UNL     1       2.320   6.307  19.401  0.00  0.00    +0.000 C 
ENDBRANCH   7  19
BRANCH   1  31
ATOM     27  C   UNL     1      -3.428  10.605  15.525  0.00  0.00    +0.000 A 
ATOM     28  C   UNL     1      -4.455  11.162  16.275  0.00  0.00    +0.000 A 
ATOM     29  N   UNL     1      -4.301  11.520  17.569  0.00  0.00    +0.000 NA
ATOM     30  C   UNL     1      -3.065  11.306  18.091  0.00  0.00    +0.000 A 
ATOM     31  C   UNL     1      -2.015  10.737  17.375  0.00  0.00    +0.000 A 
ATOM     32  N   UNL     1      -2.198  10.371  16.069  0.00  0.00    +0.000 NA
BRANCH  27  34
ATOM     33  F   UNL     1      -2.607   9.707  13.466  0.00  0.00    +0.000 F 
ATOM     34  C   UNL     1      -3.673  10.308  14.070  0.00  0.00    +0.000 C 
ATOM     35  F   UNL     1      -4.721   9.453  13.886  0.00  0.00    +0.000 F 
ENDBRANCH  27  34
ENDBRANCH   1  31
TORSDOF 4
ENDMDL
MODEL 3
REMARK VINA RESULT:      -8.8      3.504     10.201
REMARK  Name = 
REMARK  4 active torsions:
REMARK  status: ('A' for Active; 'I' for Inactive)
REMARK    1  A    between atoms: C_2  and  C_4
REMARK    2  A    between atoms: C_8  and  C_9
REMARK    3  A    between atoms: N_12  and  C_13
REMARK    4  A    between atoms: N_23  and  C_24
REMARK                            x       y       z     vdW  Elec       q    Type
REMARK                         _______ _______ _______ _____ _____    ______ ____
ROOT
ATOM      1  C   UNL     1      -0.755  10.944  18.142  0.00  0.00    +0.000 A 
ATOM      2  N   UNL     1      -0.012  11.954  18.595  0.00  0.00    +0.000 NA
ATOM      3  C   UNL     1       1.262  11.678  18.821  0.00  0.00    +0.000 A 
ATOM      4  N   UNL     1       2.107  12.691  19.250  0.00  0.00    +0.000 N 
ATOM      5  N   UNL     1       1.793  10.466  18.648  0.00  0.00    +0.000 NA
ATOM      6  C   UNL     1       0.977   9.511  18.193  0.00  0.00    +0.000 A 
ATOM      7  N   UNL     1       1.428   8.225  17.930  0.00  0.00    +0.000 N 
ATOM      8  N   UNL     1      -0.300   9.712  17.909  0.00  0.00    +0.000 NA
ATOM      9  H   UNL     1       3.075  12.408  19.199  0.00  0.00    +0.000 HD
ATOM     10  H   UNL     1       0.623   7.618  17.793  0.00  0.00    +0.000 HD
ENDROOT
BRANCH   4  11
ATOM     11  C   UNL     1       1.727  14.083  19.013  0.00  0.00    +0.000 C 
ATOM     12  C   UNL     1       2.578  14.747  17.917  0.00  0.00    +0.000 C 
ATOM     13  C   UNL     1       3.997  15.096  18.361  0.00  0.00    +0.000 C 
ATOM     14  C   UNL     1       4.000  15.912  19.639  0.00  0.00    +0.000 C 
ATOM     15  F   UNL     1       3.481  17.141  19.384  0.00  0.00    +0.000 F 
ATOM     16  F   UNL     1       5.279  16.111  20.044  0.00  0.00    +0.000 F 
ATOM     17  C   UNL     1       3.212  15.260  20.759  0.00  0.00    +0.000 C 
ATOM     18  C   UNL     1       1.795  14.889  20.323  0.00  0.00    +0.000 C 
ENDBRANCH   4  11
BRANCH   7  19
ATOM     19  C   UNL     1       2.582   7.688  18.639  0.00  0.00    +0.000 C 
ATOM     20  C   UNL     1       3.151   6.484  17.863  0.00  0.00    +0.000 C 
ATOM     21  C   UNL     1       2.364   5.183  18.031  0.00  0.00    +0.000 C 
ATOM     22  C   UNL     1       2.110   4.862  19.490  0.00  0.00    +0.000 C 
ATOM     23  F   UNL     1       3.289   4.555  20.090  0.00  0.00    +0.000 F 
ATOM     24  F   UNL     1       1.330   3.755  19.582  0.00  0.00    +0.000 F 
ATOM     25  C   UNL     1       1.453   6.007  20.237  0.00  0.00    +0.000 C 
ATOM     26  C   UNL     1       2.231   7.315  20.089  0.00  0.00    +0.000 C 
ENDBRANCH   7  19
BRANCH   1  31
ATOM     27  C   UNL     1      -4.294  11.869  18.588  0.00  0.00    +0.000 A 
ATOM     28  C   UNL     1      -4.791  11.678  17.306  0.00  0.00    +0.000 A 
ATOM     29  N   UNL     1      -4.019  11.256  16.279  0.00  0.00    +0.000 NA
ATOM     30  C   UNL     1      -2.717  11.022  16.586  0.00  0.00    +0.000 A 
ATOM     31  C   UNL     1      -2.178  11.215  17.856  0.00  0.00    +0.000 A 
ATOM     32  N   UNL     1      -2.976  11.653  18.877  0.00  0.00    +0.000 NA
BRANCH  27  34
ATOM     33  F   UNL     1      -6.243  11.356  19.875  0.00  0.00    +0.000 F 
ATOM     34  C   UNL     1      -5.246  12.268  19.683  0.00  0.00    +0.000 C 
ATOM     35  F   UNL     1      -4.624  12.383  20.893  0.00  0.00    +0.000 F 
ENDBRANCH  27  34
ENDBRANCH   1  31
TORSDOF 4
ENDMDL
MODEL 4
REMARK VINA RESULT:      -8.6      3.422     10.023
REMARK  Name = 
REMARK  4 active torsions:
REMARK  status: ('A' for Active; 'I' for Inactive)
REMARK    1  A    between atoms: C_2  and  C_4
REMARK    2  A    between atoms: C_8  and  C_9
REMARK    3  A    between atoms: N_12  and  C_13
REMARK    4  A    between atoms: N_23  and  C_24
REMARK                            x       y       z     vdW  Elec       q    Type
REMARK                         _______ _______ _______ _____ _____    ______ ____
ROOT
ATOM      1  C   UNL     1      -0.710  10.669  18.093  0.00  0.00    +0.000 A 
ATOM      2  N   UNL     1      -0.192  11.603  18.890  0.00  0.00    +0.000 NA
ATOM      3  C   UNL     1       1.034  11.370  19.332  0.00  0.00    +0.000 A 
ATOM      4  N   UNL     1       1.657  12.319  20.129  0.00  0.00    +0.000 N 
ATOM      5  N   UNL     1       1.721  10.263  19.044  0.00  0.00    +0.000 NA
ATOM      6  C   UNL     1       1.126   9.378  18.240  0.00  0.00    +0.000 A 
ATOM      7  N   UNL     1       1.760   8.213  17.833  0.00  0.00    +0.000 N 
ATOM      8  N   UNL     1      -0.083   9.549  17.727  0.00  0.00    +0.000 NA
ATOM      9  H   UNL     1       2.641  12.120  20.238  0.00  0.00    +0.000 HD
ATOM     10  H   UNL     1       1.073   7.598  17.404  0.00  0.00    +0.000 HD
ENDROOT
BRANCH   4  11
ATOM     11  C   UNL     1       1.179  13.701  20.095  0.00  0.00    +0.000 C 
ATOM     12  C   UNL     1       1.733  14.487  18.894  0.00  0.00    +0.000 C 
ATOM     13  C   UNL     1       3.201  14.882  19.037  0.00  0.00    +0.000 C 
ATOM     14  C   UNL     1       3.462  15.606  20.344  0.00  0.00    +0.000 C 
ATOM     15  F   UNL     1       2.851  16.819  20.310  0.00  0.00    +0.000 F 
ATOM     16  F   UNL     1       4.791  15.849  20.468  0.00  0.00    +0.000 F 
ATOM     17  C   UNL     1       2.974  14.836  21.555  0.00  0.00    +0.000 C 
ATOM     18  C   UNL     1       1.510  14.417  21.418  0.00  0.00    +0.000 C 
ENDBRANCH   4  11
BRANCH   7  19
ATOM     19  C   UNL     1       2.801   7.613  18.658  0.00  0.00    +0.000 C 
ATOM     20  C   UNL     1       4.063   7.374  17.805  0.00  0.00    +0.000 C 
ATOM     21  C   UNL     1       3.996   6.152  16.889  0.00  0.00    +0.000 C 
ATOM     22  C   UNL     1       3.562   4.907  17.639  0.00  0.00    +0.000 C 
ATOM     23  F   UNL     1       4.540   4.551  18.512  0.00  0.00    +0.000 F 
ATOM     24  F   UNL     1       3.428   3.877  16.767  0.00  0.00    +0.000 F 
ATOM     25  C   UNL     1       2.263   5.103  18.397  0.00  0.00    +0.000 C 
ATOM     26  C   UNL     1       2.314   6.316  19.327  0.00  0.00    +0.000 C 
ENDBRANCH   7  19
BRANCH   1  31
ATOM     27  C   UNL     1      -4.288  11.526  17.899  0.00  0.00    +0.000 A 
ATOM     28  C   UNL     1      -4.555  11.289  16.558  0.00  0.00    +0.000 A 
ATOM     29  N   UNL     1      -3.612  10.856  15.692  0.00  0.00    +0.000 NA
ATOM     30  C   UNL     1      -2.377  10.660  16.224  0.00  0.00    +0.000 A 
ATOM     31  C   UNL     1      -2.067  10.900  17.560  0.00  0.00    +0.000 A 
ATOM     32  N   UNL     1      -3.036  11.348  18.416  0.00  0.00    +0.000 NA
BRANCH  27  34
ATOM     33  F   UNL     1      -6.313  10.925  19.021  0.00  0.00    +0.000 F 
ATOM     34  C   UNL     1      -5.421  11.935  18.803  0.00  0.00    +0.000 C 
ATOM     35  F   UNL     1      -4.985  12.306  20.042  0.00  0.00    +0.000 F 
ENDBRANCH  27  34
ENDBRANCH   1  31
TORSDOF 4
ENDMDL
MODEL 5
REMARK VINA RESULT:      -8.5      4.130      7.732
REMARK  Name = 
REMARK  4 active torsions:
REMARK  status: ('A' for Active; 'I' for Inactive)
REMARK    1  A    between atoms: C_2  and  C_4
REMARK    2  A    between atoms: C_8  and  C_9
REMARK    3  A    between atoms: N_12  and  C_13
REMARK    4  A    between atoms: N_23  and  C_24
REMARK                            x       y       z     vdW  Elec       q    Type
REMARK                         _______ _______ _______ _____ _____    ______ ____
ROOT
ATOM      1  C   UNL     1       0.353  12.703  19.051  0.00  0.00    +0.000 A 
ATOM      2  N   UNL     1       0.763  11.515  19.495  0.00  0.00    +0.000 NA
ATOM      3  C   UNL     1      -0.107  10.523  19.377  0.00  0.00    +0.000 A 
ATOM      4  N   UNL     1       0.266   9.248  19.775  0.00  0.00    +0.000 N 
ATOM      5  N   UNL     1      -1.336  10.679  18.882  0.00  0.00    +0.000 NA
ATOM      6  C   UNL     1      -1.665  11.904  18.462  0.00  0.00    +0.000 A 
ATOM      7  N   UNL     1      -2.897  12.176  17.886  0.00  0.00    +0.000 N 
ATOM      8  N   UNL     1      -0.843  12.941  18.512  0.00  0.00    +0.000 NA
ATOM      9  H   UNL     1      -0.399   8.556  19.460  0.00  0.00    +0.000 HD
ATOM     10  H   UNL     1      -3.016  13.185  17.829  0.00  0.00    +0.000 HD
ENDROOT
BRANCH   4  11
ATOM     11  C   UNL     1       1.688   8.919  19.876  0.00  0.00    +0.000 C 
ATOM     12  C   UNL     1       2.294   8.509  18.522  0.00  0.00    +0.000 C 
ATOM     13  C   UNL     1       1.891   7.110  18.063  0.00  0.00    +0.000 C 
ATOM     14  C   UNL     1       2.161   6.069  19.132  0.00  0.00    +0.000 C 
ATOM     15  F   UNL     1       3.503   5.932  19.292  0.00  0.00    +0.000 F 
ATOM     16  F   UNL     1       1.698   4.863  18.717  0.00  0.00    +0.000 F 
ATOM     17  C   UNL     1       1.533   6.416  20.469  0.00  0.00    +0.000 C 
ATOM     18  C   UNL     1       1.912   7.823  20.932  0.00  0.00    +0.000 C 
ENDBRANCH   4  11
BRANCH   7  19
ATOM     19  C   UNL     1      -4.061  11.362  18.213  0.00  0.00    +0.000 C 
ATOM     20  C   UNL     1      -5.056  11.386  17.036  0.00  0.00    +0.000 C 
ATOM     21  C   UNL     1      -5.897  12.659  16.933  0.00  0.00    +0.000 C 
ATOM     22  C   UNL     1      -6.556  13.008  18.253  0.00  0.00    +0.000 C 
ATOM     23  F   UNL     1      -7.497  12.072  18.542  0.00  0.00    +0.000 F 
ATOM     24  F   UNL     1      -7.209  14.191  18.135  0.00  0.00    +0.000 F 
ATOM     25  C   UNL     1      -5.565  13.090  19.399  0.00  0.00    +0.000 C 
ATOM     26  C   UNL     1      -4.721  11.821  19.524  0.00  0.00    +0.000 C 
ENDBRANCH   7  19
BRANCH   1  31
ATOM     27  C   UNL     1       1.852  16.047  18.665  0.00  0.00    +0.000 A 
ATOM     28  C   UNL     1       3.071  15.877  19.307  0.00  0.00    +0.000 A 
ATOM     29  N   UNL     1       3.441  14.707  19.873  0.00  0.00    +0.000 NA
ATOM     30  C   UNL     1       2.539  13.697  19.767  0.00  0.00    +0.000 A 
ATOM     31  C   UNL     1       1.301  13.832  19.144  0.00  0.00    +0.000 A 
ATOM     32  N   UNL     1       0.943  15.030  18.587  0.00  0.00    +0.000 NA
BRANCH  27  34
ATOM     33  F   UNL     1       2.279  17.549  16.853  0.00  0.00    +0.000 F 
ATOM     34  C   UNL     1       1.560  17.365  17.999  0.00  0.00    +0.000 C 
ATOM     35  F   UNL     1       0.252  17.478  17.626  0.00  0.00    +0.000 F 
ENDBRANCH  27  34
ENDBRANCH   1  31
TORSDOF 4
ENDMDL
MODEL 6
REMARK VINA RESULT:      -8.4      4.065      7.263
REMARK  Name = 
REMARK  4 active torsions:
REMARK  status: ('A' for Active; 'I' for Inactive)
REMARK    1  A    between atoms: C_2  and  C_4
REMARK    2  A    between atoms: C_8  and  C_9
REMARK    3  A    between atoms: N_12  and  C_13
REMARK    4  A    between atoms: N_23  and  C_24
REMARK                            x       y       z     vdW  Elec       q    Type
REMARK                         _______ _______ _______ _____ _____    ______ ____
ROOT
ATOM      1  C   UNL     1       0.407  12.576  19.218  0.00  0.00    +0.000 A 
ATOM      2  N   UNL     1       0.814  11.352  19.554  0.00  0.00    +0.000 NA
ATOM      3  C   UNL     1      -0.033  10.369  19.290  0.00  0.00    +0.000 A 
ATOM      4  N   UNL     1       0.341   9.063  19.569  0.00  0.00    +0.000 N 
ATOM      5  N   UNL     1      -1.238  10.562  18.753  0.00  0.00    +0.000 NA
ATOM      6  C   UNL     1      -1.567  11.821  18.449  0.00  0.00    +0.000 A 
ATOM      7  N   UNL     1      -2.775  12.139  17.844  0.00  0.00    +0.000 N 
ATOM      8  N   UNL     1      -0.766  12.857  18.649  0.00  0.00    +0.000 NA
ATOM      9  H   UNL     1      -0.296   8.401  19.150  0.00  0.00    +0.000 HD
ATOM     10  H   UNL     1      -2.907  13.147  17.888  0.00  0.00    +0.000 HD
ENDROOT
BRANCH   4  11
ATOM     11  C   UNL     1       1.762   8.742  19.705  0.00  0.00    +0.000 C 
ATOM     12  C   UNL     1       2.382   8.245  18.387  0.00  0.00    +0.000 C 
ATOM     13  C   UNL     1       1.983   6.819  18.014  0.00  0.00    +0.000 C 
ATOM     14  C   UNL     1       2.241   5.849  19.151  0.00  0.00    +0.000 C 
ATOM     15  F   UNL     1       3.581   5.723  19.333  0.00  0.00    +0.000 F 
ATOM     16  F   UNL     1       1.781   4.620  18.809  0.00  0.00    +0.000 F 
ATOM     17  C   UNL     1       1.599   6.282  20.456  0.00  0.00    +0.000 C 
ATOM     18  C   UNL     1       1.975   7.715  20.832  0.00  0.00    +0.000 C 
ENDBRANCH   4  11
BRANCH   7  19
ATOM     19  C   UNL     1      -3.939  11.282  18.025  0.00  0.00    +0.000 C 
ATOM     20  C   UNL     1      -4.834  11.354  16.772  0.00  0.00    +0.000 C 
ATOM     21  C   UNL     1      -5.697  12.613  16.673  0.00  0.00    +0.000 C 
ATOM     22  C   UNL     1      -6.471  12.869  17.952  0.00  0.00    +0.000 C 
ATOM     23  F   UNL     1      -7.408  11.897  18.106  0.00  0.00    +0.000 F 
ATOM     24  F   UNL     1      -7.144  14.042  17.847  0.00  0.00    +0.000 F 
ATOM     25  C   UNL     1      -5.581  12.903  19.179  0.00  0.00    +0.000 C 
ATOM     26  C   UNL     1      -4.716  11.648  19.300  0.00  0.00    +0.000 C 
ENDBRANCH   7  19
BRANCH   1  31
ATOM     27  C   UNL     1       2.974  15.173  18.724  0.00  0.00    +0.000 A 
ATOM     28  C   UNL     1       3.033  15.745  19.987  0.00  0.00    +0.000 A 
ATOM     29  N   UNL     1       2.264  15.323  21.016  0.00  0.00    +0.000 NA
ATOM     30  C   UNL     1       1.428  14.290  20.734  0.00  0.00    +0.000 A 
ATOM     31  C   UNL     1       1.330  13.699  19.476  0.00  0.00    +0.000 A 
ATOM     32  N   UNL     1       2.111  14.151  18.447  0.00  0.00    +0.000 NA
BRANCH  27  34
ATOM     33  F   UNL     1       4.959  14.799  17.442  0.00  0.00    +0.000 F 
ATOM     34  C   UNL     1       3.923  15.660  17.662  0.00  0.00    +0.000 C 
ATOM     35  F   UNL     1       3.312  15.806  16.450  0.00  0.00    +0.000 F 
ENDBRANCH  27  34
ENDBRANCH   1  31
TORSDOF 4
ENDMDL
MODEL 7
REMARK VINA RESULT:      -8.4      3.666     10.161
REMARK  Name = 
REMARK  4 active torsions:
REMARK  status: ('A' for Active; 'I' for Inactive)
REMARK    1  A    between atoms: C_2  and  C_4
REMARK    2  A    between atoms: C_8  and  C_9
REMARK    3  A    between atoms: N_12  and  C_13
REMARK    4  A    between atoms: N_23  and  C_24
REMARK                            x       y       z     vdW  Elec       q    Type
REMARK                         _______ _______ _______ _____ _____    ______ ____
ROOT
ATOM      1  C   UNL     1      -0.606  11.315  18.903  0.00  0.00    +0.000 A 
ATOM      2  N   UNL     1       0.316  12.272  19.004  0.00  0.00    +0.000 NA
ATOM      3  C   UNL     1       1.571  11.885  18.833  0.00  0.00    +0.000 A 
ATOM      4  N   UNL     1       2.582  12.833  18.878  0.00  0.00    +0.000 N 
ATOM      5  N   UNL     1       1.925  10.619  18.606  0.00  0.00    +0.000 NA
ATOM      6  C   UNL     1       0.936   9.724  18.521  0.00  0.00    +0.000 A 
ATOM      7  N   UNL     1       1.179   8.386  18.241  0.00  0.00    +0.000 N 
ATOM      8  N   UNL     1      -0.345  10.032  18.646  0.00  0.00    +0.000 NA
ATOM      9  H   UNL     1       3.457  12.454  18.545  0.00  0.00    +0.000 HD
ATOM     10  H   UNL     1       0.331   7.855  18.422  0.00  0.00    +0.000 HD
ENDROOT
BRANCH   4  11
ATOM     11  C   UNL     1       2.250  14.240  18.655  0.00  0.00    +0.000 C 
ATOM     12  C   UNL     1       3.185  14.911  17.634  0.00  0.00    +0.000 C 
ATOM     13  C   UNL     1       4.580  15.213  18.178  0.00  0.00    +0.000 C 
ATOM     14  C   UNL     1       4.518  15.996  19.476  0.00  0.00    +0.000 C 
ATOM     15  F   UNL     1       4.045  17.243  19.221  0.00  0.00    +0.000 F 
ATOM     16  F   UNL     1       5.772  16.154  19.968  0.00  0.00    +0.000 F 
ATOM     17  C   UNL     1       3.644  15.336  20.525  0.00  0.00    +0.000 C 
ATOM     18  C   UNL     1       2.250  15.010  19.988  0.00  0.00    +0.000 C 
ENDBRANCH   4  11
BRANCH   7  19
ATOM     19  C   UNL     1       2.459   7.781  18.587  0.00  0.00    +0.000 C 
ATOM     20  C   UNL     1       2.749   6.605  17.633  0.00  0.00    +0.000 C 
ATOM     21  C   UNL     1       1.983   5.320  17.950  0.00  0.00    +0.000 C 
ATOM     22  C   UNL     1       2.118   4.927  19.408  0.00  0.00    +0.000 C 
ATOM     23  F   UNL     1       3.402   4.556  19.652  0.00  0.00    +0.000 F 
ATOM     24  F   UNL     1       1.347   3.839  19.657  0.00  0.00    +0.000 F 
ATOM     25  C   UNL     1       1.733   6.048  20.355  0.00  0.00    +0.000 C 
ATOM     26  C   UNL     1       2.496   7.340  20.059  0.00  0.00    +0.000 C 
ENDBRANCH   7  19
BRANCH   1  31
ATOM     27  C   UNL     1      -4.204  11.768  18.249  0.00  0.00    +0.000 A 
ATOM     28  C   UNL     1      -4.603  12.464  19.381  0.00  0.00    +0.000 A 
ATOM     29  N   UNL     1      -3.746  12.802  20.370  0.00  0.00    +0.000 NA
ATOM     30  C   UNL     1      -2.457  12.419  20.180  0.00  0.00    +0.000 A 
ATOM     31  C   UNL     1      -2.020  11.707  19.066  0.00  0.00    +0.000 A 
ATOM     32  N   UNL     1      -2.909  11.367  18.082  0.00  0.00    +0.000 NA
BRANCH  27  34
ATOM     33  F   UNL     1      -5.857  12.634  16.753  0.00  0.00    +0.000 F 
ATOM     34  C   UNL     1      -5.216  11.502  17.166  0.00  0.00    +0.000 C 
ATOM     35  F   UNL     1      -4.644  10.981  16.041  0.00  0.00    +0.000 F 
ENDBRANCH  27  34
ENDBRANCH   1  31
TORSDOF 4
ENDMDL
MODEL 8
REMARK VINA RESULT:      -8.2      8.537     11.432
REMARK  Name = 
REMARK  4 active torsions:
REMARK  status: ('A' for Active; 'I' for Inactive)
REMARK    1  A    between atoms: C_2  and  C_4
REMARK    2  A    between atoms: C_8  and  C_9
REMARK    3  A    between atoms: N_12  and  C_13
REMARK    4  A    between atoms: N_23  and  C_24
REMARK                            x       y       z     vdW  Elec       q    Type
REMARK                         _______ _______ _______ _____ _____    ______ ____
ROOT
ATOM      1  C   UNL     1       5.368  14.989  20.368  0.00  0.00    +0.000 A 
ATOM      2  N   UNL     1       6.596  15.041  19.850  0.00  0.00    +0.000 NA
ATOM      3  C   UNL     1       7.549  14.464  20.566  0.00  0.00    +0.000 A 
ATOM      4  N   UNL     1       8.843  14.438  20.069  0.00  0.00    +0.000 N 
ATOM      5  N   UNL     1       7.333  13.889  21.750  0.00  0.00    +0.000 NA
ATOM      6  C   UNL     1       6.073  13.884  22.195  0.00  0.00    +0.000 A 
ATOM      7  N   UNL     1       5.720  13.274  23.391  0.00  0.00    +0.000 N 
ATOM      8  N   UNL     1       5.057  14.407  21.527  0.00  0.00    +0.000 NA
ATOM      9  H   UNL     1       9.429  13.812  20.602  0.00  0.00    +0.000 HD
ATOM     10  H   UNL     1       4.774  13.558  23.636  0.00  0.00    +0.000 HD
ENDROOT
BRANCH   4  11
ATOM     11  C   UNL     1       9.059  14.613  18.633  0.00  0.00    +0.000 C 
ATOM     12  C   UNL     1       8.680  13.361  17.823  0.00  0.00    +0.000 C 
ATOM     13  C   UNL     1       9.684  12.217  17.946  0.00  0.00    +0.000 C 
ATOM     14  C   UNL     1      11.096  12.675  17.634  0.00  0.00    +0.000 C 
ATOM     15  F   UNL     1      11.184  12.980  16.313  0.00  0.00    +0.000 F 
ATOM     16  F   UNL     1      11.961  11.653  17.851  0.00  0.00    +0.000 F 
ATOM     17  C   UNL     1      11.523  13.878  18.453  0.00  0.00    +0.000 C 
ATOM     18  C   UNL     1      10.517  15.025  18.355  0.00  0.00    +0.000 C 
ENDBRANCH   4  11
BRANCH   7  19
ATOM     19  C   UNL     1       6.696  13.131  24.463  0.00  0.00    +0.000 C 
ATOM     20  C   UNL     1       6.818  11.645  24.856  0.00  0.00    +0.000 C 
ATOM     21  C   UNL     1       5.683  11.120  25.734  0.00  0.00    +0.000 C 
ATOM     22  C   UNL     1       5.434  12.015  26.932  0.00  0.00    +0.000 C 
ATOM     23  F   UNL     1       6.498  11.938  27.773  0.00  0.00    +0.000 F 
ATOM     24  F   UNL     1       4.361  11.559  27.624  0.00  0.00    +0.000 F 
ATOM     25  C   UNL     1       5.209  13.464  26.544  0.00  0.00    +0.000 C 
ATOM     26  C   UNL     1       6.340  14.011  25.673  0.00  0.00    +0.000 C 
ENDBRANCH   7  19
BRANCH   1  31
ATOM     27  C   UNL     1       1.997  15.775  19.105  0.00  0.00    +0.000 A 
ATOM     28  C   UNL     1       2.282  16.723  18.132  0.00  0.00    +0.000 A 
ATOM     29  N   UNL     1       3.542  17.131  17.859  0.00  0.00    +0.000 NA
ATOM     30  C   UNL     1       4.519  16.545  18.598  0.00  0.00    +0.000 A 
ATOM     31  C   UNL     1       4.271  15.601  19.591  0.00  0.00    +0.000 A 
ATOM     32  N   UNL     1       2.987  15.211  19.858  0.00  0.00    +0.000 NA
BRANCH  27  34
ATOM     33  F   UNL     1      -0.001  15.830  20.418  0.00  0.00    +0.000 F 
ATOM     34  C   UNL     1       0.571  15.328  19.285  0.00  0.00    +0.000 C 
ATOM     35  F   UNL     1      -0.233  15.740  18.262  0.00  0.00    +0.000 F 
ENDBRANCH  27  34
ENDBRANCH   1  31
TORSDOF 4
ENDMDL
MODEL 9
REMARK VINA RESULT:      -8.1      4.077      8.620
REMARK  Name = 
REMARK  4 active torsions:
REMARK  status: ('A' for Active; 'I' for Inactive)
REMARK    1  A    between atoms: C_2  and  C_4
REMARK    2  A    between atoms: C_8  and  C_9
REMARK    3  A    between atoms: N_12  and  C_13
REMARK    4  A    between atoms: N_23  and  C_24
REMARK                            x       y       z     vdW  Elec       q    Type
REMARK                         _______ _______ _______ _____ _____    ______ ____
ROOT
ATOM      1  C   UNL     1       0.226  10.455  19.209  0.00  0.00    +0.000 A 
ATOM      2  N   UNL     1       0.862  11.597  18.949  0.00  0.00    +0.000 NA
ATOM      3  C   UNL     1       0.096  12.668  18.820  0.00  0.00    +0.000 A 
ATOM      4  N   UNL     1       0.692  13.901  18.594  0.00  0.00    +0.000 N 
ATOM      5  N   UNL     1      -1.234  12.635  18.906  0.00  0.00    +0.000 NA
ATOM      6  C   UNL     1      -1.791  11.449  19.167  0.00  0.00    +0.000 A 
ATOM      7  N   UNL     1      -3.162  11.300  19.326  0.00  0.00    +0.000 N 
ATOM      8  N   UNL     1      -1.096  10.336  19.344  0.00  0.00    +0.000 NA
ATOM      9  H   UNL     1       0.030  14.655  18.707  0.00  0.00    +0.000 HD
ATOM     10  H   UNL     1      -3.386  10.308  19.314  0.00  0.00    +0.000 HD
ENDROOT
BRANCH   4  11
ATOM     11  C   UNL     1       2.099  14.088  18.948  0.00  0.00    +0.000 C 
ATOM     12  C   UNL     1       2.281  14.592  20.390  0.00  0.00    +0.000 C 
ATOM     13  C   UNL     1       1.924  16.065  20.580  0.00  0.00    +0.000 C 
ATOM     14  C   UNL     1       2.648  16.951  19.584  0.00  0.00    +0.000 C 
ATOM     15  F   UNL     1       3.976  16.949  19.871  0.00  0.00    +0.000 F 
ATOM     16  F   UNL     1       2.226  18.231  19.728  0.00  0.00    +0.000 F 
ATOM     17  C   UNL     1       2.448  16.512  18.146  0.00  0.00    +0.000 C 
ATOM     18  C   UNL     1       2.784  15.034  17.945  0.00  0.00    +0.000 C 
ENDBRANCH   4  11
BRANCH   7  19
ATOM     19  C   UNL     1      -4.084  12.224  18.678  0.00  0.00    +0.000 C 
ATOM     20  C   UNL     1      -4.861  13.015  19.750  0.00  0.00    +0.000 C 
ATOM     21  C   UNL     1      -6.002  12.242  20.414  0.00  0.00    +0.000 C 
ATOM     22  C   UNL     1      -6.919  11.599  19.393  0.00  0.00    +0.000 C 
ATOM     23  F   UNL     1      -7.591  12.572  18.724  0.00  0.00    +0.000 F 
ATOM     24  F   UNL     1      -7.854  10.851  20.030  0.00  0.00    +0.000 F 
ATOM     25  C   UNL     1      -6.171  10.734  18.396  0.00  0.00    +0.000 C 
ATOM     26  C   UNL     1      -5.032  11.493  17.714  0.00  0.00    +0.000 C 
ENDBRANCH   7  19
BRANCH   1  31
ATOM     27  C   UNL     1       2.567   7.693  18.526  0.00  0.00    +0.000 A 
ATOM     28  C   UNL     1       2.516   6.988  19.720  0.00  0.00    +0.000 A 
ATOM     29  N   UNL     1       1.743   7.371  20.761  0.00  0.00    +0.000 NA
ATOM     30  C   UNL     1       1.009   8.496  20.560  0.00  0.00    +0.000 A 
ATOM     31  C   UNL     1       1.045   9.238  19.382  0.00  0.00    +0.000 A 
ATOM     32  N   UNL     1       1.843   8.837  18.345  0.00  0.00    +0.000 NA
BRANCH  27  34
ATOM     33  F   UNL     1       4.723   7.451  17.519  0.00  0.00    +0.000 F 
ATOM     34  C   UNL     1       3.399   7.147  17.396  0.00  0.00    +0.000 C 
ATOM     35  F   UNL     1       3.346   5.784  17.328  0.00  0.00    +0.000 F 
ENDBRANCH  27  34
ENDBRANCH   1  31
TORSDOF 4
ENDMDL
