MODEL 1
REMARK VINA RESULT:      -8.5      0.000      0.000
REMARK  Name = 
REMARK  5 active torsions:
REMARK  status: ('A' for Active; 'I' for Inactive)
REMARK    1  A    between atoms: C_17  and  N_18
REMARK    2  A    between atoms: N_18  and  C_19
REMARK    3  A    between atoms: C_19  and  C_20
REMARK    4  A    between atoms: C_20  and  C_21
REMARK    5  A    between atoms: C_21  and  N_22
REMARK                            x       y       z     vdW  Elec       q    Type
REMARK                         _______ _______ _______ _____ _____    ______ ____
ROOT
ATOM      1  C   UNL     1       1.210   4.127  20.619  0.00  0.00    +0.000 A 
ATOM      2  C   UNL     1       0.962   3.371  19.460  0.00  0.00    +0.000 A 
ATOM      3  C   UNL     1       1.843   3.408  18.371  0.00  0.00    +0.000 A 
ATOM      4  C   UNL     1       2.968   4.206  18.461  0.00  0.00    +0.000 A 
ATOM      5  C   UNL     1       3.208   4.952  19.629  0.00  0.00    +0.000 A 
ATOM      6  C   UNL     1       2.345   4.931  20.711  0.00  0.00    +0.000 A 
ATOM      7  C   UNL     1       4.503   5.711  19.490  0.00  0.00    +0.000 C 
ATOM      8  C   UNL     1       4.993   5.330  18.106  0.00  0.00    +0.000 A 
ATOM      9  C   UNL     1       4.053   4.454  17.533  0.00  0.00    +0.000 A 
ATOM     10  N   UNL     1       4.135   3.916  16.312  0.00  0.00    +0.000 NA
ATOM     11  C   UNL     1       5.216   4.257  15.596  0.00  0.00    +0.000 A 
ATOM     12  C   UNL     1       5.337   3.698  14.330  0.00  0.00    +0.000 A 
ATOM     13  C   UNL     1       6.421   3.974  13.493  0.00  0.00    +0.000 A 
ATOM     14  C   UNL     1       7.421   4.827  13.930  0.00  0.00    +0.000 A 
ATOM     15  C   UNL     1       7.333   5.398  15.200  0.00  0.00    +0.000 A 
ATOM     16  C   UNL     1       6.235   5.144  16.063  0.00  0.00    +0.000 A 
ATOM     17  C   UNL     1       6.113   5.719  17.372  0.00  0.00    +0.000 A 
ENDROOT
BRANCH  17  18
ATOM     18  N   UNL     1       7.154   6.528  17.869  0.00  0.00    +0.000 N 
ATOM     19  H   UNL     1       8.015   6.007  18.001  0.00  0.00    +0.000 HD
BRANCH  18  20
ATOM     20  C   UNL     1       7.363   7.880  17.375  0.00  0.00    +0.000 C 
BRANCH  20  21
ATOM     21  C   UNL     1       8.393   8.656  18.202  0.00  0.00    +0.000 C 
BRANCH  21  22
ATOM     22  C   UNL     1       8.128  10.174  18.111  0.00  0.00    +0.000 C 
BRANCH  22  23
ATOM     23  N   UNL     1       9.367  10.942  18.199  0.00  0.00    +0.000 NA
ATOM     24  C   UNL     1       9.281  12.309  17.649  0.00  0.00    +0.000 C 
ATOM     25  C   UNL     1      10.690  12.924  17.595  0.00  0.00    +0.000 C 
ATOM     26  O   UNL     1      11.306  12.946  18.891  0.00  0.00    +0.000 OA
ATOM     27  C   UNL     1      11.346  11.626  19.453  0.00  0.00    +0.000 C 
ATOM     28  C   UNL     1       9.933  11.024  19.554  0.00  0.00    +0.000 C 
ENDBRANCH  22  23
ENDBRANCH  21  22
ENDBRANCH  20  21
ENDBRANCH  18  20
ENDBRANCH  17  18
TORSDOF 5
ENDMDL
MODEL 2
REMARK VINA RESULT:      -8.3      4.508      7.401
REMARK  Name = 
REMARK  5 active torsions:
REMARK  status: ('A' for Active; 'I' for Inactive)
REMARK    1  A    between atoms: C_17  and  N_18
REMARK    2  A    between atoms: N_18  and  C_19
REMARK    3  A    between atoms: C_19  and  C_20
REMARK    4  A    between atoms: C_20  and  C_21
REMARK    5  A    between atoms: C_21  and  N_22
REMARK                            x       y       z     vdW  Elec       q    Type
REMARK                         _______ _______ _______ _____ _____    ______ ____
ROOT
ATOM      1  C   UNL     1       7.030   4.989  13.930  0.00  0.00    +0.000 A 
ATOM      2  C   UNL     1       6.535   3.681  14.077  0.00  0.00    +0.000 A 
ATOM      3  C   UNL     1       5.591   3.373  15.065  0.00  0.00    +0.000 A 
ATOM      4  C   UNL     1       5.152   4.388  15.895  0.00  0.00    +0.000 A 
ATOM      5  C   UNL     1       5.650   5.692  15.732  0.00  0.00    +0.000 A 
ATOM      6  C   UNL     1       6.587   6.012  14.765  0.00  0.00    +0.000 A 
ATOM      7  C   UNL     1       4.997   6.614  16.732  0.00  0.00    +0.000 C 
ATOM      8  C   UNL     1       4.065   5.700  17.503  0.00  0.00    +0.000 A 
ATOM      9  C   UNL     1       4.198   4.399  16.986  0.00  0.00    +0.000 A 
ATOM     10  N   UNL     1       3.545   3.317  17.423  0.00  0.00    +0.000 NA
ATOM     11  C   UNL     1       2.696   3.521  18.441  0.00  0.00    +0.000 A 
ATOM     12  C   UNL     1       1.990   2.418  18.905  0.00  0.00    +0.000 A 
ATOM     13  C   UNL     1       1.074   2.506  19.956  0.00  0.00    +0.000 A 
ATOM     14  C   UNL     1       0.848   3.731  20.564  0.00  0.00    +0.000 A 
ATOM     15  C   UNL     1       1.536   4.859  20.115  0.00  0.00    +0.000 A 
ATOM     16  C   UNL     1       2.481   4.792  19.058  0.00  0.00    +0.000 A 
ATOM     17  C   UNL     1       3.208   5.932  18.578  0.00  0.00    +0.000 A 
ENDROOT
BRANCH  17  18
ATOM     18  N   UNL     1       2.939   7.202  19.128  0.00  0.00    +0.000 N 
ATOM     19  H   UNL     1       3.616   7.462  19.838  0.00  0.00    +0.000 HD
BRANCH  18  20
ATOM     20  C   UNL     1       2.517   8.314  18.291  0.00  0.00    +0.000 C 
BRANCH  20  21
ATOM     21  C   UNL     1       1.390   9.133  18.928  0.00  0.00    +0.000 C 
BRANCH  21  22
ATOM     22  C   UNL     1       1.136   8.668  20.378  0.00  0.00    +0.000 C 
BRANCH  22  23
ATOM     23  N   UNL     1       0.325   9.632  21.118  0.00  0.00    +0.000 NA
ATOM     24  C   UNL     1       0.210   9.354  22.563  0.00  0.00    +0.000 C 
ATOM     25  C   UNL     1      -0.838  10.297  23.179  0.00  0.00    +0.000 C 
ATOM     26  O   UNL     1      -0.500  11.676  22.961  0.00  0.00    +0.000 OA
ATOM     27  C   UNL     1      -0.337  11.939  21.560  0.00  0.00    +0.000 C 
ATOM     28  C   UNL     1       0.746  11.032  20.948  0.00  0.00    +0.000 C 
ENDBRANCH  22  23
ENDBRANCH  21  22
ENDBRANCH  20  21
ENDBRANCH  18  20
ENDBRANCH  17  18
TORSDOF 5
ENDMDL
MODEL 3
REMARK VINA RESULT:      -8.1      0.871      4.738
REMARK  Name = 
REMARK  5 active torsions:
REMARK  status: ('A' for Active; 'I' for Inactive)
REMARK    1  A    between atoms: C_17  and  N_18
REMARK    2  A    between atoms: N_18  and  C_19
REMARK    3  A    between atoms: C_19  and  C_20
REMARK    4  A    between atoms: C_20  and  C_21
REMARK    5  A    between atoms: C_21  and  N_22
REMARK                            x       y       z     vdW  Elec       q    Type
REMARK                         _______ _______ _______ _____ _____    ______ ____
ROOT
ATOM      1  C   UNL     1       7.103   3.953  11.691  0.00  0.00    +0.000 A 
ATOM      2  C   UNL     1       5.852   3.348  11.900  0.00  0.00    +0.000 A 
ATOM      3  C   UNL     1       5.194   3.454  13.132  0.00  0.00    +0.000 A 
ATOM      4  C   UNL     1       5.803   4.173  14.143  0.00  0.00    +0.000 A 
ATOM      5  C   UNL     1       7.052   4.780  13.919  0.00  0.00    +0.000 A 
ATOM      6  C   UNL     1       7.718   4.679  12.710  0.00  0.00    +0.000 A 
ATOM      7  C   UNL     1       7.485   5.523  15.158  0.00  0.00    +0.000 C 
ATOM      8  C   UNL     1       6.352   5.279  16.135  0.00  0.00    +0.000 A 
ATOM      9  C   UNL     1       5.392   4.470  15.501  0.00  0.00    +0.000 A 
ATOM     10  N   UNL     1       4.256   4.032  16.054  0.00  0.00    +0.000 NA
ATOM     11  C   UNL     1       4.040   4.414  17.321  0.00  0.00    +0.000 A 
ATOM     12  C   UNL     1       2.859   3.988  17.916  0.00  0.00    +0.000 A 
ATOM     13  C   UNL     1       2.521   4.325  19.229  0.00  0.00    +0.000 A 
ATOM     14  C   UNL     1       3.382   5.115  19.975  0.00  0.00    +0.000 A 
ATOM     15  C   UNL     1       4.572   5.564  19.402  0.00  0.00    +0.000 A 
ATOM     16  C   UNL     1       4.943   5.225  18.075  0.00  0.00    +0.000 A 
ATOM     17  C   UNL     1       6.162   5.667  17.461  0.00  0.00    +0.000 A 
ENDROOT
BRANCH  17  18
ATOM     18  N   UNL     1       7.017   6.533  18.171  0.00  0.00    +0.000 N 
ATOM     19  H   UNL     1       7.752   6.032  18.658  0.00  0.00    +0.000 HD
BRANCH  18  20
ATOM     20  C   UNL     1       7.455   7.798  17.601  0.00  0.00    +0.000 C 
BRANCH  20  21
ATOM     21  C   UNL     1       8.431   8.547  18.514  0.00  0.00    +0.000 C 
BRANCH  21  22
ATOM     22  C   UNL     1       8.613  10.003  18.033  0.00  0.00    +0.000 C 
BRANCH  22  23
ATOM     23  N   UNL     1       9.743  10.651  18.695  0.00  0.00    +0.000 NA
ATOM     24  C   UNL     1      10.530  11.547  17.826  0.00  0.00    +0.000 C 
ATOM     25  C   UNL     1      11.804  11.983  18.570  0.00  0.00    +0.000 C 
ATOM     26  O   UNL     1      11.495  12.636  19.810  0.00  0.00    +0.000 OA
ATOM     27  C   UNL     1      10.685  11.788  20.638  0.00  0.00    +0.000 C 
ATOM     28  C   UNL     1       9.385  11.387  19.918  0.00  0.00    +0.000 C 
ENDBRANCH  22  23
ENDBRANCH  21  22
ENDBRANCH  20  21
ENDBRANCH  18  20
ENDBRANCH  17  18
TORSDOF 5
ENDMDL
MODEL 4
REMARK VINA RESULT:      -8.0      0.601      1.045
REMARK  Name = 
REMARK  5 active torsions:
REMARK  status: ('A' for Active; 'I' for Inactive)
REMARK    1  A    between atoms: C_17  and  N_18
REMARK    2  A    between atoms: N_18  and  C_19
REMARK    3  A    between atoms: C_19  and  C_20
REMARK    4  A    between atoms: C_20  and  C_21
REMARK    5  A    between atoms: C_21  and  N_22
REMARK                            x       y       z     vdW  Elec       q    Type
REMARK                         _______ _______ _______ _____ _____    ______ ____
ROOT
ATOM      1  C   UNL     1       0.855   3.875  20.503  0.00  0.00    +0.000 A 
ATOM      2  C   UNL     1       0.701   3.142  19.313  0.00  0.00    +0.000 A 
ATOM      3  C   UNL     1       1.642   3.237  18.280  0.00  0.00    +0.000 A 
ATOM      4  C   UNL     1       2.732   4.068  18.456  0.00  0.00    +0.000 A 
ATOM      5  C   UNL     1       2.878   4.790  19.654  0.00  0.00    +0.000 A 
ATOM      6  C   UNL     1       1.954   4.713  20.683  0.00  0.00    +0.000 A 
ATOM      7  C   UNL     1       4.153   5.594  19.611  0.00  0.00    +0.000 C 
ATOM      8  C   UNL     1       4.736   5.266  18.251  0.00  0.00    +0.000 A 
ATOM      9  C   UNL     1       3.861   4.376  17.601  0.00  0.00    +0.000 A 
ATOM     10  N   UNL     1       4.033   3.873  16.374  0.00  0.00    +0.000 NA
ATOM     11  C   UNL     1       5.142   4.268  15.733  0.00  0.00    +0.000 A 
ATOM     12  C   UNL     1       5.356   3.748  14.462  0.00  0.00    +0.000 A 
ATOM     13  C   UNL     1       6.477   4.080  13.698  0.00  0.00    +0.000 A 
ATOM     14  C   UNL     1       7.421   4.954  14.215  0.00  0.00    +0.000 A 
ATOM     15  C   UNL     1       7.238   5.487  15.492  0.00  0.00    +0.000 A 
ATOM     16  C   UNL     1       6.101   5.174  16.281  0.00  0.00    +0.000 A 
ATOM     17  C   UNL     1       5.883   5.710  17.594  0.00  0.00    +0.000 A 
ENDROOT
BRANCH  17  18
ATOM     18  N   UNL     1       6.865   6.539  18.172  0.00  0.00    +0.000 N 
ATOM     19  H   UNL     1       7.439   6.041  18.846  0.00  0.00    +0.000 HD
BRANCH  18  20
ATOM     20  C   UNL     1       7.609   7.501  17.374  0.00  0.00    +0.000 C 
BRANCH  20  21
ATOM     21  C   UNL     1       8.428   8.469  18.233  0.00  0.00    +0.000 C 
BRANCH  21  22
ATOM     22  C   UNL     1       8.051   9.931  17.911  0.00  0.00    +0.000 C 
BRANCH  22  23
ATOM     23  N   UNL     1       8.918  10.877  18.610  0.00  0.00    +0.000 NA
ATOM     24  C   UNL     1       9.385  10.416  19.933  0.00  0.00    +0.000 C 
ATOM     25  C   UNL     1      10.092  11.576  20.653  0.00  0.00    +0.000 C 
ATOM     26  O   UNL     1      11.194  12.083  19.884  0.00  0.00    +0.000 OA
ATOM     27  C   UNL     1      10.754  12.484  18.578  0.00  0.00    +0.000 C 
ATOM     28  C   UNL     1      10.088  11.313  17.833  0.00  0.00    +0.000 C 
ENDBRANCH  22  23
ENDBRANCH  21  22
ENDBRANCH  20  21
ENDBRANCH  18  20
ENDBRANCH  17  18
TORSDOF 5
ENDMDL
MODEL 5
REMARK VINA RESULT:      -7.9      6.192      8.170
REMARK  Name = 
REMARK  5 active torsions:
REMARK  status: ('A' for Active; 'I' for Inactive)
REMARK    1  A    between atoms: C_17  and  N_18
REMARK    2  A    between atoms: N_18  and  C_19
REMARK    3  A    between atoms: C_19  and  C_20
REMARK    4  A    between atoms: C_20  and  C_21
REMARK    5  A    between atoms: C_21  and  N_22
REMARK                            x       y       z     vdW  Elec       q    Type
REMARK                         _______ _______ _______ _____ _____    ______ ____
ROOT
ATOM      1  C   UNL     1       4.050   5.340  18.019  0.00  0.00    +0.000 A 
ATOM      2  C   UNL     1       3.688   5.034  19.343  0.00  0.00    +0.000 A 
ATOM      3  C   UNL     1       2.887   5.905  20.093  0.00  0.00    +0.000 A 
ATOM      4  C   UNL     1       2.455   7.076  19.500  0.00  0.00    +0.000 A 
ATOM      5  C   UNL     1       2.818   7.367  18.173  0.00  0.00    +0.000 A 
ATOM      6  C   UNL     1       3.614   6.520  17.420  0.00  0.00    +0.000 A 
ATOM      7  C   UNL     1       2.202   8.677  17.753  0.00  0.00    +0.000 C 
ATOM      8  C   UNL     1       1.441   9.125  18.985  0.00  0.00    +0.000 A 
ATOM      9  C   UNL     1       1.628   8.161  19.992  0.00  0.00    +0.000 A 
ATOM     10  N   UNL     1       1.122   8.217  21.227  0.00  0.00    +0.000 NA
ATOM     11  C   UNL     1       0.374   9.297  21.502  0.00  0.00    +0.000 A 
ATOM     12  C   UNL     1      -0.180   9.374  22.773  0.00  0.00    +0.000 A 
ATOM     13  C   UNL     1      -0.980  10.446  23.175  0.00  0.00    +0.000 A 
ATOM     14  C   UNL     1      -1.244  11.474  22.282  0.00  0.00    +0.000 A 
ATOM     15  C   UNL     1      -0.707  11.420  20.995  0.00  0.00    +0.000 A 
ATOM     16  C   UNL     1       0.119  10.348  20.568  0.00  0.00    +0.000 A 
ATOM     17  C   UNL     1       0.689  10.268  19.255  0.00  0.00    +0.000 A 
ENDROOT
BRANCH  17  18
ATOM     18  N   UNL     1       0.374  11.261  18.305  0.00  0.00    +0.000 N 
ATOM     19  H   UNL     1      -0.605  11.238  18.037  0.00  0.00    +0.000 HD
BRANCH  18  20
ATOM     20  C   UNL     1       0.917  12.606  18.407  0.00  0.00    +0.000 C 
BRANCH  20  21
ATOM     21  C   UNL     1       2.449  12.624  18.399  0.00  0.00    +0.000 C 
BRANCH  21  22
ATOM     22  C   UNL     1       2.981  13.805  19.239  0.00  0.00    +0.000 C 
BRANCH  22  23
ATOM     23  N   UNL     1       2.541  15.089  18.700  0.00  0.00    +0.000 NA
ATOM     24  C   UNL     1       2.245  16.113  19.721  0.00  0.00    +0.000 C 
ATOM     25  C   UNL     1       1.584  17.327  19.045  0.00  0.00    +0.000 C 
ATOM     26  O   UNL     1       2.419  17.877  18.015  0.00  0.00    +0.000 OA
ATOM     27  C   UNL     1       2.752  16.871  17.046  0.00  0.00    +0.000 C 
ATOM     28  C   UNL     1       3.457  15.675  17.709  0.00  0.00    +0.000 C 
ENDBRANCH  22  23
ENDBRANCH  21  22
ENDBRANCH  20  21
ENDBRANCH  18  20
ENDBRANCH  17  18
TORSDOF 5
ENDMDL
MODEL 6
REMARK VINA RESULT:      -7.9      4.802      8.355
REMARK  Name = 
REMARK  5 active torsions:
REMARK  status: ('A' for Active; 'I' for Inactive)
REMARK    1  A    between atoms: C_17  and  N_18
REMARK    2  A    between atoms: N_18  and  C_19
REMARK    3  A    between atoms: C_19  and  C_20
REMARK    4  A    between atoms: C_20  and  C_21
REMARK    5  A    between atoms: C_21  and  N_22
REMARK                            x       y       z     vdW  Elec       q    Type
REMARK                         _______ _______ _______ _____ _____    ______ ____
ROOT
ATOM      1  C   UNL     1       6.429   4.483  15.676  0.00  0.00    +0.000 A 
ATOM      2  C   UNL     1       6.125   5.679  15.002  0.00  0.00    +0.000 A 
ATOM      3  C   UNL     1       5.221   6.604  15.541  0.00  0.00    +0.000 A 
ATOM      4  C   UNL     1       4.632   6.315  16.758  0.00  0.00    +0.000 A 
ATOM      5  C   UNL     1       4.949   5.119  17.425  0.00  0.00    +0.000 A 
ATOM      6  C   UNL     1       5.836   4.192  16.903  0.00  0.00    +0.000 A 
ATOM      7  C   UNL     1       4.203   5.054  18.734  0.00  0.00    +0.000 C 
ATOM      8  C   UNL     1       3.408   6.345  18.756  0.00  0.00    +0.000 A 
ATOM      9  C   UNL     1       3.681   7.049  17.569  0.00  0.00    +0.000 A 
ATOM     10  N   UNL     1       3.152   8.227  17.224  0.00  0.00    +0.000 NA
ATOM     11  C   UNL     1       2.292   8.759  18.105  0.00  0.00    +0.000 A 
ATOM     12  C   UNL     1       1.739   9.992  17.781  0.00  0.00    +0.000 A 
ATOM     13  C   UNL     1       0.836  10.649  18.620  0.00  0.00    +0.000 A 
ATOM     14  C   UNL     1       0.473  10.065  19.824  0.00  0.00    +0.000 A 
ATOM     15  C   UNL     1       1.018   8.830  20.180  0.00  0.00    +0.000 A 
ATOM     16  C   UNL     1       1.927   8.138  19.339  0.00  0.00    +0.000 A 
ATOM     17  C   UNL     1       2.499   6.867  19.675  0.00  0.00    +0.000 A 
ENDROOT
BRANCH  17  18
ATOM     18  N   UNL     1       2.206   6.288  20.926  0.00  0.00    +0.000 N 
ATOM     19  H   UNL     1       2.022   6.988  21.638  0.00  0.00    +0.000 HD
BRANCH  18  20
ATOM     20  C   UNL     1       1.359   5.111  21.037  0.00  0.00    +0.000 C 
BRANCH  20  21
ATOM     21  C   UNL     1       2.092   3.914  21.649  0.00  0.00    +0.000 C 
BRANCH  21  22
ATOM     22  C   UNL     1       1.430   2.591  21.208  0.00  0.00    +0.000 C 
BRANCH  22  23
ATOM     23  N   UNL     1       2.034   2.070  19.983  0.00  0.00    +0.000 NA
ATOM     24  C   UNL     1       1.597   2.750  18.748  0.00  0.00    +0.000 C 
ATOM     25  C   UNL     1       2.122   1.973  17.529  0.00  0.00    +0.000 C 
ATOM     26  O   UNL     1       3.552   1.854  17.554  0.00  0.00    +0.000 OA
ATOM     27  C   UNL     1       3.986   1.240  18.777  0.00  0.00    +0.000 C 
ATOM     28  C   UNL     1       3.505   2.040  20.000  0.00  0.00    +0.000 C 
ENDBRANCH  22  23
ENDBRANCH  21  22
ENDBRANCH  20  21
ENDBRANCH  18  20
ENDBRANCH  17  18
TORSDOF 5
ENDMDL
MODEL 7
REMARK VINA RESULT:      -7.9      4.839      7.691
REMARK  Name = 
REMARK  5 active torsions:
REMARK  status: ('A' for Active; 'I' for Inactive)
REMARK    1  A    between atoms: C_17  and  N_18
REMARK    2  A    between atoms: N_18  and  C_19
REMARK    3  A    between atoms: C_19  and  C_20
REMARK    4  A    between atoms: C_20  and  C_21
REMARK    5  A    between atoms: C_21  and  N_22
REMARK                            x       y       z     vdW  Elec       q    Type
REMARK                         _______ _______ _______ _____ _____    ______ ____
ROOT
ATOM      1  C   UNL     1       6.875   5.097  14.076  0.00  0.00    +0.000 A 
ATOM      2  C   UNL     1       6.627   3.759  14.430  0.00  0.00    +0.000 A 
ATOM      3  C   UNL     1       5.761   3.438  15.483  0.00  0.00    +0.000 A 
ATOM      4  C   UNL     1       5.149   4.470  16.169  0.00  0.00    +0.000 A 
ATOM      5  C   UNL     1       5.400   5.804  15.801  0.00  0.00    +0.000 A 
ATOM      6  C   UNL     1       6.257   6.138  14.767  0.00  0.00    +0.000 A 
ATOM      7  C   UNL     1       4.596   6.732  16.677  0.00  0.00    +0.000 C 
ATOM      8  C   UNL     1       3.851   5.793  17.604  0.00  0.00    +0.000 A 
ATOM      9  C   UNL     1       4.216   4.474  17.279  0.00  0.00    +0.000 A 
ATOM     10  N   UNL     1       3.773   3.370  17.891  0.00  0.00    +0.000 NA
ATOM     11  C   UNL     1       2.908   3.569  18.896  0.00  0.00    +0.000 A 
ATOM     12  C   UNL     1       2.417   2.440  19.539  0.00  0.00    +0.000 A 
ATOM     13  C   UNL     1       1.507   2.519  20.595  0.00  0.00    +0.000 A 
ATOM     14  C   UNL     1       1.065   3.760  21.025  0.00  0.00    +0.000 A 
ATOM     15  C   UNL     1       1.533   4.913  20.393  0.00  0.00    +0.000 A 
ATOM     16  C   UNL     1       2.468   4.859  19.326  0.00  0.00    +0.000 A 
ATOM     17  C   UNL     1       2.972   6.025  18.661  0.00  0.00    +0.000 A 
ENDROOT
BRANCH  17  18
ATOM     18  N   UNL     1       2.480   7.294  19.027  0.00  0.00    +0.000 N 
ATOM     19  H   UNL     1       3.128   7.799  19.625  0.00  0.00    +0.000 HD
BRANCH  18  20
ATOM     20  C   UNL     1       1.791   8.145  18.068  0.00  0.00    +0.000 C 
BRANCH  20  21
ATOM     21  C   UNL     1       1.813   9.622  18.471  0.00  0.00    +0.000 C 
BRANCH  21  22
ATOM     22  C   UNL     1       0.827   9.881  19.631  0.00  0.00    +0.000 C 
BRANCH  22  23
ATOM     23  N   UNL     1      -0.229  10.812  19.239  0.00  0.00    +0.000 NA
ATOM     24  C   UNL     1      -1.102  10.326  18.152  0.00  0.00    +0.000 C 
ATOM     25  C   UNL     1      -2.016  11.472  17.685  0.00  0.00    +0.000 C 
ATOM     26  O   UNL     1      -2.807  11.990  18.765  0.00  0.00    +0.000 OA
ATOM     27  C   UNL     1      -1.965  12.417  19.847  0.00  0.00    +0.000 C 
ATOM     28  C   UNL     1      -1.082  11.261  20.351  0.00  0.00    +0.000 C 
ENDBRANCH  22  23
ENDBRANCH  21  22
ENDBRANCH  20  21
ENDBRANCH  18  20
ENDBRANCH  17  18
TORSDOF 5
ENDMDL
MODEL 8
REMARK VINA RESULT:      -7.8      6.047      7.910
REMARK  Name = 
REMARK  5 active torsions:
REMARK  status: ('A' for Active; 'I' for Inactive)
REMARK    1  A    between atoms: C_17  and  N_18
REMARK    2  A    between atoms: N_18  and  C_19
REMARK    3  A    between atoms: C_19  and  C_20
REMARK    4  A    between atoms: C_20  and  C_21
REMARK    5  A    between atoms: C_21  and  N_22
REMARK                            x       y       z     vdW  Elec       q    Type
REMARK                         _______ _______ _______ _____ _____    ______ ____
ROOT
ATOM      1  C   UNL     1       3.857   4.750  18.147  0.00  0.00    +0.000 A 
ATOM      2  C   UNL     1       3.359   4.473  19.433  0.00  0.00    +0.000 A 
ATOM      3  C   UNL     1       2.628   5.432  20.147  0.00  0.00    +0.000 A 
ATOM      4  C   UNL     1       2.404   6.662  19.557  0.00  0.00    +0.000 A 
ATOM      5  C   UNL     1       2.901   6.923  18.268  0.00  0.00    +0.000 A 
ATOM      6  C   UNL     1       3.630   5.989  17.551  0.00  0.00    +0.000 A 
ATOM      7  C   UNL     1       2.500   8.313  17.841  0.00  0.00    +0.000 C 
ATOM      8  C   UNL     1       1.716   8.839  19.027  0.00  0.00    +0.000 A 
ATOM      9  C   UNL     1       1.696   7.840  20.018  0.00  0.00    +0.000 A 
ATOM     10  N   UNL     1       1.111   7.943  21.215  0.00  0.00    +0.000 NA
ATOM     11  C   UNL     1       0.497   9.109  21.465  0.00  0.00    +0.000 A 
ATOM     12  C   UNL     1      -0.136   9.238  22.695  0.00  0.00    +0.000 A 
ATOM     13  C   UNL     1      -0.812  10.403  23.067  0.00  0.00    +0.000 A 
ATOM     14  C   UNL     1      -0.867  11.472  22.187  0.00  0.00    +0.000 A 
ATOM     15  C   UNL     1      -0.248  11.369  20.941  0.00  0.00    +0.000 A 
ATOM     16  C   UNL     1       0.456  10.202  20.545  0.00  0.00    +0.000 A 
ATOM     17  C   UNL     1       1.107  10.068  19.274  0.00  0.00    +0.000 A 
ENDROOT
BRANCH  17  18
ATOM     18  N   UNL     1       1.001  11.111  18.332  0.00  0.00    +0.000 N 
ATOM     19  H   UNL     1       0.053  11.469  18.263  0.00  0.00    +0.000 HD
BRANCH  18  20
ATOM     20  C   UNL     1       2.021  12.142  18.225  0.00  0.00    +0.000 C 
BRANCH  20  21
ATOM     21  C   UNL     1       1.461  13.549  18.452  0.00  0.00    +0.000 C 
BRANCH  21  22
ATOM     22  C   UNL     1       2.609  14.571  18.602  0.00  0.00    +0.000 C 
BRANCH  22  23
ATOM     23  N   UNL     1       2.742  15.031  19.982  0.00  0.00    +0.000 NA
ATOM     24  C   UNL     1       1.489  14.997  20.762  0.00  0.00    +0.000 C 
ATOM     25  C   UNL     1       1.711  15.708  22.108  0.00  0.00    +0.000 C 
ATOM     26  O   UNL     1       2.780  15.106  22.854  0.00  0.00    +0.000 OA
ATOM     27  C   UNL     1       3.988  15.090  22.080  0.00  0.00    +0.000 C 
ATOM     28  C   UNL     1       3.786  14.337  20.753  0.00  0.00    +0.000 C 
ENDBRANCH  22  23
ENDBRANCH  21  22
ENDBRANCH  20  21
ENDBRANCH  18  20
ENDBRANCH  17  18
TORSDOF 5
ENDMDL
MODEL 9
REMARK VINA RESULT:      -7.8      0.839      1.183
REMARK  Name = 
REMARK  5 active torsions:
REMARK  status: ('A' for Active; 'I' for Inactive)
REMARK    1  A    between atoms: C_17  and  N_18
REMARK    2  A    between atoms: N_18  and  C_19
REMARK    3  A    between atoms: C_19  and  C_20
REMARK    4  A    between atoms: C_20  and  C_21
REMARK    5  A    between atoms: C_21  and  N_22
REMARK                            x       y       z     vdW  Elec       q    Type
REMARK                         _______ _______ _______ _____ _____    ______ ____
ROOT
ATOM      1  C   UNL     1       1.301   4.401  20.702  0.00  0.00    +0.000 A 
ATOM      2  C   UNL     1       1.361   3.289  19.843  0.00  0.00    +0.000 A 
ATOM      3  C   UNL     1       2.226   3.273  18.741  0.00  0.00    +0.000 A 
ATOM      4  C   UNL     1       3.027   4.377  18.517  0.00  0.00    +0.000 A 
ATOM      5  C   UNL     1       2.963   5.479  19.388  0.00  0.00    +0.000 A 
ATOM      6  C   UNL     1       2.108   5.514  20.477  0.00  0.00    +0.000 A 
ATOM      7  C   UNL     1       3.947   6.533  18.947  0.00  0.00    +0.000 C 
ATOM      8  C   UNL     1       4.592   5.926  17.716  0.00  0.00    +0.000 A 
ATOM      9  C   UNL     1       4.011   4.665  17.493  0.00  0.00    +0.000 A 
ATOM     10  N   UNL     1       4.314   3.835  16.489  0.00  0.00    +0.000 NA
ATOM     11  C   UNL     1       5.256   4.270  15.639  0.00  0.00    +0.000 A 
ATOM     12  C   UNL     1       5.604   3.421  14.595  0.00  0.00    +0.000 A 
ATOM     13  C   UNL     1       6.574   3.761  13.649  0.00  0.00    +0.000 A 
ATOM     14  C   UNL     1       7.225   4.980  13.746  0.00  0.00    +0.000 A 
ATOM     15  C   UNL     1       6.903   5.851  14.788  0.00  0.00    +0.000 A 
ATOM     16  C   UNL     1       5.912   5.534  15.753  0.00  0.00    +0.000 A 
ATOM     17  C   UNL     1       5.555   6.410  16.831  0.00  0.00    +0.000 A 
ENDROOT
BRANCH  17  18
ATOM     18  N   UNL     1       6.255   7.622  16.996  0.00  0.00    +0.000 N 
ATOM     19  H   UNL     1       5.631   8.420  17.058  0.00  0.00    +0.000 HD
BRANCH  18  20
ATOM     20  C   UNL     1       7.408   7.716  17.878  0.00  0.00    +0.000 C 
BRANCH  20  21
ATOM     21  C   UNL     1       8.198   9.013  17.677  0.00  0.00    +0.000 C 
BRANCH  21  22
ATOM     22  C   UNL     1       8.883   9.439  18.993  0.00  0.00    +0.000 C 
BRANCH  22  23
ATOM     23  N   UNL     1       9.189  10.868  19.002  0.00  0.00    +0.000 NA
ATOM     24  C   UNL     1      10.609  11.188  19.250  0.00  0.00    +0.000 C 
ATOM     25  C   UNL     1      10.758  12.705  19.457  0.00  0.00    +0.000 C 
ATOM     26  O   UNL     1      10.271  13.442  18.325  0.00  0.00    +0.000 OA
ATOM     27  C   UNL     1       8.905  13.096  18.048  0.00  0.00    +0.000 C 
ATOM     28  C   UNL     1       8.758  11.585  17.792  0.00  0.00    +0.000 C 
ENDBRANCH  22  23
ENDBRANCH  21  22
ENDBRANCH  20  21
ENDBRANCH  18  20
ENDBRANCH  17  18
TORSDOF 5
ENDMDL
