MODEL 1
REMARK VINA RESULT:      -7.8      0.000      0.000
REMARK  Name = 
REMARK  9 active torsions:
REMARK  status: ('A' for Active; 'I' for Inactive)
REMARK    1  A    between atoms: C_1  and  O_2
REMARK    2  A    between atoms: O_2  and  C_3
REMARK    3  A    between atoms: C_3  and  C_4
REMARK    4  A    between atoms: C_4  and  N_5
REMARK    5  A    between atoms: N_7  and  C_8
REMARK    6  A    between atoms: C_11  and  C_12
REMARK    7  A    between atoms: C_12  and  N_13
REMARK    8  A    between atoms: N_13  and  C_14
REMARK    9  A    between atoms: C_14  and  C_15
REMARK                            x       y       z     vdW  Elec       q    Type
REMARK                         _______ _______ _______ _____ _____    ______ ____
ROOT
ATOM      1  N   UNL     1       1.655   3.819  17.972  0.00  0.00    +0.000 N 
ATOM      2  C   UNL     1       1.524   5.198  17.615  0.00  0.00    +0.000 C 
ATOM      3  N   UNL     1       2.691   5.903  18.127  0.00  0.00    +0.000 N 
ATOM      4  C   UNL     1       3.895   5.393  17.576  0.00  0.00    +0.000 A 
ATOM      5  C   UNL     1       3.928   4.016  17.203  0.00  0.00    +0.000 A 
ATOM      6  C   UNL     1       5.054   3.400  16.675  0.00  0.00    +0.000 A 
ATOM      7  N   UNL     1       6.228   4.015  16.472  0.00  0.00    +0.000 NA
ATOM      8  C   UNL     1       6.198   5.312  16.823  0.00  0.00    +0.000 A 
ATOM      9  N   UNL     1       7.305   6.107  16.722  0.00  0.00    +0.000 N 
ATOM     10  C   UNL     1       6.982   7.390  17.054  0.00  0.00    +0.000 A 
ATOM     11  C   UNL     1       5.645   7.396  17.417  0.00  0.00    +0.000 A 
ATOM     12  C   UNL     1       5.130   6.062  17.333  0.00  0.00    +0.000 A 
ATOM     13  C   UNL     1       2.781   3.154  17.541  0.00  0.00    +0.000 C 
ATOM     14  O   UNL     1       2.895   1.934  17.531  0.00  0.00    +0.000 OA
ATOM     15  H   UNL     1       8.205   5.763  16.422  0.00  0.00    +0.000 HD
ENDROOT
BRANCH   3  16
ATOM     16  C   UNL     1       2.550   7.161  18.885  0.00  0.00    +0.000 C 
ATOM     17  C   UNL     1       1.782   8.231  18.092  0.00  0.00    +0.000 C 
ATOM     18  C   UNL     1       1.660   9.531  18.856  0.00  0.00    +0.000 C 
ATOM     19  C   UNL     1       0.859   9.318  20.151  0.00  0.00    +0.000 C 
ATOM     20  C   UNL     1       1.527   8.222  21.006  0.00  0.00    +0.000 C 
ATOM     21  C   UNL     1       1.809   6.922  20.218  0.00  0.00    +0.000 C 
BRANCH  19  22
ATOM     22  C   UNL     1       0.687  10.662  20.897  0.00  0.00    +0.000 C 
BRANCH  22  23
ATOM     23  N   UNL     1       0.601  10.373  22.328  0.00  0.00    +0.000 NA
ATOM     24  H   UNL     1       1.137  11.049  22.875  0.00  0.00    +0.000 HD
BRANCH  23  25
ATOM     25  C   UNL     1      -0.763  10.249  22.867  0.00  0.00    +0.000 C 
BRANCH  25  26
ATOM     26  C   UNL     1      -1.590  11.561  22.854  0.00  0.00    +0.000 C 
ATOM     27  F   UNL     1      -2.648  11.505  23.700  0.00  0.00    +0.000 F 
ATOM     28  F   UNL     1      -0.830  12.611  23.242  0.00  0.00    +0.000 F 
ATOM     29  F   UNL     1      -2.068  11.834  21.620  0.00  0.00    +0.000 F 
ENDBRANCH  25  26
ENDBRANCH  23  25
ENDBRANCH  22  23
ENDBRANCH  19  22
ENDBRANCH   3  16
BRANCH   1  30
ATOM     30  C   UNL     1       0.893   3.265  19.088  0.00  0.00    +0.000 C 
BRANCH  30  31
ATOM     31  C   UNL     1       1.432   3.596  20.479  0.00  0.00    +0.000 C 
BRANCH  31  33
ATOM     32  C   UNL     1       3.397   2.440  21.076  0.00  0.00    +0.000 C 
ATOM     33  O   UNL     1       1.983   2.423  21.080  0.00  0.00    +0.000 OA
ENDBRANCH  31  33
ENDBRANCH  30  31
ENDBRANCH   1  30
TORSDOF 8
ENDMDL
MODEL 2
REMARK VINA RESULT:      -7.7      1.043      1.218
REMARK  Name = 
REMARK  9 active torsions:
REMARK  status: ('A' for Active; 'I' for Inactive)
REMARK    1  A    between atoms: C_1  and  O_2
REMARK    2  A    between atoms: O_2  and  C_3
REMARK    3  A    between atoms: C_3  and  C_4
REMARK    4  A    between atoms: C_4  and  N_5
REMARK    5  A    between atoms: N_7  and  C_8
REMARK    6  A    between atoms: C_11  and  C_12
REMARK    7  A    between atoms: C_12  and  N_13
REMARK    8  A    between atoms: N_13  and  C_14
REMARK    9  A    between atoms: C_14  and  C_15
REMARK                            x       y       z     vdW  Elec       q    Type
REMARK                         _______ _______ _______ _____ _____    ______ ____
ROOT
ATOM      1  N   UNL     1       1.914   3.793  18.089  0.00  0.00    +0.000 N 
ATOM      2  C   UNL     1       1.741   5.118  17.580  0.00  0.00    +0.000 C 
ATOM      3  N   UNL     1       2.889   5.910  18.002  0.00  0.00    +0.000 N 
ATOM      4  C   UNL     1       4.106   5.377  17.505  0.00  0.00    +0.000 A 
ATOM      5  C   UNL     1       4.178   3.968  17.290  0.00  0.00    +0.000 A 
ATOM      6  C   UNL     1       5.320   3.329  16.828  0.00  0.00    +0.000 A 
ATOM      7  N   UNL     1       6.475   3.950  16.550  0.00  0.00    +0.000 NA
ATOM      8  C   UNL     1       6.408   5.277  16.753  0.00  0.00    +0.000 A 
ATOM      9  N   UNL     1       7.491   6.087  16.557  0.00  0.00    +0.000 N 
ATOM     10  C   UNL     1       7.131   7.389  16.743  0.00  0.00    +0.000 A 
ATOM     11  C   UNL     1       5.796   7.398  17.112  0.00  0.00    +0.000 A 
ATOM     12  C   UNL     1       5.320   6.048  17.181  0.00  0.00    +0.000 A 
ATOM     13  C   UNL     1       3.058   3.116  17.730  0.00  0.00    +0.000 C 
ATOM     14  O   UNL     1       3.207   1.906  17.857  0.00  0.00    +0.000 OA
ATOM     15  H   UNL     1       8.400   5.738  16.292  0.00  0.00    +0.000 HD
ENDROOT
BRANCH   3  16
ATOM     16  C   UNL     1       2.713   7.241  18.614  0.00  0.00    +0.000 C 
ATOM     17  C   UNL     1       2.128   8.260  17.623  0.00  0.00    +0.000 C 
ATOM     18  C   UNL     1       1.972   9.633  18.240  0.00  0.00    +0.000 C 
ATOM     19  C   UNL     1       0.983   9.582  19.416  0.00  0.00    +0.000 C 
ATOM     20  C   UNL     1       1.459   8.548  20.456  0.00  0.00    +0.000 C 
ATOM     21  C   UNL     1       1.776   7.166  19.839  0.00  0.00    +0.000 C 
BRANCH  19  22
ATOM     22  C   UNL     1       0.784  10.999  20.004  0.00  0.00    +0.000 C 
BRANCH  22  23
ATOM     23  N   UNL     1       1.022  10.925  21.445  0.00  0.00    +0.000 NA
ATOM     24  H   UNL     1       1.837  11.479  21.714  0.00  0.00    +0.000 HD
BRANCH  23  25
ATOM     25  C   UNL     1      -0.129  11.266  22.295  0.00  0.00    +0.000 C 
BRANCH  25  26
ATOM     26  C   UNL     1      -0.768  10.063  23.039  0.00  0.00    +0.000 C 
ATOM     27  F   UNL     1      -1.943  10.394  23.627  0.00  0.00    +0.000 F 
ATOM     28  F   UNL     1      -1.027   9.050  22.180  0.00  0.00    +0.000 F 
ATOM     29  F   UNL     1       0.051   9.584  24.002  0.00  0.00    +0.000 F 
ENDBRANCH  25  26
ENDBRANCH  23  25
ENDBRANCH  22  23
ENDBRANCH  19  22
ENDBRANCH   3  16
BRANCH   1  30
ATOM     30  C   UNL     1       1.171   3.347  19.265  0.00  0.00    +0.000 C 
BRANCH  30  31
ATOM     31  C   UNL     1       1.159   4.322  20.443  0.00  0.00    +0.000 C 
BRANCH  31  33
ATOM     32  C   UNL     1       2.211   2.563  21.606  0.00  0.00    +0.000 C 
ATOM     33  O   UNL     1       2.168   3.959  21.386  0.00  0.00    +0.000 OA
ENDBRANCH  31  33
ENDBRANCH  30  31
ENDBRANCH   1  30
TORSDOF 8
ENDMDL
MODEL 3
REMARK VINA RESULT:      -7.7      1.927      2.101
REMARK  Name = 
REMARK  9 active torsions:
REMARK  status: ('A' for Active; 'I' for Inactive)
REMARK    1  A    between atoms: C_1  and  O_2
REMARK    2  A    between atoms: O_2  and  C_3
REMARK    3  A    between atoms: C_3  and  C_4
REMARK    4  A    between atoms: C_4  and  N_5
REMARK    5  A    between atoms: N_7  and  C_8
REMARK    6  A    between atoms: C_11  and  C_12
REMARK    7  A    between atoms: C_12  and  N_13
REMARK    8  A    between atoms: N_13  and  C_14
REMARK    9  A    between atoms: C_14  and  C_15
REMARK                            x       y       z     vdW  Elec       q    Type
REMARK                         _______ _______ _______ _____ _____    ______ ____
ROOT
ATOM      1  N   UNL     1       1.726   3.757  17.993  0.00  0.00    +0.000 N 
ATOM      2  C   UNL     1       1.585   5.116  17.570  0.00  0.00    +0.000 C 
ATOM      3  N   UNL     1       2.742   5.855  18.057  0.00  0.00    +0.000 N 
ATOM      4  C   UNL     1       3.955   5.332  17.541  0.00  0.00    +0.000 A 
ATOM      5  C   UNL     1       4.003   3.939  17.233  0.00  0.00    +0.000 A 
ATOM      6  C   UNL     1       5.139   3.310  16.744  0.00  0.00    +0.000 A 
ATOM      7  N   UNL     1       6.310   3.925  16.521  0.00  0.00    +0.000 NA
ATOM      8  C   UNL     1       6.265   5.237  16.810  0.00  0.00    +0.000 A 
ATOM      9  N   UNL     1       7.365   6.037  16.681  0.00  0.00    +0.000 N 
ATOM     10  C   UNL     1       7.028   7.330  16.948  0.00  0.00    +0.000 A 
ATOM     11  C   UNL     1       5.688   7.341  17.301  0.00  0.00    +0.000 A 
ATOM     12  C   UNL     1       5.186   6.000  17.275  0.00  0.00    +0.000 A 
ATOM     13  C   UNL     1       2.862   3.083  17.604  0.00  0.00    +0.000 C 
ATOM     14  O   UNL     1       2.987   1.865  17.652  0.00  0.00    +0.000 OA
ATOM     15  H   UNL     1       8.271   5.687  16.404  0.00  0.00    +0.000 HD
ENDROOT
BRANCH   3  16
ATOM     16  C   UNL     1       2.583   7.147  18.753  0.00  0.00    +0.000 C 
ATOM     17  C   UNL     1       1.890   8.198  17.871  0.00  0.00    +0.000 C 
ATOM     18  C   UNL     1       1.750   9.532  18.573  0.00  0.00    +0.000 C 
ATOM     19  C   UNL     1       0.867   9.389  19.822  0.00  0.00    +0.000 C 
ATOM     20  C   UNL     1       1.456   8.317  20.761  0.00  0.00    +0.000 C 
ATOM     21  C   UNL     1       1.756   6.979  20.046  0.00  0.00    +0.000 C 
BRANCH  19  22
ATOM     22  C   UNL     1       0.680  10.766  20.501  0.00  0.00    +0.000 C 
BRANCH  22  23
ATOM     23  N   UNL     1      -0.103  11.609  19.599  0.00  0.00    +0.000 NA
ATOM     24  H   UNL     1       0.298  11.618  18.660  0.00  0.00    +0.000 HD
BRANCH  23  25
ATOM     25  C   UNL     1      -1.541  11.303  19.537  0.00  0.00    +0.000 C 
BRANCH  25  26
ATOM     26  C   UNL     1      -2.054  10.868  18.138  0.00  0.00    +0.000 C 
ATOM     27  F   UNL     1      -2.980   9.882  18.219  0.00  0.00    +0.000 F 
ATOM     28  F   UNL     1      -2.638  11.907  17.497  0.00  0.00    +0.000 F 
ATOM     29  F   UNL     1      -1.046  10.420  17.358  0.00  0.00    +0.000 F 
ENDBRANCH  25  26
ENDBRANCH  23  25
ENDBRANCH  22  23
ENDBRANCH  19  22
ENDBRANCH   3  16
BRANCH   1  30
ATOM     30  C   UNL     1       0.960   3.250  19.128  0.00  0.00    +0.000 C 
BRANCH  30  31
ATOM     31  C   UNL     1       1.482   3.654  20.507  0.00  0.00    +0.000 C 
BRANCH  31  33
ATOM     32  C   UNL     1       3.301   2.344  21.232  0.00  0.00    +0.000 C 
ATOM     33  O   UNL     1       1.895   2.495  21.230  0.00  0.00    +0.000 OA
ENDBRANCH  31  33
ENDBRANCH  30  31
ENDBRANCH   1  30
TORSDOF 8
ENDMDL
MODEL 4
REMARK VINA RESULT:      -7.7      2.381      2.738
REMARK  Name = 
REMARK  9 active torsions:
REMARK  status: ('A' for Active; 'I' for Inactive)
REMARK    1  A    between atoms: C_1  and  O_2
REMARK    2  A    between atoms: O_2  and  C_3
REMARK    3  A    between atoms: C_3  and  C_4
REMARK    4  A    between atoms: C_4  and  N_5
REMARK    5  A    between atoms: N_7  and  C_8
REMARK    6  A    between atoms: C_11  and  C_12
REMARK    7  A    between atoms: C_12  and  N_13
REMARK    8  A    between atoms: N_13  and  C_14
REMARK    9  A    between atoms: C_14  and  C_15
REMARK                            x       y       z     vdW  Elec       q    Type
REMARK                         _______ _______ _______ _____ _____    ______ ____
ROOT
ATOM      1  N   UNL     1       2.331   4.050  18.646  0.00  0.00    +0.000 N 
ATOM      2  C   UNL     1       2.111   5.256  17.908  0.00  0.00    +0.000 C 
ATOM      3  N   UNL     1       3.128   6.217  18.315  0.00  0.00    +0.000 N 
ATOM      4  C   UNL     1       4.437   5.741  18.048  0.00  0.00    +0.000 A 
ATOM      5  C   UNL     1       4.653   4.331  18.078  0.00  0.00    +0.000 A 
ATOM      6  C   UNL     1       5.894   3.749  17.854  0.00  0.00    +0.000 A 
ATOM      7  N   UNL     1       7.018   4.435  17.604  0.00  0.00    +0.000 NA
ATOM      8  C   UNL     1       6.814   5.763  17.575  0.00  0.00    +0.000 A 
ATOM      9  N   UNL     1       7.841   6.641  17.365  0.00  0.00    +0.000 N 
ATOM     10  C   UNL     1       7.353   7.912  17.293  0.00  0.00    +0.000 A 
ATOM     11  C   UNL     1       5.987   7.840  17.509  0.00  0.00    +0.000 A 
ATOM     12  C   UNL     1       5.621   6.476  17.749  0.00  0.00    +0.000 A 
ATOM     13  C   UNL     1       3.563   3.447  18.530  0.00  0.00    +0.000 C 
ATOM     14  O   UNL     1       3.797   2.293  18.871  0.00  0.00    +0.000 OA
ATOM     15  H   UNL     1       8.802   6.350  17.261  0.00  0.00    +0.000 HD
ENDROOT
BRANCH   3  16
ATOM     16  C   UNL     1       2.766   7.602  18.674  0.00  0.00    +0.000 C 
ATOM     17  C   UNL     1       2.012   8.315  17.541  0.00  0.00    +0.000 C 
ATOM     18  C   UNL     1       1.664   9.745  17.898  0.00  0.00    +0.000 C 
ATOM     19  C   UNL     1       0.722   9.780  19.112  0.00  0.00    +0.000 C 
ATOM     20  C   UNL     1       1.372   9.044  20.301  0.00  0.00    +0.000 C 
ATOM     21  C   UNL     1       1.880   7.630  19.938  0.00  0.00    +0.000 C 
BRANCH  19  22
ATOM     22  C   UNL     1       0.324  11.239  19.434  0.00  0.00    +0.000 C 
BRANCH  22  23
ATOM     23  N   UNL     1      -0.355  11.789  18.261  0.00  0.00    +0.000 NA
ATOM     24  H   UNL     1       0.006  11.376  17.398  0.00  0.00    +0.000 HD
BRANCH  23  25
ATOM     25  C   UNL     1      -1.824  11.713  18.287  0.00  0.00    +0.000 C 
BRANCH  25  26
ATOM     26  C   UNL     1      -2.442  10.701  17.286  0.00  0.00    +0.000 C 
ATOM     27  F   UNL     1      -1.508   9.872  16.758  0.00  0.00    +0.000 F 
ATOM     28  F   UNL     1      -3.362   9.920  17.899  0.00  0.00    +0.000 F 
ATOM     29  F   UNL     1      -3.057  11.330  16.260  0.00  0.00    +0.000 F 
ENDBRANCH  25  26
ENDBRANCH  23  25
ENDBRANCH  22  23
ENDBRANCH  19  22
ENDBRANCH   3  16
BRANCH   1  30
ATOM     30  C   UNL     1       1.489   3.717  19.793  0.00  0.00    +0.000 C 
BRANCH  30  31
ATOM     31  C   UNL     1       1.855   4.419  21.101  0.00  0.00    +0.000 C 
BRANCH  31  33
ATOM     32  C   UNL     1       1.558   2.224  21.904  0.00  0.00    +0.000 C 
ATOM     33  O   UNL     1       2.233   3.453  22.082  0.00  0.00    +0.000 OA
ENDBRANCH  31  33
ENDBRANCH  30  31
ENDBRANCH   1  30
TORSDOF 8
ENDMDL
MODEL 5
REMARK VINA RESULT:      -7.6      2.899      5.071
REMARK  Name = 
REMARK  9 active torsions:
REMARK  status: ('A' for Active; 'I' for Inactive)
REMARK    1  A    between atoms: C_1  and  O_2
REMARK    2  A    between atoms: O_2  and  C_3
REMARK    3  A    between atoms: C_3  and  C_4
REMARK    4  A    between atoms: C_4  and  N_5
REMARK    5  A    between atoms: N_7  and  C_8
REMARK    6  A    between atoms: C_11  and  C_12
REMARK    7  A    between atoms: C_12  and  N_13
REMARK    8  A    between atoms: N_13  and  C_14
REMARK    9  A    between atoms: C_14  and  C_15
REMARK                            x       y       z     vdW  Elec       q    Type
REMARK                         _______ _______ _______ _____ _____    ______ ____
ROOT
ATOM      1  N   UNL     1       5.690   5.970  18.033  0.00  0.00    +0.000 N 
ATOM      2  C   UNL     1       4.799   6.355  19.084  0.00  0.00    +0.000 C 
ATOM      3  N   UNL     1       3.457   5.933  18.705  0.00  0.00    +0.000 N 
ATOM      4  C   UNL     1       3.380   4.529  18.522  0.00  0.00    +0.000 A 
ATOM      5  C   UNL     1       4.555   3.848  18.083  0.00  0.00    +0.000 A 
ATOM      6  C   UNL     1       4.596   2.481  17.848  0.00  0.00    +0.000 A 
ATOM      7  N   UNL     1       3.548   1.656  17.989  0.00  0.00    +0.000 NA
ATOM      8  C   UNL     1       2.441   2.297  18.403  0.00  0.00    +0.000 A 
ATOM      9  N   UNL     1       1.256   1.639  18.578  0.00  0.00    +0.000 N 
ATOM     10  C   UNL     1       0.325   2.496  19.086  0.00  0.00    +0.000 A 
ATOM     11  C   UNL     1       0.925   3.740  19.192  0.00  0.00    +0.000 A 
ATOM     12  C   UNL     1       2.271   3.654  18.706  0.00  0.00    +0.000 A 
ATOM     13  C   UNL     1       5.738   4.637  17.694  0.00  0.00    +0.000 C 
ATOM     14  O   UNL     1       6.632   4.131  17.025  0.00  0.00    +0.000 OA
ATOM     15  H   UNL     1       1.134   0.659  18.372  0.00  0.00    +0.000 HD
ENDROOT
BRANCH   3  16
ATOM     16  C   UNL     1       2.311   6.857  18.807  0.00  0.00    +0.000 C 
ATOM     17  C   UNL     1       2.134   7.403  20.233  0.00  0.00    +0.000 C 
ATOM     18  C   UNL     1       0.942   8.330  20.346  0.00  0.00    +0.000 C 
ATOM     19  C   UNL     1       1.137   9.564  19.449  0.00  0.00    +0.000 C 
ATOM     20  C   UNL     1       1.369   9.120  17.991  0.00  0.00    +0.000 C 
ATOM     21  C   UNL     1       2.481   8.055  17.848  0.00  0.00    +0.000 C 
BRANCH  19  22
ATOM     22  C   UNL     1      -0.057  10.534  19.614  0.00  0.00    +0.000 C 
BRANCH  22  23
ATOM     23  N   UNL     1      -0.295  11.176  18.323  0.00  0.00    +0.000 NA
ATOM     24  H   UNL     1       0.184  10.680  17.569  0.00  0.00    +0.000 HD
BRANCH  23  25
ATOM     25  C   UNL     1      -1.709  11.391  17.974  0.00  0.00    +0.000 C 
BRANCH  25  26
ATOM     26  C   UNL     1      -2.395  10.191  17.270  0.00  0.00    +0.000 C 
ATOM     27  F   UNL     1      -1.513   9.442  16.564  0.00  0.00    +0.000 F 
ATOM     28  F   UNL     1      -2.974   9.369  18.177  0.00  0.00    +0.000 F 
ATOM     29  F   UNL     1      -3.359  10.602  16.416  0.00  0.00    +0.000 F 
ENDBRANCH  25  26
ENDBRANCH  23  25
ENDBRANCH  22  23
ENDBRANCH  19  22
ENDBRANCH   3  16
BRANCH   1  30
ATOM     30  C   UNL     1       6.178   6.959  17.075  0.00  0.00    +0.000 C 
BRANCH  30  31
ATOM     31  C   UNL     1       7.692   7.176  17.069  0.00  0.00    +0.000 C 
BRANCH  31  33
ATOM     32  C   UNL     1       8.235   9.250  18.045  0.00  0.00    +0.000 C 
ATOM     33  O   UNL     1       8.090   7.860  18.258  0.00  0.00    +0.000 OA
ENDBRANCH  31  33
ENDBRANCH  30  31
ENDBRANCH   1  30
TORSDOF 8
ENDMDL
MODEL 6
REMARK VINA RESULT:      -7.4      2.266      2.547
REMARK  Name = 
REMARK  9 active torsions:
REMARK  status: ('A' for Active; 'I' for Inactive)
REMARK    1  A    between atoms: C_1  and  O_2
REMARK    2  A    between atoms: O_2  and  C_3
REMARK    3  A    between atoms: C_3  and  C_4
REMARK    4  A    between atoms: C_4  and  N_5
REMARK    5  A    between atoms: N_7  and  C_8
REMARK    6  A    between atoms: C_11  and  C_12
REMARK    7  A    between atoms: C_12  and  N_13
REMARK    8  A    between atoms: N_13  and  C_14
REMARK    9  A    between atoms: C_14  and  C_15
REMARK                            x       y       z     vdW  Elec       q    Type
REMARK                         _______ _______ _______ _____ _____    ______ ____
ROOT
ATOM      1  N   UNL     1       1.673   3.846  18.080  0.00  0.00    +0.000 N 
ATOM      2  C   UNL     1       1.544   5.200  17.635  0.00  0.00    +0.000 C 
ATOM      3  N   UNL     1       2.712   5.934  18.103  0.00  0.00    +0.000 N 
ATOM      4  C   UNL     1       3.916   5.390  17.589  0.00  0.00    +0.000 A 
ATOM      5  C   UNL     1       3.948   3.992  17.304  0.00  0.00    +0.000 A 
ATOM      6  C   UNL     1       5.074   3.342  16.819  0.00  0.00    +0.000 A 
ATOM      7  N   UNL     1       6.250   3.941  16.580  0.00  0.00    +0.000 NA
ATOM      8  C   UNL     1       6.220   5.257  16.847  0.00  0.00    +0.000 A 
ATOM      9  N   UNL     1       7.329   6.044  16.698  0.00  0.00    +0.000 N 
ATOM     10  C   UNL     1       7.006   7.345  16.946  0.00  0.00    +0.000 A 
ATOM     11  C   UNL     1       5.669   7.376  17.306  0.00  0.00    +0.000 A 
ATOM     12  C   UNL     1       5.152   6.040  17.305  0.00  0.00    +0.000 A 
ATOM     13  C   UNL     1       2.799   3.154  17.695  0.00  0.00    +0.000 C 
ATOM     14  O   UNL     1       2.911   1.935  17.763  0.00  0.00    +0.000 OA
ATOM     15  H   UNL     1       8.229   5.680  16.422  0.00  0.00    +0.000 HD
ENDROOT
BRANCH   3  16
ATOM     16  C   UNL     1       2.571   7.239  18.778  0.00  0.00    +0.000 C 
ATOM     17  C   UNL     1       1.860   8.275  17.893  0.00  0.00    +0.000 C 
ATOM     18  C   UNL     1       1.739   9.622  18.573  0.00  0.00    +0.000 C 
ATOM     19  C   UNL     1       0.882   9.504  19.844  0.00  0.00    +0.000 C 
ATOM     20  C   UNL     1       1.490   8.448  20.789  0.00  0.00    +0.000 C 
ATOM     21  C   UNL     1       1.772   7.097  20.092  0.00  0.00    +0.000 C 
BRANCH  19  22
ATOM     22  C   UNL     1       0.714  10.894  20.502  0.00  0.00    +0.000 C 
BRANCH  22  23
ATOM     23  N   UNL     1       0.480  11.869  19.437  0.00  0.00    +0.000 NA
ATOM     24  H   UNL     1      -0.509  11.915  19.188  0.00  0.00    +0.000 HD
BRANCH  23  25
ATOM     25  C   UNL     1       1.006  13.220  19.690  0.00  0.00    +0.000 C 
BRANCH  25  26
ATOM     26  C   UNL     1       2.181  13.644  18.771  0.00  0.00    +0.000 C 
ATOM     27  F   UNL     1       1.986  14.871  18.228  0.00  0.00    +0.000 F 
ATOM     28  F   UNL     1       3.340  13.701  19.468  0.00  0.00    +0.000 F 
ATOM     29  F   UNL     1       2.356  12.771  17.755  0.00  0.00    +0.000 F 
ENDBRANCH  25  26
ENDBRANCH  23  25
ENDBRANCH  22  23
ENDBRANCH  19  22
ENDBRANCH   3  16
BRANCH   1  30
ATOM     30  C   UNL     1       0.908   3.366  19.227  0.00  0.00    +0.000 C 
BRANCH  30  31
ATOM     31  C   UNL     1       1.293   3.976  20.575  0.00  0.00    +0.000 C 
BRANCH  31  33
ATOM     32  C   UNL     1       2.822   2.443  21.505  0.00  0.00    +0.000 C 
ATOM     33  O   UNL     1       1.499   2.941  21.537  0.00  0.00    +0.000 OA
ENDBRANCH  31  33
ENDBRANCH  30  31
ENDBRANCH   1  30
TORSDOF 8
ENDMDL
MODEL 7
REMARK VINA RESULT:      -7.4      2.345      4.593
REMARK  Name = 
REMARK  9 active torsions:
REMARK  status: ('A' for Active; 'I' for Inactive)
REMARK    1  A    between atoms: C_1  and  O_2
REMARK    2  A    between atoms: O_2  and  C_3
REMARK    3  A    between atoms: C_3  and  C_4
REMARK    4  A    between atoms: C_4  and  N_5
REMARK    5  A    between atoms: N_7  and  C_8
REMARK    6  A    between atoms: C_11  and  C_12
REMARK    7  A    between atoms: C_12  and  N_13
REMARK    8  A    between atoms: N_13  and  C_14
REMARK    9  A    between atoms: C_14  and  C_15
REMARK                            x       y       z     vdW  Elec       q    Type
REMARK                         _______ _______ _______ _____ _____    ______ ____
ROOT
ATOM      1  N   UNL     1       5.867   5.903  17.993  0.00  0.00    +0.000 N 
ATOM      2  C   UNL     1       4.946   6.344  18.996  0.00  0.00    +0.000 C 
ATOM      3  N   UNL     1       3.609   5.949  18.575  0.00  0.00    +0.000 N 
ATOM      4  C   UNL     1       3.498   4.542  18.430  0.00  0.00    +0.000 A 
ATOM      5  C   UNL     1       4.669   3.816  18.059  0.00  0.00    +0.000 A 
ATOM      6  C   UNL     1       4.680   2.441  17.866  0.00  0.00    +0.000 A 
ATOM      7  N   UNL     1       3.603   1.651  17.989  0.00  0.00    +0.000 NA
ATOM      8  C   UNL     1       2.500   2.335  18.339  0.00  0.00    +0.000 A 
ATOM      9  N   UNL     1       1.290   1.716  18.485  0.00  0.00    +0.000 N 
ATOM     10  C   UNL     1       0.365   2.614  18.929  0.00  0.00    +0.000 A 
ATOM     11  C   UNL     1       0.997   3.843  19.022  0.00  0.00    +0.000 A 
ATOM     12  C   UNL     1       2.357   3.705  18.595  0.00  0.00    +0.000 A 
ATOM     13  C   UNL     1       5.890   4.559  17.696  0.00  0.00    +0.000 C 
ATOM     14  O   UNL     1       6.794   4.008  17.079  0.00  0.00    +0.000 OA
ATOM     15  H   UNL     1       1.148   0.734  18.303  0.00  0.00    +0.000 HD
ENDROOT
BRANCH   3  16
ATOM     16  C   UNL     1       2.487   6.907  18.603  0.00  0.00    +0.000 C 
ATOM     17  C   UNL     1       2.185   7.403  20.027  0.00  0.00    +0.000 C 
ATOM     18  C   UNL     1       1.018   8.365  20.061  0.00  0.00    +0.000 C 
ATOM     19  C   UNL     1       1.338   9.625  19.241  0.00  0.00    +0.000 C 
ATOM     20  C   UNL     1       1.701   9.231  17.795  0.00  0.00    +0.000 C 
ATOM     21  C   UNL     1       2.788   8.135  17.717  0.00  0.00    +0.000 C 
BRANCH  19  22
ATOM     22  C   UNL     1       0.164  10.629  19.330  0.00  0.00    +0.000 C 
BRANCH  22  23
ATOM     23  N   UNL     1      -0.638  10.279  20.501  0.00  0.00    +0.000 NA
ATOM     24  H   UNL     1      -0.881   9.287  20.500  0.00  0.00    +0.000 HD
BRANCH  23  25
ATOM     25  C   UNL     1      -0.062  10.662  21.800  0.00  0.00    +0.000 C 
BRANCH  25  26
ATOM     26  C   UNL     1      -0.561   9.825  23.006  0.00  0.00    +0.000 C 
ATOM     27  F   UNL     1      -1.593  10.423  23.650  0.00  0.00    +0.000 F 
ATOM     28  F   UNL     1      -1.001   8.611  22.599  0.00  0.00    +0.000 F 
ATOM     29  F   UNL     1       0.422   9.622  23.910  0.00  0.00    +0.000 F 
ENDBRANCH  25  26
ENDBRANCH  23  25
ENDBRANCH  22  23
ENDBRANCH  19  22
ENDBRANCH   3  16
BRANCH   1  30
ATOM     30  C   UNL     1       6.422   6.848  17.027  0.00  0.00    +0.000 C 
BRANCH  30  31
ATOM     31  C   UNL     1       7.711   7.546  17.458  0.00  0.00    +0.000 C 
BRANCH  31  33
ATOM     32  C   UNL     1       8.556   9.584  18.286  0.00  0.00    +0.000 C 
ATOM     33  O   UNL     1       7.470   8.940  17.649  0.00  0.00    +0.000 OA
ENDBRANCH  31  33
ENDBRANCH  30  31
ENDBRANCH   1  30
TORSDOF 8
ENDMDL
MODEL 8
REMARK VINA RESULT:      -7.3      5.122      8.226
REMARK  Name = 
REMARK  9 active torsions:
REMARK  status: ('A' for Active; 'I' for Inactive)
REMARK    1  A    between atoms: C_1  and  O_2
REMARK    2  A    between atoms: O_2  and  C_3
REMARK    3  A    between atoms: C_3  and  C_4
REMARK    4  A    between atoms: C_4  and  N_5
REMARK    5  A    between atoms: N_7  and  C_8
REMARK    6  A    between atoms: C_11  and  C_12
REMARK    7  A    between atoms: C_12  and  N_13
REMARK    8  A    between atoms: N_13  and  C_14
REMARK    9  A    between atoms: C_14  and  C_15
REMARK                            x       y       z     vdW  Elec       q    Type
REMARK                         _______ _______ _______ _____ _____    ______ ____
ROOT
ATOM      1  N   UNL     1       3.515   3.610  20.337  0.00  0.00    +0.000 N 
ATOM      2  C   UNL     1       4.539   4.317  19.630  0.00  0.00    +0.000 C 
ATOM      3  N   UNL     1       3.891   5.152  18.628  0.00  0.00    +0.000 N 
ATOM      4  C   UNL     1       3.004   6.089  19.219  0.00  0.00    +0.000 A 
ATOM      5  C   UNL     1       2.372   5.726  20.446  0.00  0.00    +0.000 A 
ATOM      6  C   UNL     1       1.470   6.548  21.107  0.00  0.00    +0.000 A 
ATOM      7  N   UNL     1       1.082   7.754  20.667  0.00  0.00    +0.000 NA
ATOM      8  C   UNL     1       1.677   8.096  19.511  0.00  0.00    +0.000 A 
ATOM      9  N   UNL     1       1.392   9.275  18.880  0.00  0.00    +0.000 N 
ATOM     10  C   UNL     1       2.192   9.415  17.786  0.00  0.00    +0.000 A 
ATOM     11  C   UNL     1       2.972   8.274  17.697  0.00  0.00    +0.000 A 
ATOM     12  C   UNL     1       2.621   7.383  18.762  0.00  0.00    +0.000 A 
ATOM     13  C   UNL     1       2.543   4.356  20.963  0.00  0.00    +0.000 C 
ATOM     14  O   UNL     1       1.782   3.913  21.817  0.00  0.00    +0.000 OA
ATOM     15  H   UNL     1       0.700   9.927  19.219  0.00  0.00    +0.000 HD
ENDROOT
BRANCH   3  16
ATOM     16  C   UNL     1       4.363   5.170  17.230  0.00  0.00    +0.000 C 
ATOM     17  C   UNL     1       5.531   6.148  17.026  0.00  0.00    +0.000 C 
ATOM     18  C   UNL     1       5.999   6.188  15.587  0.00  0.00    +0.000 C 
ATOM     19  C   UNL     1       6.530   4.811  15.158  0.00  0.00    +0.000 C 
ATOM     20  C   UNL     1       5.439   3.741  15.367  0.00  0.00    +0.000 C 
ATOM     21  C   UNL     1       4.824   3.766  16.786  0.00  0.00    +0.000 C 
BRANCH  19  22
ATOM     22  C   UNL     1       7.060   4.874  13.707  0.00  0.00    +0.000 C 
BRANCH  22  23
ATOM     23  N   UNL     1       6.768   3.593  13.066  0.00  0.00    +0.000 NA
ATOM     24  H   UNL     1       6.149   3.022  13.644  0.00  0.00    +0.000 HD
BRANCH  23  25
ATOM     25  C   UNL     1       6.249   3.676  11.691  0.00  0.00    +0.000 C 
BRANCH  25  26
ATOM     26  C   UNL     1       4.781   3.202  11.520  0.00  0.00    +0.000 C 
ATOM     27  F   UNL     1       4.074   3.309  12.671  0.00  0.00    +0.000 F 
ATOM     28  F   UNL     1       4.140   3.951  10.592  0.00  0.00    +0.000 F 
ATOM     29  F   UNL     1       4.720   1.913  11.121  0.00  0.00    +0.000 F 
ENDBRANCH  25  26
ENDBRANCH  23  25
ENDBRANCH  22  23
ENDBRANCH  19  22
ENDBRANCH   3  16
BRANCH   1  30
ATOM     30  C   UNL     1       3.247   2.204  20.045  0.00  0.00    +0.000 C 
BRANCH  30  31
ATOM     31  C   UNL     1       1.914   1.920  19.353  0.00  0.00    +0.000 C 
BRANCH  31  33
ATOM     32  C   UNL     1       1.039   3.465  17.805  0.00  0.00    +0.000 C 
ATOM     33  O   UNL     1       1.949   2.403  18.010  0.00  0.00    +0.000 OA
ENDBRANCH  31  33
ENDBRANCH  30  31
ENDBRANCH   1  30
TORSDOF 8
ENDMDL
MODEL 9
REMARK VINA RESULT:      -7.2      1.221      1.450
REMARK  Name = 
REMARK  9 active torsions:
REMARK  status: ('A' for Active; 'I' for Inactive)
REMARK    1  A    between atoms: C_1  and  O_2
REMARK    2  A    between atoms: O_2  and  C_3
REMARK    3  A    between atoms: C_3  and  C_4
REMARK    4  A    between atoms: C_4  and  N_5
REMARK    5  A    between atoms: N_7  and  C_8
REMARK    6  A    between atoms: C_11  and  C_12
REMARK    7  A    between atoms: C_12  and  N_13
REMARK    8  A    between atoms: N_13  and  C_14
REMARK    9  A    between atoms: C_14  and  C_15
REMARK                            x       y       z     vdW  Elec       q    Type
REMARK                         _______ _______ _______ _____ _____    ______ ____
ROOT
ATOM      1  N   UNL     1       1.811   3.722  18.161  0.00  0.00    +0.000 N 
ATOM      2  C   UNL     1       1.626   5.077  17.743  0.00  0.00    +0.000 C 
ATOM      3  N   UNL     1       2.786   5.840  18.183  0.00  0.00    +0.000 N 
ATOM      4  C   UNL     1       3.988   5.340  17.618  0.00  0.00    +0.000 A 
ATOM      5  C   UNL     1       4.051   3.948  17.310  0.00  0.00    +0.000 A 
ATOM      6  C   UNL     1       5.179   3.340  16.776  0.00  0.00    +0.000 A 
ATOM      7  N   UNL     1       6.327   3.979  16.506  0.00  0.00    +0.000 NA
ATOM      8  C   UNL     1       6.267   5.290  16.796  0.00  0.00    +0.000 A 
ATOM      9  N   UNL     1       7.346   6.111  16.621  0.00  0.00    +0.000 N 
ATOM     10  C   UNL     1       6.993   7.398  16.901  0.00  0.00    +0.000 A 
ATOM     11  C   UNL     1       5.669   7.383  17.307  0.00  0.00    +0.000 A 
ATOM     12  C   UNL     1       5.193   6.032  17.303  0.00  0.00    +0.000 A 
ATOM     13  C   UNL     1       2.943   3.070  17.727  0.00  0.00    +0.000 C 
ATOM     14  O   UNL     1       3.094   1.854  17.771  0.00  0.00    +0.000 OA
ATOM     15  H   UNL     1       8.246   5.780  16.308  0.00  0.00    +0.000 HD
ENDROOT
BRANCH   3  16
ATOM     16  C   UNL     1       2.630   7.129  18.883  0.00  0.00    +0.000 C 
ATOM     17  C   UNL     1       1.985   8.200  17.988  0.00  0.00    +0.000 C 
ATOM     18  C   UNL     1       1.848   9.530  18.696  0.00  0.00    +0.000 C 
ATOM     19  C   UNL     1       0.923   9.395  19.916  0.00  0.00    +0.000 C 
ATOM     20  C   UNL     1       1.461   8.305  20.864  0.00  0.00    +0.000 C 
ATOM     21  C   UNL     1       1.759   6.968  20.148  0.00  0.00    +0.000 C 
BRANCH  19  22
ATOM     22  C   UNL     1       0.741  10.771  20.600  0.00  0.00    +0.000 C 
BRANCH  22  23
ATOM     23  N   UNL     1       0.018  11.641  19.673  0.00  0.00    +0.000 NA
ATOM     24  H   UNL     1       0.506  11.714  18.778  0.00  0.00    +0.000 HD
BRANCH  23  25
ATOM     25  C   UNL     1      -1.397  11.298  19.456  0.00  0.00    +0.000 C 
BRANCH  25  26
ATOM     26  C   UNL     1      -2.408  12.373  19.933  0.00  0.00    +0.000 C 
ATOM     27  F   UNL     1      -2.748  12.211  21.235  0.00  0.00    +0.000 F 
ATOM     28  F   UNL     1      -1.880  13.614  19.815  0.00  0.00    +0.000 F 
ATOM     29  F   UNL     1      -3.546  12.341  19.206  0.00  0.00    +0.000 F 
ENDBRANCH  25  26
ENDBRANCH  23  25
ENDBRANCH  22  23
ENDBRANCH  19  22
ENDBRANCH   3  16
BRANCH   1  30
ATOM     30  C   UNL     1       1.101   3.201  19.327  0.00  0.00    +0.000 C 
BRANCH  30  31
ATOM     31  C   UNL     1       1.102   4.109  20.556  0.00  0.00    +0.000 C 
BRANCH  31  33
ATOM     32  C   UNL     1       2.525   2.502  21.526  0.00  0.00    +0.000 C 
ATOM     33  O   UNL     1       2.280   3.880  21.330  0.00  0.00    +0.000 OA
ENDBRANCH  31  33
ENDBRANCH  30  31
ENDBRANCH   1  30
TORSDOF 8
ENDMDL
