MODEL 1
REMARK VINA RESULT:      -7.4      0.000      0.000
REMARK  Name = 
REMARK  11 active torsions:
REMARK  status: ('A' for Active; 'I' for Inactive)
REMARK    1  A    between atoms: C_1  and  N_2
REMARK    2  A    between atoms: N_2  and  C_3
REMARK    3  A    between atoms: C_4  and  C_6
REMARK    4  A    between atoms: C_6  and  C_7
REMARK    5  A    between atoms: C_9  and  C_10
REMARK    6  A    between atoms: C_13  and  N_14
REMARK    7  A    between atoms: C_21  and  C_22
REMARK    8  A    between atoms: N_24  and  C_25
REMARK    9  A    between atoms: C_25  and  C_26
REMARK   10  A    between atoms: C_25  and  C_27
REMARK   11  A    between atoms: C_25  and  C_28
REMARK                            x       y       z     vdW  Elec       q    Type
REMARK                         _______ _______ _______ _____ _____    ______ ____
ROOT
ATOM      1  N   UNL     1      -0.262   9.952  20.342  0.00  0.00    +0.000 N 
ATOM      2  C   UNL     1      -0.363  11.341  20.080  0.00  0.00    +0.000 A 
ATOM      3  C   UNL     1      -1.626  11.951  20.144  0.00  0.00    +0.000 A 
ATOM      4  N   UNL     1      -1.882  13.253  19.853  0.00  0.00    +0.000 NA
ATOM      5  C   UNL     1      -0.749  13.888  19.494  0.00  0.00    +0.000 A 
ATOM      6  N   UNL     1      -0.664  15.188  19.092  0.00  0.00    +0.000 N 
ATOM      7  C   UNL     1       0.642  15.488  18.813  0.00  0.00    +0.000 A 
ATOM      8  C   UNL     1       1.427  14.363  19.037  0.00  0.00    +0.000 A 
ATOM      9  C   UNL     1       0.531  13.341  19.449  0.00  0.00    +0.000 A 
ATOM     10  N   UNL     1       0.753  12.038  19.756  0.00  0.00    +0.000 NA
ATOM     11  H   UNL     1      -0.466   9.771  21.319  0.00  0.00    +0.000 HD
ATOM     12  H   UNL     1      -1.454  15.810  19.008  0.00  0.00    +0.000 HD
ENDROOT
BRANCH   1  16
ATOM     13  C   UNL     1       2.701   7.382  18.737  0.00  0.00    +0.000 A 
ATOM     14  C   UNL     1       2.283   7.245  20.066  0.00  0.00    +0.000 A 
ATOM     15  C   UNL     1       1.294   8.088  20.591  0.00  0.00    +0.000 A 
ATOM     16  C   UNL     1       0.737   9.106  19.811  0.00  0.00    +0.000 A 
ATOM     17  C   UNL     1       1.119   9.188  18.463  0.00  0.00    +0.000 A 
ATOM     18  C   UNL     1       2.095   8.344  17.930  0.00  0.00    +0.000 A 
BRANCH  13  20
ATOM     19  C   UNL     1       3.521   5.278  17.671  0.00  0.00    +0.000 C 
ATOM     20  C   UNL     1       3.743   6.508  18.184  0.00  0.00    +0.000 C 
BRANCH  19  24
ATOM     21  C   UNL     1       6.607   4.121  15.682  0.00  0.00    +0.000 C 
ATOM     22  N   UNL     1       5.474   4.948  16.082  0.00  0.00    +0.000 N 
ATOM     23  C   UNL     1       5.274   6.173  15.318  0.00  0.00    +0.000 C 
ATOM     24  C   UNL     1       4.735   4.512  17.177  0.00  0.00    +0.000 C 
ATOM     25  O   UNL     1       5.058   3.484  17.774  0.00  0.00    +0.000 OA
ENDBRANCH  19  24
BRANCH  19  26
ATOM     26  C   UNL     1       2.214   4.734  17.673  0.00  0.00    +0.000 C 
ATOM     27  N   UNL     1       1.135   4.300  17.654  0.00  0.00    +0.000 NA
ENDBRANCH  19  26
ENDBRANCH  13  20
ENDBRANCH   1  16
BRANCH   8  28
ATOM     28  C   UNL     1       2.870  14.355  18.839  0.00  0.00    +0.000 C 
ATOM     29  O   UNL     1       3.414  13.391  18.301  0.00  0.00    +0.000 OA
ATOM     30  N   UNL     1       3.569  15.460  19.283  0.00  0.00    +0.000 N 
ATOM     31  H   UNL     1       3.033  16.210  19.714  0.00  0.00    +0.000 HD
BRANCH  30  32
ATOM     32  C   UNL     1       5.035  15.585  19.179  0.00  0.00    +0.000 C 
ATOM     33  C   UNL     1       5.551  14.957  17.869  0.00  0.00    +0.000 C 
ATOM     34  C   UNL     1       5.427  17.075  19.185  0.00  0.00    +0.000 C 
ATOM     35  C   UNL     1       5.727  14.912  20.379  0.00  0.00    +0.000 C 
ENDBRANCH  30  32
ENDBRANCH   8  28
TORSDOF 6
ENDMDL
MODEL 2
REMARK VINA RESULT:      -7.4      0.917      1.064
REMARK  Name = 
REMARK  11 active torsions:
REMARK  status: ('A' for Active; 'I' for Inactive)
REMARK    1  A    between atoms: C_1  and  N_2
REMARK    2  A    between atoms: N_2  and  C_3
REMARK    3  A    between atoms: C_4  and  C_6
REMARK    4  A    between atoms: C_6  and  C_7
REMARK    5  A    between atoms: C_9  and  C_10
REMARK    6  A    between atoms: C_13  and  N_14
REMARK    7  A    between atoms: C_21  and  C_22
REMARK    8  A    between atoms: N_24  and  C_25
REMARK    9  A    between atoms: C_25  and  C_26
REMARK   10  A    between atoms: C_25  and  C_27
REMARK   11  A    between atoms: C_25  and  C_28
REMARK                            x       y       z     vdW  Elec       q    Type
REMARK                         _______ _______ _______ _____ _____    ______ ____
ROOT
ATOM      1  N   UNL     1      -0.425  10.084  20.268  0.00  0.00    +0.000 N 
ATOM      2  C   UNL     1      -0.582  11.487  20.145  0.00  0.00    +0.000 A 
ATOM      3  C   UNL     1      -1.869  12.035  20.250  0.00  0.00    +0.000 A 
ATOM      4  N   UNL     1      -2.177  13.348  20.087  0.00  0.00    +0.000 NA
ATOM      5  C   UNL     1      -1.068  14.062  19.812  0.00  0.00    +0.000 A 
ATOM      6  N   UNL     1      -1.033  15.398  19.545  0.00  0.00    +0.000 N 
ATOM      7  C   UNL     1       0.263  15.778  19.319  0.00  0.00    +0.000 A 
ATOM      8  C   UNL     1       1.092  14.669  19.442  0.00  0.00    +0.000 A 
ATOM      9  C   UNL     1       0.235  13.575  19.734  0.00  0.00    +0.000 A 
ATOM     10  N   UNL     1       0.508  12.258  19.912  0.00  0.00    +0.000 NA
ATOM     11  H   UNL     1      -0.634   9.796  21.219  0.00  0.00    +0.000 HD
ATOM     12  H   UNL     1      -1.848  15.993  19.511  0.00  0.00    +0.000 HD
ENDROOT
BRANCH   1  16
ATOM     13  C   UNL     1       2.664   7.810  18.466  0.00  0.00    +0.000 A 
ATOM     14  C   UNL     1       2.318   7.605  19.806  0.00  0.00    +0.000 A 
ATOM     15  C   UNL     1       1.287   8.349  20.397  0.00  0.00    +0.000 A 
ATOM     16  C   UNL     1       0.615   9.337  19.671  0.00  0.00    +0.000 A 
ATOM     17  C   UNL     1       0.930   9.485  18.312  0.00  0.00    +0.000 A 
ATOM     18  C   UNL     1       1.947   8.739  17.714  0.00  0.00    +0.000 A 
BRANCH  13  20
ATOM     19  C   UNL     1       3.693   5.718  17.569  0.00  0.00    +0.000 C 
ATOM     20  C   UNL     1       3.748   7.040  17.844  0.00  0.00    +0.000 C 
BRANCH  19  24
ATOM     21  C   UNL     1       7.254   4.388  16.966  0.00  0.00    +0.000 C 
ATOM     22  N   UNL     1       6.122   4.986  17.666  0.00  0.00    +0.000 N 
ATOM     23  C   UNL     1       6.352   5.358  19.056  0.00  0.00    +0.000 C 
ATOM     24  C   UNL     1       4.932   5.093  16.954  0.00  0.00    +0.000 C 
ATOM     25  O   UNL     1       4.859   4.674  15.798  0.00  0.00    +0.000 OA
ENDBRANCH  19  24
BRANCH  19  26
ATOM     26  C   UNL     1       2.541   4.970  17.915  0.00  0.00    +0.000 C 
ATOM     27  N   UNL     1       1.605   4.350  18.220  0.00  0.00    +0.000 NA
ENDBRANCH  19  26
ENDBRANCH  13  20
ENDBRANCH   1  16
BRANCH   8  28
ATOM     28  C   UNL     1       2.537  14.741  19.268  0.00  0.00    +0.000 C 
ATOM     29  O   UNL     1       3.125  13.869  18.627  0.00  0.00    +0.000 OA
ATOM     30  N   UNL     1       3.186  15.810  19.852  0.00  0.00    +0.000 N 
ATOM     31  H   UNL     1       2.615  16.482  20.361  0.00  0.00    +0.000 HD
BRANCH  30  32
ATOM     32  C   UNL     1       4.647  16.002  19.788  0.00  0.00    +0.000 C 
ATOM     33  C   UNL     1       5.164  15.823  18.347  0.00  0.00    +0.000 C 
ATOM     34  C   UNL     1       4.999  17.428  20.251  0.00  0.00    +0.000 C 
ATOM     35  C   UNL     1       5.369  15.013  20.721  0.00  0.00    +0.000 C 
ENDBRANCH  30  32
ENDBRANCH   8  28
TORSDOF 6
ENDMDL
MODEL 3
REMARK VINA RESULT:      -7.3      4.043      6.501
REMARK  Name = 
REMARK  11 active torsions:
REMARK  status: ('A' for Active; 'I' for Inactive)
REMARK    1  A    between atoms: C_1  and  N_2
REMARK    2  A    between atoms: N_2  and  C_3
REMARK    3  A    between atoms: C_4  and  C_6
REMARK    4  A    between atoms: C_6  and  C_7
REMARK    5  A    between atoms: C_9  and  C_10
REMARK    6  A    between atoms: C_13  and  N_14
REMARK    7  A    between atoms: C_21  and  C_22
REMARK    8  A    between atoms: N_24  and  C_25
REMARK    9  A    between atoms: C_25  and  C_26
REMARK   10  A    between atoms: C_25  and  C_27
REMARK   11  A    between atoms: C_25  and  C_28
REMARK                            x       y       z     vdW  Elec       q    Type
REMARK                         _______ _______ _______ _____ _____    ______ ____
ROOT
ATOM      1  N   UNL     1      -1.536  12.512  23.280  0.00  0.00    +0.000 N 
ATOM      2  C   UNL     1      -2.900  12.769  22.992  0.00  0.00    +0.000 A 
ATOM      3  C   UNL     1      -3.699  13.365  23.980  0.00  0.00    +0.000 A 
ATOM      4  N   UNL     1      -5.031  13.608  23.868  0.00  0.00    +0.000 NA
ATOM      5  C   UNL     1      -5.486  13.199  22.667  0.00  0.00    +0.000 A 
ATOM      6  N   UNL     1      -6.784  13.251  22.254  0.00  0.00    +0.000 N 
ATOM      7  C   UNL     1      -6.871  12.756  20.980  0.00  0.00    +0.000 A 
ATOM      8  C   UNL     1      -5.605  12.373  20.552  0.00  0.00    +0.000 A 
ATOM      9  C   UNL     1      -4.731  12.637  21.640  0.00  0.00    +0.000 A 
ATOM     10  N   UNL     1      -3.400  12.418  21.782  0.00  0.00    +0.000 NA
ATOM     11  H   UNL     1      -1.033  13.388  23.372  0.00  0.00    +0.000 HD
ATOM     12  H   UNL     1      -7.548  13.593  22.818  0.00  0.00    +0.000 HD
ENDROOT
BRANCH   1  16
ATOM     13  C   UNL     1       0.794   9.436  21.530  0.00  0.00    +0.000 A 
ATOM     14  C   UNL     1       0.931  10.762  21.105  0.00  0.00    +0.000 A 
ATOM     15  C   UNL     1       0.168  11.780  21.695  0.00  0.00    +0.000 A 
ATOM     16  C   UNL     1      -0.771  11.483  22.687  0.00  0.00    +0.000 A 
ATOM     17  C   UNL     1      -0.849  10.160  23.146  0.00  0.00    +0.000 A 
ATOM     18  C   UNL     1      -0.084   9.143  22.573  0.00  0.00    +0.000 A 
BRANCH  13  20
ATOM     19  C   UNL     1       1.714   8.175  19.580  0.00  0.00    +0.000 C 
ATOM     20  C   UNL     1       1.584   8.364  20.911  0.00  0.00    +0.000 C 
BRANCH  19  24
ATOM     21  C   UNL     1       3.266   4.671  19.221  0.00  0.00    +0.000 C 
ATOM     22  N   UNL     1       2.395   5.733  19.714  0.00  0.00    +0.000 N 
ATOM     23  C   UNL     1       1.424   5.346  20.730  0.00  0.00    +0.000 C 
ATOM     24  C   UNL     1       2.547   6.988  19.133  0.00  0.00    +0.000 C 
ATOM     25  O   UNL     1       3.369   7.159  18.231  0.00  0.00    +0.000 OA
ENDBRANCH  19  24
BRANCH  19  26
ATOM     26  C   UNL     1       1.035   9.026  18.674  0.00  0.00    +0.000 C 
ATOM     27  N   UNL     1       0.497   9.726  17.916  0.00  0.00    +0.000 NA
ENDBRANCH  19  26
ENDBRANCH  13  20
ENDBRANCH   1  16
BRANCH   8  28
ATOM     28  C   UNL     1      -5.354  11.811  19.232  0.00  0.00    +0.000 C 
ATOM     29  O   UNL     1      -6.294  11.418  18.540  0.00  0.00    +0.000 OA
ATOM     30  N   UNL     1      -4.038  11.744  18.819  0.00  0.00    +0.000 N 
ATOM     31  H   UNL     1      -3.329  12.096  19.460  0.00  0.00    +0.000 HD
BRANCH  30  32
ATOM     32  C   UNL     1      -3.626  11.175  17.523  0.00  0.00    +0.000 C 
ATOM     33  C   UNL     1      -2.206  11.640  17.142  0.00  0.00    +0.000 C 
ATOM     34  C   UNL     1      -3.619   9.637  17.614  0.00  0.00    +0.000 C 
ATOM     35  C   UNL     1      -4.614  11.575  16.411  0.00  0.00    +0.000 C 
ENDBRANCH  30  32
ENDBRANCH   8  28
TORSDOF 6
ENDMDL
MODEL 4
REMARK VINA RESULT:      -7.2      0.080      1.153
REMARK  Name = 
REMARK  11 active torsions:
REMARK  status: ('A' for Active; 'I' for Inactive)
REMARK    1  A    between atoms: C_1  and  N_2
REMARK    2  A    between atoms: N_2  and  C_3
REMARK    3  A    between atoms: C_4  and  C_6
REMARK    4  A    between atoms: C_6  and  C_7
REMARK    5  A    between atoms: C_9  and  C_10
REMARK    6  A    between atoms: C_13  and  N_14
REMARK    7  A    between atoms: C_21  and  C_22
REMARK    8  A    between atoms: N_24  and  C_25
REMARK    9  A    between atoms: C_25  and  C_26
REMARK   10  A    between atoms: C_25  and  C_27
REMARK   11  A    between atoms: C_25  and  C_28
REMARK                            x       y       z     vdW  Elec       q    Type
REMARK                         _______ _______ _______ _____ _____    ______ ____
ROOT
ATOM      1  N   UNL     1      -0.308   9.939  20.272  0.00  0.00    +0.000 N 
ATOM      2  C   UNL     1      -0.394  11.332  20.029  0.00  0.00    +0.000 A 
ATOM      3  C   UNL     1      -1.649  11.956  20.102  0.00  0.00    +0.000 A 
ATOM      4  N   UNL     1      -1.891  13.264  19.830  0.00  0.00    +0.000 NA
ATOM      5  C   UNL     1      -0.751  13.892  19.480  0.00  0.00    +0.000 A 
ATOM      6  N   UNL     1      -0.651  15.197  19.097  0.00  0.00    +0.000 N 
ATOM      7  C   UNL     1       0.659  15.486  18.823  0.00  0.00    +0.000 A 
ATOM      8  C   UNL     1       1.431  14.349  19.031  0.00  0.00    +0.000 A 
ATOM      9  C   UNL     1       0.524  13.332  19.428  0.00  0.00    +0.000 A 
ATOM     10  N   UNL     1       0.731  12.021  19.717  0.00  0.00    +0.000 NA
ATOM     11  H   UNL     1      -0.515   9.746  21.246  0.00  0.00    +0.000 HD
ATOM     12  H   UNL     1      -1.434  15.829  19.022  0.00  0.00    +0.000 HD
ENDROOT
BRANCH   1  16
ATOM     13  C   UNL     1       2.691   7.422  18.652  0.00  0.00    +0.000 A 
ATOM     14  C   UNL     1       2.098   8.417  17.869  0.00  0.00    +0.000 A 
ATOM     15  C   UNL     1       1.115   9.258  18.410  0.00  0.00    +0.000 A 
ATOM     16  C   UNL     1       0.681   9.089  19.729  0.00  0.00    +0.000 A 
ATOM     17  C   UNL     1       1.331   8.130  20.519  0.00  0.00    +0.000 A 
ATOM     18  C   UNL     1       2.319   7.298  19.990  0.00  0.00    +0.000 A 
BRANCH  13  20
ATOM     19  C   UNL     1       3.480   5.285  17.627  0.00  0.00    +0.000 C 
ATOM     20  C   UNL     1       3.715   6.533  18.089  0.00  0.00    +0.000 C 
BRANCH  19  24
ATOM     21  C   UNL     1       6.566   4.136  15.632  0.00  0.00    +0.000 C 
ATOM     22  N   UNL     1       5.452   4.979  16.058  0.00  0.00    +0.000 N 
ATOM     23  C   UNL     1       5.308   6.251  15.361  0.00  0.00    +0.000 C 
ATOM     24  C   UNL     1       4.678   4.507  17.112  0.00  0.00    +0.000 C 
ATOM     25  O   UNL     1       4.955   3.437  17.657  0.00  0.00    +0.000 OA
ENDBRANCH  19  24
BRANCH  19  26
ATOM     26  C   UNL     1       2.177   4.737  17.698  0.00  0.00    +0.000 C 
ATOM     27  N   UNL     1       1.106   4.290  17.780  0.00  0.00    +0.000 NA
ENDBRANCH  19  26
ENDBRANCH  13  20
ENDBRANCH   1  16
BRANCH   8  28
ATOM     28  C   UNL     1       2.874  14.328  18.833  0.00  0.00    +0.000 C 
ATOM     29  O   UNL     1       3.413  13.343  18.329  0.00  0.00    +0.000 OA
ATOM     30  N   UNL     1       3.578  15.444  19.239  0.00  0.00    +0.000 N 
ATOM     31  H   UNL     1       3.045  16.211  19.645  0.00  0.00    +0.000 HD
BRANCH  30  32
ATOM     32  C   UNL     1       5.045  15.558  19.131  0.00  0.00    +0.000 C 
ATOM     33  C   UNL     1       5.741  14.900  20.339  0.00  0.00    +0.000 C 
ATOM     34  C   UNL     1       5.525  14.846  17.853  0.00  0.00    +0.000 C 
ATOM     35  C   UNL     1       5.471  17.035  19.034  0.00  0.00    +0.000 C 
ENDBRANCH  30  32
ENDBRANCH   8  28
TORSDOF 6
ENDMDL
MODEL 5
REMARK VINA RESULT:      -7.2      4.010      6.317
REMARK  Name = 
REMARK  11 active torsions:
REMARK  status: ('A' for Active; 'I' for Inactive)
REMARK    1  A    between atoms: C_1  and  N_2
REMARK    2  A    between atoms: N_2  and  C_3
REMARK    3  A    between atoms: C_4  and  C_6
REMARK    4  A    between atoms: C_6  and  C_7
REMARK    5  A    between atoms: C_9  and  C_10
REMARK    6  A    between atoms: C_13  and  N_14
REMARK    7  A    between atoms: C_21  and  C_22
REMARK    8  A    between atoms: N_24  and  C_25
REMARK    9  A    between atoms: C_25  and  C_26
REMARK   10  A    between atoms: C_25  and  C_27
REMARK   11  A    between atoms: C_25  and  C_28
REMARK                            x       y       z     vdW  Elec       q    Type
REMARK                         _______ _______ _______ _____ _____    ______ ____
ROOT
ATOM      1  N   UNL     1      -1.503  12.785  23.141  0.00  0.00    +0.000 N 
ATOM      2  C   UNL     1      -2.844  13.093  22.798  0.00  0.00    +0.000 A 
ATOM      3  C   UNL     1      -3.624  13.823  23.708  0.00  0.00    +0.000 A 
ATOM      4  N   UNL     1      -4.937  14.130  23.543  0.00  0.00    +0.000 NA
ATOM      5  C   UNL     1      -5.394  13.638  22.375  0.00  0.00    +0.000 A 
ATOM      6  N   UNL     1      -6.678  13.726  21.927  0.00  0.00    +0.000 N 
ATOM      7  C   UNL     1      -6.771  13.121  20.703  0.00  0.00    +0.000 A 
ATOM      8  C   UNL     1      -5.522  12.628  20.342  0.00  0.00    +0.000 A 
ATOM      9  C   UNL     1      -4.655  12.941  21.421  0.00  0.00    +0.000 A 
ATOM     10  N   UNL     1      -3.341  12.659  21.614  0.00  0.00    +0.000 NA
ATOM     11  H   UNL     1      -0.951  13.636  23.164  0.00  0.00    +0.000 HD
ATOM     12  H   UNL     1      -7.431  14.162  22.440  0.00  0.00    +0.000 HD
ENDROOT
BRANCH   1  16
ATOM     13  C   UNL     1       0.671   9.430  21.737  0.00  0.00    +0.000 A 
ATOM     14  C   UNL     1       0.928  10.708  21.230  0.00  0.00    +0.000 A 
ATOM     15  C   UNL     1       0.216  11.819  21.705  0.00  0.00    +0.000 A 
ATOM     16  C   UNL     1      -0.790  11.664  22.663  0.00  0.00    +0.000 A 
ATOM     17  C   UNL     1      -0.991  10.387  23.208  0.00  0.00    +0.000 A 
ATOM     18  C   UNL     1      -0.278   9.278  22.748  0.00  0.00    +0.000 A 
BRANCH  13  20
ATOM     19  C   UNL     1       1.654   8.008  19.934  0.00  0.00    +0.000 C 
ATOM     20  C   UNL     1       1.406   8.261  21.238  0.00  0.00    +0.000 C 
BRANCH  19  24
ATOM     21  C   UNL     1       3.906   5.351  18.295  0.00  0.00    +0.000 C 
ATOM     22  N   UNL     1       3.257   6.639  18.520  0.00  0.00    +0.000 N 
ATOM     23  C   UNL     1       3.618   7.708  17.597  0.00  0.00    +0.000 C 
ATOM     24  C   UNL     1       2.403   6.727  19.614  0.00  0.00    +0.000 C 
ATOM     25  O   UNL     1       2.239   5.756  20.355  0.00  0.00    +0.000 OA
ENDBRANCH  19  24
BRANCH  19  26
ATOM     26  C   UNL     1       1.163   8.885  18.937  0.00  0.00    +0.000 C 
ATOM     27  N   UNL     1       0.763   9.589  18.101  0.00  0.00    +0.000 NA
ENDBRANCH  19  26
ENDBRANCH  13  20
ENDBRANCH   1  16
BRANCH   8  28
ATOM     28  C   UNL     1      -5.282  11.932  19.085  0.00  0.00    +0.000 C 
ATOM     29  O   UNL     1      -6.226  11.464  18.448  0.00  0.00    +0.000 OA
ATOM     30  N   UNL     1      -3.970  11.827  18.668  0.00  0.00    +0.000 N 
ATOM     31  H   UNL     1      -3.256  12.247  19.261  0.00  0.00    +0.000 HD
BRANCH  30  32
ATOM     32  C   UNL     1      -3.567  11.127  17.434  0.00  0.00    +0.000 C 
ATOM     33  C   UNL     1      -3.640   9.598  17.618  0.00  0.00    +0.000 C 
ATOM     34  C   UNL     1      -4.515  11.520  16.286  0.00  0.00    +0.000 C 
ATOM     35  C   UNL     1      -2.138  11.527  17.021  0.00  0.00    +0.000 C 
ENDBRANCH  30  32
ENDBRANCH   8  28
TORSDOF 6
ENDMDL
MODEL 6
REMARK VINA RESULT:      -7.1      1.085      1.687
REMARK  Name = 
REMARK  11 active torsions:
REMARK  status: ('A' for Active; 'I' for Inactive)
REMARK    1  A    between atoms: C_1  and  N_2
REMARK    2  A    between atoms: N_2  and  C_3
REMARK    3  A    between atoms: C_4  and  C_6
REMARK    4  A    between atoms: C_6  and  C_7
REMARK    5  A    between atoms: C_9  and  C_10
REMARK    6  A    between atoms: C_13  and  N_14
REMARK    7  A    between atoms: C_21  and  C_22
REMARK    8  A    between atoms: N_24  and  C_25
REMARK    9  A    between atoms: C_25  and  C_26
REMARK   10  A    between atoms: C_25  and  C_27
REMARK   11  A    between atoms: C_25  and  C_28
REMARK                            x       y       z     vdW  Elec       q    Type
REMARK                         _______ _______ _______ _____ _____    ______ ____
ROOT
ATOM      1  N   UNL     1      -0.577  10.134  20.100  0.00  0.00    +0.000 N 
ATOM      2  C   UNL     1      -0.617  11.548  20.170  0.00  0.00    +0.000 A 
ATOM      3  C   UNL     1      -1.866  12.189  20.205  0.00  0.00    +0.000 A 
ATOM      4  N   UNL     1      -2.056  13.534  20.205  0.00  0.00    +0.000 NA
ATOM      5  C   UNL     1      -0.873  14.178  20.172  0.00  0.00    +0.000 A 
ATOM      6  N   UNL     1      -0.709  15.530  20.114  0.00  0.00    +0.000 N 
ATOM      7  C   UNL     1       0.628  15.821  20.100  0.00  0.00    +0.000 A 
ATOM      8  C   UNL     1       1.354  14.637  20.152  0.00  0.00    +0.000 A 
ATOM      9  C   UNL     1       0.392  13.593  20.175  0.00  0.00    +0.000 A 
ATOM     10  N   UNL     1       0.546  12.245  20.184  0.00  0.00    +0.000 NA
ATOM     11  H   UNL     1      -0.926   9.736  20.965  0.00  0.00    +0.000 HD
ATOM     12  H   UNL     1      -1.469  16.194  20.074  0.00  0.00    +0.000 HD
ENDROOT
BRANCH   1  16
ATOM     13  C   UNL     1       2.610   7.933  18.378  0.00  0.00    +0.000 A 
ATOM     14  C   UNL     1       1.896   8.867  17.618  0.00  0.00    +0.000 A 
ATOM     15  C   UNL     1       0.850   9.603  18.193  0.00  0.00    +0.000 A 
ATOM     16  C   UNL     1       0.475   9.389  19.523  0.00  0.00    +0.000 A 
ATOM     17  C   UNL     1       1.242   8.497  20.289  0.00  0.00    +0.000 A 
ATOM     18  C   UNL     1       2.292   7.770  19.726  0.00  0.00    +0.000 A 
BRANCH  13  20
ATOM     19  C   UNL     1       3.668   5.818  17.576  0.00  0.00    +0.000 C 
ATOM     20  C   UNL     1       3.700   7.153  17.780  0.00  0.00    +0.000 C 
BRANCH  19  24
ATOM     21  C   UNL     1       7.213   4.420  17.030  0.00  0.00    +0.000 C 
ATOM     22  N   UNL     1       6.073   5.019  17.718  0.00  0.00    +0.000 N 
ATOM     23  C   UNL     1       6.268   5.329  19.129  0.00  0.00    +0.000 C 
ATOM     24  C   UNL     1       4.910   5.185  16.975  0.00  0.00    +0.000 C 
ATOM     25  O   UNL     1       4.864   4.815  15.801  0.00  0.00    +0.000 OA
ENDBRANCH  19  24
BRANCH  19  26
ATOM     26  C   UNL     1       2.537   5.067  17.980  0.00  0.00    +0.000 C 
ATOM     27  N   UNL     1       1.623   4.432  18.318  0.00  0.00    +0.000 NA
ENDBRANCH  19  26
ENDBRANCH  13  20
ENDBRANCH   1  16
BRANCH   8  28
ATOM     28  C   UNL     1       2.811  14.603  20.160  0.00  0.00    +0.000 C 
ATOM     29  O   UNL     1       3.405  13.769  20.843  0.00  0.00    +0.000 OA
ATOM     30  N   UNL     1       3.463  15.540  19.383  0.00  0.00    +0.000 N 
ATOM     31  H   UNL     1       2.886  16.189  18.851  0.00  0.00    +0.000 HD
BRANCH  30  32
ATOM     32  C   UNL     1       4.932  15.650  19.311  0.00  0.00    +0.000 C 
ATOM     33  C   UNL     1       5.580  15.270  20.657  0.00  0.00    +0.000 C 
ATOM     34  C   UNL     1       5.468  14.692  18.231  0.00  0.00    +0.000 C 
ATOM     35  C   UNL     1       5.354  17.079  18.922  0.00  0.00    +0.000 C 
ENDBRANCH  30  32
ENDBRANCH   8  28
TORSDOF 6
ENDMDL
MODEL 7
REMARK VINA RESULT:      -7.1      5.167      8.431
REMARK  Name = 
REMARK  11 active torsions:
REMARK  status: ('A' for Active; 'I' for Inactive)
REMARK    1  A    between atoms: C_1  and  N_2
REMARK    2  A    between atoms: N_2  and  C_3
REMARK    3  A    between atoms: C_4  and  C_6
REMARK    4  A    between atoms: C_6  and  C_7
REMARK    5  A    between atoms: C_9  and  C_10
REMARK    6  A    between atoms: C_13  and  N_14
REMARK    7  A    between atoms: C_21  and  C_22
REMARK    8  A    between atoms: N_24  and  C_25
REMARK    9  A    between atoms: C_25  and  C_26
REMARK   10  A    between atoms: C_25  and  C_27
REMARK   11  A    between atoms: C_25  and  C_28
REMARK                            x       y       z     vdW  Elec       q    Type
REMARK                         _______ _______ _______ _____ _____    ______ ____
ROOT
ATOM      1  N   UNL     1      -2.511  11.160  17.551  0.00  0.00    +0.000 N 
ATOM      2  C   UNL     1      -3.820  11.551  17.927  0.00  0.00    +0.000 A 
ATOM      3  C   UNL     1      -4.842  11.505  16.966  0.00  0.00    +0.000 A 
ATOM      4  N   UNL     1      -6.123  11.912  17.166  0.00  0.00    +0.000 NA
ATOM      5  C   UNL     1      -6.283  12.365  18.425  0.00  0.00    +0.000 A 
ATOM      6  N   UNL     1      -7.432  12.892  18.936  0.00  0.00    +0.000 N 
ATOM      7  C   UNL     1      -7.225  13.239  20.243  0.00  0.00    +0.000 A 
ATOM      8  C   UNL     1      -5.916  12.932  20.596  0.00  0.00    +0.000 A 
ATOM      9  C   UNL     1      -5.315  12.397  19.426  0.00  0.00    +0.000 A 
ATOM     10  N   UNL     1      -4.046  11.974  19.195  0.00  0.00    +0.000 NA
ATOM     11  H   UNL     1      -2.491  10.164  17.357  0.00  0.00    +0.000 HD
ATOM     12  H   UNL     1      -8.286  13.010  18.411  0.00  0.00    +0.000 HD
ENDROOT
BRANCH   1  16
ATOM     13  C   UNL     1       1.018  12.617  19.389  0.00  0.00    +0.000 A 
ATOM     14  C   UNL     1       0.304  13.413  18.487  0.00  0.00    +0.000 A 
ATOM     15  C   UNL     1      -0.871  12.934  17.890  0.00  0.00    +0.000 A 
ATOM     16  C   UNL     1      -1.326  11.639  18.152  0.00  0.00    +0.000 A 
ATOM     17  C   UNL     1      -0.635  10.877  19.107  0.00  0.00    +0.000 A 
ATOM     18  C   UNL     1       0.528  11.353  19.715  0.00  0.00    +0.000 A 
BRANCH  13  20
ATOM     19  C   UNL     1       2.299  13.935  21.080  0.00  0.00    +0.000 C 
ATOM     20  C   UNL     1       2.253  13.110  20.012  0.00  0.00    +0.000 C 
BRANCH  19  24
ATOM     21  C   UNL     1       5.601  15.838  21.623  0.00  0.00    +0.000 C 
ATOM     22  N   UNL     1       4.267  15.539  21.114  0.00  0.00    +0.000 N 
ATOM     23  C   UNL     1       3.679  16.540  20.231  0.00  0.00    +0.000 C 
ATOM     24  C   UNL     1       3.675  14.362  21.559  0.00  0.00    +0.000 C 
ATOM     25  O   UNL     1       4.262  13.637  22.363  0.00  0.00    +0.000 OA
ENDBRANCH  19  24
BRANCH  19  26
ATOM     26  C   UNL     1       1.098  14.413  21.659  0.00  0.00    +0.000 C 
ATOM     27  N   UNL     1       0.122  14.826  22.139  0.00  0.00    +0.000 NA
ENDBRANCH  19  26
ENDBRANCH  13  20
ENDBRANCH   1  16
BRANCH   8  28
ATOM     28  C   UNL     1      -5.380  13.174  21.929  0.00  0.00    +0.000 C 
ATOM     29  O   UNL     1      -5.990  13.895  22.718  0.00  0.00    +0.000 OA
ATOM     30  N   UNL     1      -4.180  12.567  22.240  0.00  0.00    +0.000 N 
ATOM     31  H   UNL     1      -3.749  11.986  21.523  0.00  0.00    +0.000 HD
BRANCH  30  32
ATOM     32  C   UNL     1      -3.498  12.740  23.537  0.00  0.00    +0.000 C 
ATOM     33  C   UNL     1      -4.405  12.296  24.701  0.00  0.00    +0.000 C 
ATOM     34  C   UNL     1      -2.221  11.880  23.567  0.00  0.00    +0.000 C 
ATOM     35  C   UNL     1      -3.081  14.208  23.742  0.00  0.00    +0.000 C 
ENDBRANCH  30  32
ENDBRANCH   8  28
TORSDOF 6
ENDMDL
MODEL 8
REMARK VINA RESULT:      -7.0      3.975      6.287
REMARK  Name = 
REMARK  11 active torsions:
REMARK  status: ('A' for Active; 'I' for Inactive)
REMARK    1  A    between atoms: C_1  and  N_2
REMARK    2  A    between atoms: N_2  and  C_3
REMARK    3  A    between atoms: C_4  and  C_6
REMARK    4  A    between atoms: C_6  and  C_7
REMARK    5  A    between atoms: C_9  and  C_10
REMARK    6  A    between atoms: C_13  and  N_14
REMARK    7  A    between atoms: C_21  and  C_22
REMARK    8  A    between atoms: N_24  and  C_25
REMARK    9  A    between atoms: C_25  and  C_26
REMARK   10  A    between atoms: C_25  and  C_27
REMARK   11  A    between atoms: C_25  and  C_28
REMARK                            x       y       z     vdW  Elec       q    Type
REMARK                         _______ _______ _______ _____ _____    ______ ____
ROOT
ATOM      1  N   UNL     1      -1.360  12.990  23.107  0.00  0.00    +0.000 N 
ATOM      2  C   UNL     1      -2.701  13.311  22.784  0.00  0.00    +0.000 A 
ATOM      3  C   UNL     1      -3.445  14.093  23.681  0.00  0.00    +0.000 A 
ATOM      4  N   UNL     1      -4.755  14.421  23.535  0.00  0.00    +0.000 NA
ATOM      5  C   UNL     1      -5.250  13.893  22.397  0.00  0.00    +0.000 A 
ATOM      6  N   UNL     1      -6.543  13.990  21.977  0.00  0.00    +0.000 N 
ATOM      7  C   UNL     1      -6.676  13.339  20.780  0.00  0.00    +0.000 A 
ATOM      8  C   UNL     1      -5.447  12.806  20.410  0.00  0.00    +0.000 A 
ATOM      9  C   UNL     1      -4.548  13.143  21.456  0.00  0.00    +0.000 A 
ATOM     10  N   UNL     1      -3.236  12.842  21.630  0.00  0.00    +0.000 NA
ATOM     11  H   UNL     1      -0.790  13.829  23.084  0.00  0.00    +0.000 HD
ATOM     12  H   UNL     1      -7.274  14.461  22.489  0.00  0.00    +0.000 HD
ENDROOT
BRANCH   1  16
ATOM     13  C   UNL     1       0.645   9.520  21.729  0.00  0.00    +0.000 A 
ATOM     14  C   UNL     1      -0.347   9.427  22.711  0.00  0.00    +0.000 A 
ATOM     15  C   UNL     1      -1.019  10.574  23.156  0.00  0.00    +0.000 A 
ATOM     16  C   UNL     1      -0.680  11.836  22.658  0.00  0.00    +0.000 A 
ATOM     17  C   UNL     1       0.270  11.905  21.628  0.00  0.00    +0.000 A 
ATOM     18  C   UNL     1       0.934  10.765  21.171  0.00  0.00    +0.000 A 
BRANCH  13  20
ATOM     19  C   UNL     1       1.620   8.040  19.969  0.00  0.00    +0.000 C 
ATOM     20  C   UNL     1       1.357   8.324  21.264  0.00  0.00    +0.000 C 
BRANCH  19  24
ATOM     21  C   UNL     1       3.820   5.290  18.413  0.00  0.00    +0.000 C 
ATOM     22  N   UNL     1       3.200   6.598  18.601  0.00  0.00    +0.000 N 
ATOM     23  C   UNL     1       3.596   7.636  17.658  0.00  0.00    +0.000 C 
ATOM     24  C   UNL     1       2.340   6.734  19.686  0.00  0.00    +0.000 C 
ATOM     25  O   UNL     1       2.146   5.785  20.447  0.00  0.00    +0.000 OA
ENDBRANCH  19  24
BRANCH  19  26
ATOM     26  C   UNL     1       1.171   8.912  18.947  0.00  0.00    +0.000 C 
ATOM     27  N   UNL     1       0.817   9.616  18.093  0.00  0.00    +0.000 NA
ENDBRANCH  19  26
ENDBRANCH  13  20
ENDBRANCH   1  16
BRANCH   8  28
ATOM     28  C   UNL     1      -5.250  12.056  19.177  0.00  0.00    +0.000 C 
ATOM     29  O   UNL     1      -6.216  11.564  18.593  0.00  0.00    +0.000 OA
ATOM     30  N   UNL     1      -3.953  11.931  18.720  0.00  0.00    +0.000 N 
ATOM     31  H   UNL     1      -3.220  12.374  19.270  0.00  0.00    +0.000 HD
BRANCH  30  32
ATOM     32  C   UNL     1      -3.593  11.178  17.504  0.00  0.00    +0.000 C 
ATOM     33  C   UNL     1      -2.127  11.438  17.107  0.00  0.00    +0.000 C 
ATOM     34  C   UNL     1      -3.760   9.669  17.764  0.00  0.00    +0.000 C 
ATOM     35  C   UNL     1      -4.519  11.557  16.333  0.00  0.00    +0.000 C 
ENDBRANCH  30  32
ENDBRANCH   8  28
TORSDOF 6
ENDMDL
MODEL 9
REMARK VINA RESULT:      -6.9      5.395      9.084
REMARK  Name = 
REMARK  11 active torsions:
REMARK  status: ('A' for Active; 'I' for Inactive)
REMARK    1  A    between atoms: C_1  and  N_2
REMARK    2  A    between atoms: N_2  and  C_3
REMARK    3  A    between atoms: C_4  and  C_6
REMARK    4  A    between atoms: C_6  and  C_7
REMARK    5  A    between atoms: C_9  and  C_10
REMARK    6  A    between atoms: C_13  and  N_14
REMARK    7  A    between atoms: C_21  and  C_22
REMARK    8  A    between atoms: N_24  and  C_25
REMARK    9  A    between atoms: C_25  and  C_26
REMARK   10  A    between atoms: C_25  and  C_27
REMARK   11  A    between atoms: C_25  and  C_28
REMARK                            x       y       z     vdW  Elec       q    Type
REMARK                         _______ _______ _______ _____ _____    ______ ____
ROOT
ATOM      1  N   UNL     1      -1.120  11.522  17.799  0.00  0.00    +0.000 N 
ATOM      2  C   UNL     1      -2.534  11.493  17.712  0.00  0.00    +0.000 A 
ATOM      3  C   UNL     1      -3.130  11.213  16.473  0.00  0.00    +0.000 A 
ATOM      4  N   UNL     1      -4.467  11.219  16.227  0.00  0.00    +0.000 NA
ATOM      5  C   UNL     1      -5.151  11.527  17.347  0.00  0.00    +0.000 A 
ATOM      6  N   UNL     1      -6.504  11.666  17.434  0.00  0.00    +0.000 N 
ATOM      7  C   UNL     1      -6.842  11.976  18.724  0.00  0.00    +0.000 A 
ATOM      8  C   UNL     1      -5.688  12.041  19.496  0.00  0.00    +0.000 A 
ATOM      9  C   UNL     1      -4.612  11.776  18.607  0.00  0.00    +0.000 A 
ATOM     10  N   UNL     1      -3.272  11.753  18.819  0.00  0.00    +0.000 NA
ATOM     11  H   UNL     1      -0.748  10.588  17.660  0.00  0.00    +0.000 HD
ATOM     12  H   UNL     1      -7.137  11.565  16.655  0.00  0.00    +0.000 HD
ENDROOT
BRANCH   1  16
ATOM     13  C   UNL     1       1.112  13.806  20.584  0.00  0.00    +0.000 A 
ATOM     14  C   UNL     1       1.092  12.409  20.662  0.00  0.00    +0.000 A 
ATOM     15  C   UNL     1       0.363  11.654  19.732  0.00  0.00    +0.000 A 
ATOM     16  C   UNL     1      -0.389  12.285  18.736  0.00  0.00    +0.000 A 
ATOM     17  C   UNL     1      -0.307  13.681  18.632  0.00  0.00    +0.000 A 
ATOM     18  C   UNL     1       0.426  14.439  19.548  0.00  0.00    +0.000 A 
BRANCH  13  20
ATOM     19  C   UNL     1       3.094  15.122  21.344  0.00  0.00    +0.000 C 
ATOM     20  C   UNL     1       1.865  14.602  21.561  0.00  0.00    +0.000 C 
BRANCH  19  24
ATOM     21  C   UNL     1       4.479  17.906  23.614  0.00  0.00    +0.000 C 
ATOM     22  N   UNL     1       3.833  17.276  22.467  0.00  0.00    +0.000 N 
ATOM     23  C   UNL     1       3.323  18.179  21.443  0.00  0.00    +0.000 C 
ATOM     24  C   UNL     1       3.726  15.890  22.491  0.00  0.00    +0.000 C 
ATOM     25  O   UNL     1       4.145  15.251  23.457  0.00  0.00    +0.000 OA
ENDBRANCH  19  24
BRANCH  19  26
ATOM     26  C   UNL     1       3.757  14.885  20.115  0.00  0.00    +0.000 C 
ATOM     27  N   UNL     1       4.305  14.668  19.113  0.00  0.00    +0.000 NA
ENDBRANCH  19  26
ENDBRANCH  13  20
ENDBRANCH   1  16
BRANCH   8  28
ATOM     28  C   UNL     1      -5.707  12.344  20.921  0.00  0.00    +0.000 C 
ATOM     29  O   UNL     1      -6.495  11.762  21.665  0.00  0.00    +0.000 OA
ATOM     30  N   UNL     1      -4.817  13.300  21.369  0.00  0.00    +0.000 N 
ATOM     31  H   UNL     1      -4.202  13.727  20.678  0.00  0.00    +0.000 HD
BRANCH  30  32
ATOM     32  C   UNL     1      -4.738  13.735  22.776  0.00  0.00    +0.000 C 
ATOM     33  C   UNL     1      -4.129  12.630  23.662  0.00  0.00    +0.000 C 
ATOM     34  C   UNL     1      -3.842  14.983  22.881  0.00  0.00    +0.000 C 
ATOM     35  C   UNL     1      -6.133  14.112  23.310  0.00  0.00    +0.000 C 
ENDBRANCH  30  32
ENDBRANCH   8  28
TORSDOF 6
ENDMDL
