MODEL 1
REMARK VINA RESULT:      -7.5      0.000      0.000
REMARK  Name = 
REMARK  13 active torsions:
REMARK  status: ('A' for Active; 'I' for Inactive)
REMARK    1  A    between atoms: C_1  and  N_2
REMARK    2  A    between atoms: N_2  and  C_3
REMARK    3  A    between atoms: N_2  and  C_15
REMARK    4  A    between atoms: C_3  and  C_4
REMARK    5  A    between atoms: C_4  and  C_5
REMARK    6  A    between atoms: C_5  and  C_6
REMARK    7  A    between atoms: C_6  and  O_7
REMARK    8  A    between atoms: O_7  and  C_8
REMARK    9  A    between atoms: C_15  and  C_16
REMARK   10  A    between atoms: C_16  and  O_17
REMARK   11  A    between atoms: C_16  and  C_18
REMARK   12  A    between atoms: C_16  and  C_24
REMARK   13  A    between atoms: C_18  and  N_19
REMARK                            x       y       z     vdW  Elec       q    Type
REMARK                         _______ _______ _______ _____ _____    ______ ____
ROOT
ATOM      1  C   UNL     1       5.153   4.557  18.863  0.00  0.00    +0.000 C 
ENDROOT
BRANCH   1   2
ATOM      2  C   UNL     1       5.695   4.629  17.427  0.00  0.00    +0.000 A 
ATOM      3  C   UNL     1       5.388   3.657  16.456  0.00  0.00    +0.000 A 
ATOM      4  C   UNL     1       5.927   3.728  15.168  0.00  0.00    +0.000 A 
ATOM      5  C   UNL     1       6.758   4.786  14.827  0.00  0.00    +0.000 A 
ATOM      6  F   UNL     1       7.261   4.859  13.587  0.00  0.00    +0.000 F 
ATOM      7  C   UNL     1       7.068   5.771  15.749  0.00  0.00    +0.000 A 
ATOM      8  C   UNL     1       6.546   5.678  17.034  0.00  0.00    +0.000 A 
ATOM      9  F   UNL     1       6.859   6.647  17.910  0.00  0.00    +0.000 F 
ENDBRANCH   1   2
BRANCH   1  10
ATOM     10  O   UNL     1       6.198   4.886  19.801  0.00  0.00    +0.000 OA
ATOM     11  H   UNL     1       5.861   4.618  20.685  0.00  0.00    +0.000 HD
ENDBRANCH   1  10
BRANCH   1  12
ATOM     12  C   UNL     1       3.906   5.513  19.056  0.00  0.00    +0.000 C 
BRANCH  12  14
ATOM     13  C   UNL     1       1.719   5.736  18.084  0.00  0.00    +0.000 C 
ATOM     14  N   UNL     1       3.153   6.046  17.873  0.00  0.00    +0.000 NA
BRANCH  14  15
ATOM     15  C   UNL     1       3.246   7.515  17.701  0.00  0.00    +0.000 C 
BRANCH  15  16
ATOM     16  C   UNL     1       2.303   8.360  18.557  0.00  0.00    +0.000 C 
BRANCH  16  17
ATOM     17  C   UNL     1       1.440   9.348  17.777  0.00  0.00    +0.000 C 
BRANCH  17  18
ATOM     18  C   UNL     1       0.997  10.550  18.615  0.00  0.00    +0.000 C 
BRANCH  18  19
ATOM     19  O   UNL     1      -0.334  10.304  19.063  0.00  0.00    +0.000 OA
BRANCH  19  20
ATOM     20  C   UNL     1      -0.487  10.250  20.424  0.00  0.00    +0.000 A 
ATOM     21  C   UNL     1      -0.246   9.121  21.211  0.00  0.00    +0.000 A 
ATOM     22  C   UNL     1      -0.404   9.193  22.599  0.00  0.00    +0.000 A 
ATOM     23  C   UNL     1      -0.799  10.390  23.197  0.00  0.00    +0.000 A 
ATOM     24  C   UNL     1      -1.032  11.514  22.404  0.00  0.00    +0.000 A 
ATOM     25 BR   UNL     1      -1.565  13.136  23.210  0.00  0.00    +0.000 Br
ATOM     26  C   UNL     1      -0.871  11.446  21.022  0.00  0.00    +0.000 A 
ENDBRANCH  19  20
ENDBRANCH  18  19
ENDBRANCH  17  18
ENDBRANCH  16  17
ENDBRANCH  15  16
ENDBRANCH  14  15
ENDBRANCH  12  14
ENDBRANCH   1  12
BRANCH   1  27
ATOM     27  C   UNL     1       4.818   3.075  19.199  0.00  0.00    +0.000 C 
BRANCH  27  28
ATOM     28  N   UNL     1       3.418   2.792  19.458  0.00  0.00    +0.000 N 
ATOM     29  C   UNL     1       2.756   2.976  20.630  0.00  0.00    +0.000 A 
ATOM     30  N   UNL     1       1.503   2.627  20.488  0.00  0.00    +0.000 NA
ATOM     31  C   UNL     1       1.426   2.266  19.178  0.00  0.00    +0.000 A 
ATOM     32  N   UNL     1       2.567   2.378  18.490  0.00  0.00    +0.000 NA
ENDBRANCH  27  28
ENDBRANCH   1  27
TORSDOF 12
ENDMDL
MODEL 2
REMARK VINA RESULT:      -7.4      5.698      7.769
REMARK  Name = 
REMARK  13 active torsions:
REMARK  status: ('A' for Active; 'I' for Inactive)
REMARK    1  A    between atoms: C_1  and  N_2
REMARK    2  A    between atoms: N_2  and  C_3
REMARK    3  A    between atoms: N_2  and  C_15
REMARK    4  A    between atoms: C_3  and  C_4
REMARK    5  A    between atoms: C_4  and  C_5
REMARK    6  A    between atoms: C_5  and  C_6
REMARK    7  A    between atoms: C_6  and  O_7
REMARK    8  A    between atoms: O_7  and  C_8
REMARK    9  A    between atoms: C_15  and  C_16
REMARK   10  A    between atoms: C_16  and  O_17
REMARK   11  A    between atoms: C_16  and  C_18
REMARK   12  A    between atoms: C_16  and  C_24
REMARK   13  A    between atoms: C_18  and  N_19
REMARK                            x       y       z     vdW  Elec       q    Type
REMARK                         _______ _______ _______ _____ _____    ______ ____
ROOT
ATOM      1  C   UNL     1       5.825   5.154  16.180  0.00  0.00    +0.000 C 
ENDROOT
BRANCH   1   2
ATOM      2  C   UNL     1       4.531   4.860  16.955  0.00  0.00    +0.000 A 
ATOM      3  C   UNL     1       4.054   3.552  17.158  0.00  0.00    +0.000 A 
ATOM      4  C   UNL     1       2.853   3.317  17.834  0.00  0.00    +0.000 A 
ATOM      5  C   UNL     1       2.127   4.386  18.339  0.00  0.00    +0.000 A 
ATOM      6  F   UNL     1       0.984   4.158  18.999  0.00  0.00    +0.000 F 
ATOM      7  C   UNL     1       2.573   5.687  18.175  0.00  0.00    +0.000 A 
ATOM      8  C   UNL     1       3.756   5.911  17.480  0.00  0.00    +0.000 A 
ATOM      9  F   UNL     1       4.170   7.181  17.338  0.00  0.00    +0.000 F 
ENDBRANCH   1   2
BRANCH   1  10
ATOM     10  O   UNL     1       5.646   6.316  15.345  0.00  0.00    +0.000 OA
ATOM     11  H   UNL     1       4.674   6.442  15.262  0.00  0.00    +0.000 HD
ENDBRANCH   1  10
BRANCH   1  12
ATOM     12  C   UNL     1       7.051   5.354  17.162  0.00  0.00    +0.000 C 
BRANCH  12  14
ATOM     13  C   UNL     1       7.042   5.447  19.564  0.00  0.00    +0.000 C 
ATOM     14  N   UNL     1       6.952   6.278  18.340  0.00  0.00    +0.000 NA
BRANCH  14  15
ATOM     15  C   UNL     1       8.045   7.275  18.427  0.00  0.00    +0.000 C 
BRANCH  15  16
ATOM     16  C   UNL     1       7.963   8.459  17.463  0.00  0.00    +0.000 C 
BRANCH  16  17
ATOM     17  C   UNL     1       8.107   9.830  18.117  0.00  0.00    +0.000 C 
BRANCH  17  18
ATOM     18  C   UNL     1       9.513  10.093  18.659  0.00  0.00    +0.000 C 
BRANCH  18  19
ATOM     19  O   UNL     1       9.999  11.290  18.053  0.00  0.00    +0.000 OA
BRANCH  19  20
ATOM     20  C   UNL     1       9.996  12.393  18.865  0.00  0.00    +0.000 A 
ATOM     21  C   UNL     1      10.428  12.409  20.194  0.00  0.00    +0.000 A 
ATOM     22  C   UNL     1      10.411  13.606  20.917  0.00  0.00    +0.000 A 
ATOM     23  C   UNL     1       9.964  14.782  20.314  0.00  0.00    +0.000 A 
ATOM     24  C   UNL     1       9.539  14.758  18.985  0.00  0.00    +0.000 A 
ATOM     25 BR   UNL     1       8.936  16.348  18.165  0.00  0.00    +0.000 Br
ATOM     26  C   UNL     1       9.560  13.568  18.261  0.00  0.00    +0.000 A 
ENDBRANCH  19  20
ENDBRANCH  18  19
ENDBRANCH  17  18
ENDBRANCH  16  17
ENDBRANCH  15  16
ENDBRANCH  14  15
ENDBRANCH  12  14
ENDBRANCH   1  12
BRANCH   1  27
ATOM     27  C   UNL     1       6.068   4.007  15.157  0.00  0.00    +0.000 C 
BRANCH  27  28
ATOM     28  N   UNL     1       6.794   4.381  13.957  0.00  0.00    +0.000 N 
ATOM     29  C   UNL     1       6.573   3.921  12.697  0.00  0.00    +0.000 A 
ATOM     30  N   UNL     1       7.407   4.491  11.868  0.00  0.00    +0.000 NA
ATOM     31  C   UNL     1       8.112   5.339  12.665  0.00  0.00    +0.000 A 
ATOM     32  N   UNL     1       7.754   5.335  13.953  0.00  0.00    +0.000 NA
ENDBRANCH  27  28
ENDBRANCH   1  27
TORSDOF 12
ENDMDL
MODEL 3
REMARK VINA RESULT:      -7.3      5.267      7.722
REMARK  Name = 
REMARK  13 active torsions:
REMARK  status: ('A' for Active; 'I' for Inactive)
REMARK    1  A    between atoms: C_1  and  N_2
REMARK    2  A    between atoms: N_2  and  C_3
REMARK    3  A    between atoms: N_2  and  C_15
REMARK    4  A    between atoms: C_3  and  C_4
REMARK    5  A    between atoms: C_4  and  C_5
REMARK    6  A    between atoms: C_5  and  C_6
REMARK    7  A    between atoms: C_6  and  O_7
REMARK    8  A    between atoms: O_7  and  C_8
REMARK    9  A    between atoms: C_15  and  C_16
REMARK   10  A    between atoms: C_16  and  O_17
REMARK   11  A    between atoms: C_16  and  C_18
REMARK   12  A    between atoms: C_16  and  C_24
REMARK   13  A    between atoms: C_18  and  N_19
REMARK                            x       y       z     vdW  Elec       q    Type
REMARK                         _______ _______ _______ _____ _____    ______ ____
ROOT
ATOM      1  C   UNL     1       2.980   6.257  18.323  0.00  0.00    +0.000 C 
ENDROOT
BRANCH   1   2
ATOM      2  C   UNL     1       2.315   7.602  18.655  0.00  0.00    +0.000 A 
ATOM      3  C   UNL     1       2.291   8.675  17.745  0.00  0.00    +0.000 A 
ATOM      4  C   UNL     1       1.711   9.901  18.088  0.00  0.00    +0.000 A 
ATOM      5  C   UNL     1       1.126  10.059  19.336  0.00  0.00    +0.000 A 
ATOM      6  F   UNL     1       0.558  11.229  19.657  0.00  0.00    +0.000 F 
ATOM      7  C   UNL     1       1.113   9.020  20.251  0.00  0.00    +0.000 A 
ATOM      8  C   UNL     1       1.713   7.814  19.909  0.00  0.00    +0.000 A 
ATOM      9  F   UNL     1       1.685   6.820  20.812  0.00  0.00    +0.000 F 
ENDBRANCH   1   2
BRANCH   1  10
ATOM     10  O   UNL     1       1.973   5.259  18.064  0.00  0.00    +0.000 OA
ATOM     11  H   UNL     1       1.536   5.086  18.928  0.00  0.00    +0.000 HD
ENDBRANCH   1  10
BRANCH   1  12
ATOM     12  C   UNL     1       3.966   6.391  17.091  0.00  0.00    +0.000 C 
BRANCH  12  14
ATOM     13  C   UNL     1       6.008   5.660  16.053  0.00  0.00    +0.000 C 
ATOM     14  N   UNL     1       5.451   6.284  17.277  0.00  0.00    +0.000 NA
BRANCH  14  15
ATOM     15  C   UNL     1       6.141   7.586  17.437  0.00  0.00    +0.000 C 
BRANCH  15  16
ATOM     16  C   UNL     1       7.657   7.580  17.237  0.00  0.00    +0.000 C 
BRANCH  16  17
ATOM     17  C   UNL     1       8.463   8.111  18.419  0.00  0.00    +0.000 C 
BRANCH  17  18
ATOM     18  C   UNL     1       8.608   9.634  18.412  0.00  0.00    +0.000 C 
BRANCH  18  19
ATOM     19  O   UNL     1       9.158  10.027  19.668  0.00  0.00    +0.000 OA
BRANCH  19  20
ATOM     20  C   UNL     1       9.811  11.232  19.664  0.00  0.00    +0.000 A 
ATOM     21  C   UNL     1      10.012  12.036  20.788  0.00  0.00    +0.000 A 
ATOM     22  C   UNL     1      10.725  13.234  20.669  0.00  0.00    +0.000 A 
ATOM     23  C   UNL     1      11.234  13.625  19.430  0.00  0.00    +0.000 A 
ATOM     24  C   UNL     1      11.033  12.813  18.313  0.00  0.00    +0.000 A 
ATOM     25 BR   UNL     1      11.723  13.337  16.636  0.00  0.00    +0.000 Br
ATOM     26  C   UNL     1      10.328  11.617  18.431  0.00  0.00    +0.000 A 
ENDBRANCH  19  20
ENDBRANCH  18  19
ENDBRANCH  17  18
ENDBRANCH  16  17
ENDBRANCH  15  16
ENDBRANCH  14  15
ENDBRANCH  12  14
ENDBRANCH   1  12
BRANCH   1  27
ATOM     27  C   UNL     1       3.698   5.725  19.598  0.00  0.00    +0.000 C 
BRANCH  27  28
ATOM     28  N   UNL     1       3.633   4.289  19.800  0.00  0.00    +0.000 N 
ATOM     29  C   UNL     1       4.563   3.373  19.425  0.00  0.00    +0.000 A 
ATOM     30  N   UNL     1       4.175   2.177  19.785  0.00  0.00    +0.000 NA
ATOM     31  C   UNL     1       2.998   2.411  20.427  0.00  0.00    +0.000 A 
ATOM     32  N   UNL     1       2.632   3.695  20.492  0.00  0.00    +0.000 NA
ENDBRANCH  27  28
ENDBRANCH   1  27
TORSDOF 12
ENDMDL
MODEL 4
REMARK VINA RESULT:      -7.3      2.874      5.423
REMARK  Name = 
REMARK  13 active torsions:
REMARK  status: ('A' for Active; 'I' for Inactive)
REMARK    1  A    between atoms: C_1  and  N_2
REMARK    2  A    between atoms: N_2  and  C_3
REMARK    3  A    between atoms: N_2  and  C_15
REMARK    4  A    between atoms: C_3  and  C_4
REMARK    5  A    between atoms: C_4  and  C_5
REMARK    6  A    between atoms: C_5  and  C_6
REMARK    7  A    between atoms: C_6  and  O_7
REMARK    8  A    between atoms: O_7  and  C_8
REMARK    9  A    between atoms: C_15  and  C_16
REMARK   10  A    between atoms: C_16  and  O_17
REMARK   11  A    between atoms: C_16  and  C_18
REMARK   12  A    between atoms: C_16  and  C_24
REMARK   13  A    between atoms: C_18  and  N_19
REMARK                            x       y       z     vdW  Elec       q    Type
REMARK                         _______ _______ _______ _____ _____    ______ ____
ROOT
ATOM      1  C   UNL     1       6.071   4.965  17.038  0.00  0.00    +0.000 C 
ENDROOT
BRANCH   1   2
ATOM      2  C   UNL     1       6.867   6.166  17.572  0.00  0.00    +0.000 A 
ATOM      3  C   UNL     1       6.774   7.447  16.998  0.00  0.00    +0.000 A 
ATOM      4  C   UNL     1       7.539   8.514  17.482  0.00  0.00    +0.000 A 
ATOM      5  C   UNL     1       8.386   8.317  18.563  0.00  0.00    +0.000 A 
ATOM      6  F   UNL     1       9.107   9.343  19.034  0.00  0.00    +0.000 F 
ATOM      7  C   UNL     1       8.491   7.075  19.166  0.00  0.00    +0.000 A 
ATOM      8  C   UNL     1       7.744   6.016  18.662  0.00  0.00    +0.000 A 
ATOM      9  F   UNL     1       7.860   4.822  19.266  0.00  0.00    +0.000 F 
ENDBRANCH   1   2
BRANCH   1  10
ATOM     10  O   UNL     1       6.971   3.890  16.697  0.00  0.00    +0.000 OA
ATOM     11  H   UNL     1       7.496   3.711  17.509  0.00  0.00    +0.000 HD
ENDBRANCH   1  10
BRANCH   1  12
ATOM     12  C   UNL     1       4.989   4.478  18.087  0.00  0.00    +0.000 C 
BRANCH  12  14
ATOM     13  C   UNL     1       4.642   2.925  19.888  0.00  0.00    +0.000 C 
ATOM     14  N   UNL     1       4.841   3.024  18.423  0.00  0.00    +0.000 NA
BRANCH  14  15
ATOM     15  C   UNL     1       3.671   2.368  17.794  0.00  0.00    +0.000 C 
BRANCH  15  16
ATOM     16  C   UNL     1       2.592   1.848  18.743  0.00  0.00    +0.000 C 
BRANCH  16  17
ATOM     17  C   UNL     1       1.241   2.548  18.625  0.00  0.00    +0.000 C 
BRANCH  17  18
ATOM     18  C   UNL     1       1.362   4.036  18.292  0.00  0.00    +0.000 C 
BRANCH  18  19
ATOM     19  O   UNL     1       1.802   4.713  19.469  0.00  0.00    +0.000 OA
BRANCH  19  20
ATOM     20  C   UNL     1       1.881   6.076  19.357  0.00  0.00    +0.000 A 
ATOM     21  C   UNL     1       2.227   6.765  18.191  0.00  0.00    +0.000 A 
ATOM     22  C   UNL     1       2.242   8.163  18.187  0.00  0.00    +0.000 A 
ATOM     23  C   UNL     1       1.912   8.870  19.344  0.00  0.00    +0.000 A 
ATOM     24  C   UNL     1       1.563   8.175  20.502  0.00  0.00    +0.000 A 
ATOM     25 BR   UNL     1       1.114   9.128  22.069  0.00  0.00    +0.000 Br
ATOM     26  C   UNL     1       1.542   6.782  20.508  0.00  0.00    +0.000 A 
ENDBRANCH  19  20
ENDBRANCH  18  19
ENDBRANCH  17  18
ENDBRANCH  16  17
ENDBRANCH  15  16
ENDBRANCH  14  15
ENDBRANCH  12  14
ENDBRANCH   1  12
BRANCH   1  27
ATOM     27  C   UNL     1       5.436   5.352  15.671  0.00  0.00    +0.000 C 
BRANCH  27  28
ATOM     28  N   UNL     1       6.149   4.889  14.495  0.00  0.00    +0.000 N 
ATOM     29  C   UNL     1       5.710   3.982  13.583  0.00  0.00    +0.000 A 
ATOM     30  N   UNL     1       6.613   3.823  12.650  0.00  0.00    +0.000 NA
ATOM     31  C   UNL     1       7.593   4.697  13.010  0.00  0.00    +0.000 A 
ATOM     32  N   UNL     1       7.345   5.400  14.120  0.00  0.00    +0.000 NA
ENDBRANCH  27  28
ENDBRANCH   1  27
TORSDOF 12
ENDMDL
MODEL 5
REMARK VINA RESULT:      -7.3      2.181      2.751
REMARK  Name = 
REMARK  13 active torsions:
REMARK  status: ('A' for Active; 'I' for Inactive)
REMARK    1  A    between atoms: C_1  and  N_2
REMARK    2  A    between atoms: N_2  and  C_3
REMARK    3  A    between atoms: N_2  and  C_15
REMARK    4  A    between atoms: C_3  and  C_4
REMARK    5  A    between atoms: C_4  and  C_5
REMARK    6  A    between atoms: C_5  and  C_6
REMARK    7  A    between atoms: C_6  and  O_7
REMARK    8  A    between atoms: O_7  and  C_8
REMARK    9  A    between atoms: C_15  and  C_16
REMARK   10  A    between atoms: C_16  and  O_17
REMARK   11  A    between atoms: C_16  and  C_18
REMARK   12  A    between atoms: C_16  and  C_24
REMARK   13  A    between atoms: C_18  and  N_19
REMARK                            x       y       z     vdW  Elec       q    Type
REMARK                         _______ _______ _______ _____ _____    ______ ____
ROOT
ATOM      1  C   UNL     1       4.852   4.075  18.674  0.00  0.00    +0.000 C 
ENDROOT
BRANCH   1   2
ATOM      2  C   UNL     1       5.512   4.294  17.303  0.00  0.00    +0.000 A 
ATOM      3  C   UNL     1       6.884   4.571  17.163  0.00  0.00    +0.000 A 
ATOM      4  C   UNL     1       7.450   4.804  15.905  0.00  0.00    +0.000 A 
ATOM      5  C   UNL     1       6.654   4.738  14.770  0.00  0.00    +0.000 A 
ATOM      6  F   UNL     1       7.201   4.946  13.565  0.00  0.00    +0.000 F 
ATOM      7  C   UNL     1       5.303   4.450  14.867  0.00  0.00    +0.000 A 
ATOM      8  C   UNL     1       4.746   4.244  16.124  0.00  0.00    +0.000 A 
ATOM      9  F   UNL     1       3.434   3.963  16.191  0.00  0.00    +0.000 F 
ENDBRANCH   1   2
BRANCH   1  10
ATOM     10  O   UNL     1       5.796   3.476  19.585  0.00  0.00    +0.000 OA
ATOM     11  H   UNL     1       6.209   2.732  19.093  0.00  0.00    +0.000 HD
ENDBRANCH   1  10
BRANCH   1  12
ATOM     12  C   UNL     1       4.288   5.432  19.264  0.00  0.00    +0.000 C 
BRANCH  12  14
ATOM     13  C   UNL     1       2.160   6.347  19.907  0.00  0.00    +0.000 C 
ATOM     14  N   UNL     1       3.017   6.032  18.740  0.00  0.00    +0.000 NA
BRANCH  14  15
ATOM     15  C   UNL     1       3.201   7.301  17.997  0.00  0.00    +0.000 C 
BRANCH  15  16
ATOM     16  C   UNL     1       1.949   8.152  17.785  0.00  0.00    +0.000 C 
BRANCH  16  17
ATOM     17  C   UNL     1       1.808   9.336  18.736  0.00  0.00    +0.000 C 
BRANCH  17  18
ATOM     18  C   UNL     1       1.070  10.523  18.113  0.00  0.00    +0.000 C 
BRANCH  18  19
ATOM     19  O   UNL     1      -0.048  10.829  18.945  0.00  0.00    +0.000 OA
BRANCH  19  20
ATOM     20  C   UNL     1      -1.271  10.713  18.338  0.00  0.00    +0.000 A 
ATOM     21  C   UNL     1      -1.544   9.894  17.239  0.00  0.00    +0.000 A 
ATOM     22  C   UNL     1      -2.842   9.830  16.723  0.00  0.00    +0.000 A 
ATOM     23  C   UNL     1      -3.864  10.582  17.305  0.00  0.00    +0.000 A 
ATOM     24  C   UNL     1      -3.584  11.393  18.405  0.00  0.00    +0.000 A 
ATOM     25 BR   UNL     1      -4.964  12.410  19.197  0.00  0.00    +0.000 Br
ATOM     26  C   UNL     1      -2.292  11.454  18.924  0.00  0.00    +0.000 A 
ENDBRANCH  19  20
ENDBRANCH  18  19
ENDBRANCH  17  18
ENDBRANCH  16  17
ENDBRANCH  15  16
ENDBRANCH  14  15
ENDBRANCH  12  14
ENDBRANCH   1  12
BRANCH   1  27
ATOM     27  C   UNL     1       3.747   2.990  18.531  0.00  0.00    +0.000 C 
BRANCH  27  28
ATOM     28  N   UNL     1       2.842   2.864  19.659  0.00  0.00    +0.000 N 
ATOM     29  C   UNL     1       1.484   2.883  19.617  0.00  0.00    +0.000 A 
ATOM     30  N   UNL     1       1.004   2.727  20.823  0.00  0.00    +0.000 NA
ATOM     31  C   UNL     1       2.120   2.572  21.587  0.00  0.00    +0.000 A 
ATOM     32  N   UNL     1       3.276   2.617  20.917  0.00  0.00    +0.000 NA
ENDBRANCH  27  28
ENDBRANCH   1  27
TORSDOF 12
ENDMDL
MODEL 6
REMARK VINA RESULT:      -7.3      2.871      5.358
REMARK  Name = 
REMARK  13 active torsions:
REMARK  status: ('A' for Active; 'I' for Inactive)
REMARK    1  A    between atoms: C_1  and  N_2
REMARK    2  A    between atoms: N_2  and  C_3
REMARK    3  A    between atoms: N_2  and  C_15
REMARK    4  A    between atoms: C_3  and  C_4
REMARK    5  A    between atoms: C_4  and  C_5
REMARK    6  A    between atoms: C_5  and  C_6
REMARK    7  A    between atoms: C_6  and  O_7
REMARK    8  A    between atoms: O_7  and  C_8
REMARK    9  A    between atoms: C_15  and  C_16
REMARK   10  A    between atoms: C_16  and  O_17
REMARK   11  A    between atoms: C_16  and  C_18
REMARK   12  A    between atoms: C_16  and  C_24
REMARK   13  A    between atoms: C_18  and  N_19
REMARK                            x       y       z     vdW  Elec       q    Type
REMARK                         _______ _______ _______ _____ _____    ______ ____
ROOT
ATOM      1  C   UNL     1       5.454   4.247  16.180  0.00  0.00    +0.000 C 
ENDROOT
BRANCH   1   2
ATOM      2  C   UNL     1       6.217   5.402  16.848  0.00  0.00    +0.000 A 
ATOM      3  C   UNL     1       5.828   6.746  16.701  0.00  0.00    +0.000 A 
ATOM      4  C   UNL     1       6.564   7.780  17.289  0.00  0.00    +0.000 A 
ATOM      5  C   UNL     1       7.682   7.479  18.054  0.00  0.00    +0.000 A 
ATOM      6  F   UNL     1       8.377   8.470  18.629  0.00  0.00    +0.000 F 
ATOM      7  C   UNL     1       8.084   6.167  18.237  0.00  0.00    +0.000 A 
ATOM      8  C   UNL     1       7.360   5.149  17.629  0.00  0.00    +0.000 A 
ATOM      9  F   UNL     1       7.768   3.884  17.824  0.00  0.00    +0.000 F 
ENDBRANCH   1   2
BRANCH   1  10
ATOM     10  O   UNL     1       6.364   3.173  15.864  0.00  0.00    +0.000 OA
ATOM     11  H   UNL     1       6.356   3.094  14.885  0.00  0.00    +0.000 HD
ENDBRANCH   1  10
BRANCH   1  12
ATOM     12  C   UNL     1       4.274   3.728  17.101  0.00  0.00    +0.000 C 
BRANCH  12  14
ATOM     13  C   UNL     1       4.916   3.584  19.413  0.00  0.00    +0.000 C 
ATOM     14  N   UNL     1       4.539   2.776  18.229  0.00  0.00    +0.000 NA
BRANCH  14  15
ATOM     15  C   UNL     1       3.366   1.964  18.631  0.00  0.00    +0.000 C 
BRANCH  15  16
ATOM     16  C   UNL     1       2.605   2.436  19.870  0.00  0.00    +0.000 C 
BRANCH  16  17
ATOM     17  C   UNL     1       1.198   2.959  19.600  0.00  0.00    +0.000 C 
BRANCH  17  18
ATOM     18  C   UNL     1       0.862   4.220  20.398  0.00  0.00    +0.000 C 
BRANCH  18  19
ATOM     19  O   UNL     1       2.066   4.969  20.560  0.00  0.00    +0.000 OA
BRANCH  19  20
ATOM     20  C   UNL     1       2.069   6.199  19.958  0.00  0.00    +0.000 A 
ATOM     21  C   UNL     1       2.556   6.461  18.674  0.00  0.00    +0.000 A 
ATOM     22  C   UNL     1       2.475   7.755  18.149  0.00  0.00    +0.000 A 
ATOM     23  C   UNL     1       1.909   8.783  18.904  0.00  0.00    +0.000 A 
ATOM     24  C   UNL     1       1.420   8.512  20.182  0.00  0.00    +0.000 A 
ATOM     25 BR   UNL     1       0.651   9.899  21.206  0.00  0.00    +0.000 Br
ATOM     26  C   UNL     1       1.494   7.222  20.706  0.00  0.00    +0.000 A 
ENDBRANCH  19  20
ENDBRANCH  18  19
ENDBRANCH  17  18
ENDBRANCH  16  17
ENDBRANCH  15  16
ENDBRANCH  14  15
ENDBRANCH  12  14
ENDBRANCH   1  12
BRANCH   1  27
ATOM     27  C   UNL     1       4.951   4.718  14.786  0.00  0.00    +0.000 C 
BRANCH  27  28
ATOM     28  N   UNL     1       5.661   4.168  13.645  0.00  0.00    +0.000 N 
ATOM     29  C   UNL     1       5.135   3.400  12.654  0.00  0.00    +0.000 A 
ATOM     30  N   UNL     1       6.067   3.102  11.787  0.00  0.00    +0.000 NA
ATOM     31  C   UNL     1       7.162   3.750  12.269  0.00  0.00    +0.000 A 
ATOM     32  N   UNL     1       6.961   4.447  13.392  0.00  0.00    +0.000 NA
ENDBRANCH  27  28
ENDBRANCH   1  27
TORSDOF 12
ENDMDL
MODEL 7
REMARK VINA RESULT:      -7.2      3.014      5.203
REMARK  Name = 
REMARK  13 active torsions:
REMARK  status: ('A' for Active; 'I' for Inactive)
REMARK    1  A    between atoms: C_1  and  N_2
REMARK    2  A    between atoms: N_2  and  C_3
REMARK    3  A    between atoms: N_2  and  C_15
REMARK    4  A    between atoms: C_3  and  C_4
REMARK    5  A    between atoms: C_4  and  C_5
REMARK    6  A    between atoms: C_5  and  C_6
REMARK    7  A    between atoms: C_6  and  O_7
REMARK    8  A    between atoms: O_7  and  C_8
REMARK    9  A    between atoms: C_15  and  C_16
REMARK   10  A    between atoms: C_16  and  O_17
REMARK   11  A    between atoms: C_16  and  C_18
REMARK   12  A    between atoms: C_16  and  C_24
REMARK   13  A    between atoms: C_18  and  N_19
REMARK                            x       y       z     vdW  Elec       q    Type
REMARK                         _______ _______ _______ _____ _____    ______ ____
ROOT
ATOM      1  C   UNL     1       3.212   5.574  18.305  0.00  0.00    +0.000 C 
ENDROOT
BRANCH   1   2
ATOM      2  C   UNL     1       2.531   4.677  19.352  0.00  0.00    +0.000 A 
ATOM      3  C   UNL     1       2.927   4.661  20.702  0.00  0.00    +0.000 A 
ATOM      4  C   UNL     1       2.315   3.805  21.624  0.00  0.00    +0.000 A 
ATOM      5  C   UNL     1       1.283   2.975  21.212  0.00  0.00    +0.000 A 
ATOM      6  F   UNL     1       0.688   2.168  22.100  0.00  0.00    +0.000 F 
ATOM      7  C   UNL     1       0.853   2.977  19.895  0.00  0.00    +0.000 A 
ATOM      8  C   UNL     1       1.484   3.813  18.982  0.00  0.00    +0.000 A 
ATOM      9  F   UNL     1       1.048   3.799  17.712  0.00  0.00    +0.000 F 
ENDBRANCH   1   2
BRANCH   1  10
ATOM     10  O   UNL     1       3.495   4.813  17.113  0.00  0.00    +0.000 OA
ATOM     11  H   UNL     1       4.444   4.973  16.911  0.00  0.00    +0.000 HD
ENDBRANCH   1  10
BRANCH   1  12
ATOM     12  C   UNL     1       2.320   6.838  17.964  0.00  0.00    +0.000 C 
BRANCH  12  14
ATOM     13  C   UNL     1       2.260   9.241  17.971  0.00  0.00    +0.000 C 
ATOM     14  N   UNL     1       2.330   8.049  18.849  0.00  0.00    +0.000 NA
BRANCH  14  15
ATOM     15  C   UNL     1       1.175   8.139  19.774  0.00  0.00    +0.000 C 
BRANCH  15  16
ATOM     16  C   UNL     1       1.475   7.931  21.258  0.00  0.00    +0.000 C 
BRANCH  16  17
ATOM     17  C   UNL     1       1.417   9.196  22.109  0.00  0.00    +0.000 C 
BRANCH  17  18
ATOM     18  C   UNL     1       0.028   9.836  22.141  0.00  0.00    +0.000 C 
BRANCH  18  19
ATOM     19  O   UNL     1       0.195  11.249  22.043  0.00  0.00    +0.000 OA
BRANCH  19  20
ATOM     20  C   UNL     1      -0.022  11.773  20.796  0.00  0.00    +0.000 A 
ATOM     21  C   UNL     1      -0.968  11.300  19.883  0.00  0.00    +0.000 A 
ATOM     22  C   UNL     1      -1.125  11.938  18.648  0.00  0.00    +0.000 A 
ATOM     23  C   UNL     1      -0.339  13.046  18.328  0.00  0.00    +0.000 A 
ATOM     24  C   UNL     1       0.599  13.516  19.248  0.00  0.00    +0.000 A 
ATOM     25 BR   UNL     1       1.663  15.016  18.820  0.00  0.00    +0.000 Br
ATOM     26  C   UNL     1       0.753  12.885  20.481  0.00  0.00    +0.000 A 
ENDBRANCH  19  20
ENDBRANCH  18  19
ENDBRANCH  17  18
ENDBRANCH  16  17
ENDBRANCH  15  16
ENDBRANCH  14  15
ENDBRANCH  12  14
ENDBRANCH   1  12
BRANCH   1  27
ATOM     27  C   UNL     1       4.623   5.971  18.826  0.00  0.00    +0.000 C 
BRANCH  27  28
ATOM     28  N   UNL     1       5.724   5.699  17.921  0.00  0.00    +0.000 N 
ATOM     29  C   UNL     1       6.411   6.609  17.180  0.00  0.00    +0.000 A 
ATOM     30  N   UNL     1       7.345   6.003  16.494  0.00  0.00    +0.000 NA
ATOM     31  C   UNL     1       7.224   4.704  16.879  0.00  0.00    +0.000 A 
ATOM     32  N   UNL     1       6.264   4.465  17.778  0.00  0.00    +0.000 NA
ENDBRANCH  27  28
ENDBRANCH   1  27
TORSDOF 12
ENDMDL
MODEL 8
REMARK VINA RESULT:      -7.2      2.368      2.926
REMARK  Name = 
REMARK  13 active torsions:
REMARK  status: ('A' for Active; 'I' for Inactive)
REMARK    1  A    between atoms: C_1  and  N_2
REMARK    2  A    between atoms: N_2  and  C_3
REMARK    3  A    between atoms: N_2  and  C_15
REMARK    4  A    between atoms: C_3  and  C_4
REMARK    5  A    between atoms: C_4  and  C_5
REMARK    6  A    between atoms: C_5  and  C_6
REMARK    7  A    between atoms: C_6  and  O_7
REMARK    8  A    between atoms: O_7  and  C_8
REMARK    9  A    between atoms: C_15  and  C_16
REMARK   10  A    between atoms: C_16  and  O_17
REMARK   11  A    between atoms: C_16  and  C_18
REMARK   12  A    between atoms: C_16  and  C_24
REMARK   13  A    between atoms: C_18  and  N_19
REMARK                            x       y       z     vdW  Elec       q    Type
REMARK                         _______ _______ _______ _____ _____    ______ ____
ROOT
ATOM      1  C   UNL     1       4.850   4.239  18.438  0.00  0.00    +0.000 C 
ENDROOT
BRANCH   1   2
ATOM      2  C   UNL     1       5.485   4.472  17.058  0.00  0.00    +0.000 A 
ATOM      3  C   UNL     1       4.915   3.974  15.872  0.00  0.00    +0.000 A 
ATOM      4  C   UNL     1       5.536   4.169  14.634  0.00  0.00    +0.000 A 
ATOM      5  C   UNL     1       6.721   4.888  14.565  0.00  0.00    +0.000 A 
ATOM      6  F   UNL     1       7.306   5.086  13.376  0.00  0.00    +0.000 F 
ATOM      7  C   UNL     1       7.303   5.409  15.708  0.00  0.00    +0.000 A 
ATOM      8  C   UNL     1       6.690   5.189  16.936  0.00  0.00    +0.000 A 
ATOM      9  F   UNL     1       7.271   5.708  18.030  0.00  0.00    +0.000 F 
ENDBRANCH   1   2
BRANCH   1  10
ATOM     10  O   UNL     1       5.855   3.804  19.376  0.00  0.00    +0.000 OA
ATOM     11  H   UNL     1       6.536   3.335  18.843  0.00  0.00    +0.000 HD
ENDBRANCH   1  10
BRANCH   1  12
ATOM     12  C   UNL     1       4.121   5.543  18.963  0.00  0.00    +0.000 C 
BRANCH  12  14
ATOM     13  C   UNL     1       2.032   5.520  17.773  0.00  0.00    +0.000 C 
ATOM     14  N   UNL     1       3.230   6.344  18.061  0.00  0.00    +0.000 NA
BRANCH  14  15
ATOM     15  C   UNL     1       2.738   7.609  18.655  0.00  0.00    +0.000 C 
BRANCH  15  16
ATOM     16  C   UNL     1       1.882   8.497  17.752  0.00  0.00    +0.000 C 
BRANCH  16  17
ATOM     17  C   UNL     1       1.752   9.946  18.211  0.00  0.00    +0.000 C 
BRANCH  17  18
ATOM     18  C   UNL     1       0.516  10.193  19.079  0.00  0.00    +0.000 C 
BRANCH  18  19
ATOM     19  O   UNL     1      -0.028  11.460  18.715  0.00  0.00    +0.000 OA
BRANCH  19  20
ATOM     20  C   UNL     1      -1.348  11.440  18.347  0.00  0.00    +0.000 A 
ATOM     21  C   UNL     1      -2.398  11.962  19.106  0.00  0.00    +0.000 A 
ATOM     22  C   UNL     1      -3.705  11.915  18.611  0.00  0.00    +0.000 A 
ATOM     23  C   UNL     1      -3.961  11.349  17.361  0.00  0.00    +0.000 A 
ATOM     24  C   UNL     1      -2.906  10.835  16.607  0.00  0.00    +0.000 A 
ATOM     25 BR   UNL     1      -3.247  10.070  14.915  0.00  0.00    +0.000 Br
ATOM     26  C   UNL     1      -1.602  10.885  17.096  0.00  0.00    +0.000 A 
ENDBRANCH  19  20
ENDBRANCH  18  19
ENDBRANCH  17  18
ENDBRANCH  16  17
ENDBRANCH  15  16
ENDBRANCH  14  15
ENDBRANCH  12  14
ENDBRANCH   1  12
BRANCH   1  27
ATOM     27  C   UNL     1       3.887   3.020  18.347  0.00  0.00    +0.000 C 
BRANCH  27  28
ATOM     28  N   UNL     1       3.065   2.783  19.519  0.00  0.00    +0.000 N 
ATOM     29  C   UNL     1       1.769   2.372  19.533  0.00  0.00    +0.000 A 
ATOM     30  N   UNL     1       1.359   2.250  20.768  0.00  0.00    +0.000 NA
ATOM     31  C   UNL     1       2.465   2.562  21.498  0.00  0.00    +0.000 A 
ATOM     32  N   UNL     1       3.550   2.866  20.780  0.00  0.00    +0.000 NA
ENDBRANCH  27  28
ENDBRANCH   1  27
TORSDOF 12
ENDMDL
MODEL 9
REMARK VINA RESULT:      -7.2      3.410      5.349
REMARK  Name = 
REMARK  13 active torsions:
REMARK  status: ('A' for Active; 'I' for Inactive)
REMARK    1  A    between atoms: C_1  and  N_2
REMARK    2  A    between atoms: N_2  and  C_3
REMARK    3  A    between atoms: N_2  and  C_15
REMARK    4  A    between atoms: C_3  and  C_4
REMARK    5  A    between atoms: C_4  and  C_5
REMARK    6  A    between atoms: C_5  and  C_6
REMARK    7  A    between atoms: C_6  and  O_7
REMARK    8  A    between atoms: O_7  and  C_8
REMARK    9  A    between atoms: C_15  and  C_16
REMARK   10  A    between atoms: C_16  and  O_17
REMARK   11  A    between atoms: C_16  and  C_18
REMARK   12  A    between atoms: C_16  and  C_24
REMARK   13  A    between atoms: C_18  and  N_19
REMARK                            x       y       z     vdW  Elec       q    Type
REMARK                         _______ _______ _______ _____ _____    ______ ____
ROOT
ATOM      1  C   UNL     1       3.826   4.714  17.953  0.00  0.00    +0.000 C 
ENDROOT
BRANCH   1   2
ATOM      2  C   UNL     1       3.012   4.082  19.094  0.00  0.00    +0.000 A 
ATOM      3  C   UNL     1       3.597   3.698  20.314  0.00  0.00    +0.000 A 
ATOM      4  C   UNL     1       2.839   3.090  21.320  0.00  0.00    +0.000 A 
ATOM      5  C   UNL     1       1.481   2.883  21.127  0.00  0.00    +0.000 A 
ATOM      6  F   UNL     1       0.754   2.314  22.098  0.00  0.00    +0.000 F 
ATOM      7  C   UNL     1       0.866   3.265  19.947  0.00  0.00    +0.000 A 
ATOM      8  C   UNL     1       1.633   3.846  18.944  0.00  0.00    +0.000 A 
ATOM      9  F   UNL     1       1.012   4.211  17.810  0.00  0.00    +0.000 F 
ENDBRANCH   1   2
BRANCH   1  10
ATOM     10  O   UNL     1       3.357   4.220  16.682  0.00  0.00    +0.000 OA
ATOM     11  H   UNL     1       2.629   3.592  16.888  0.00  0.00    +0.000 HD
ENDBRANCH   1  10
BRANCH   1  12
ATOM     12  C   UNL     1       3.753   6.295  18.002  0.00  0.00    +0.000 C 
BRANCH  12  14
ATOM     13  C   UNL     1       2.346   7.180  19.739  0.00  0.00    +0.000 C 
ATOM     14  N   UNL     1       2.456   6.999  18.272  0.00  0.00    +0.000 NA
BRANCH  14  15
ATOM     15  C   UNL     1       2.358   8.350  17.672  0.00  0.00    +0.000 C 
BRANCH  15  16
ATOM     16  C   UNL     1       1.089   9.142  17.985  0.00  0.00    +0.000 C 
BRANCH  16  17
ATOM     17  C   UNL     1       1.315  10.614  18.317  0.00  0.00    +0.000 C 
BRANCH  17  18
ATOM     18  C   UNL     1       0.031  11.345  18.715  0.00  0.00    +0.000 C 
BRANCH  18  19
ATOM     19  O   UNL     1      -1.018  10.381  18.781  0.00  0.00    +0.000 OA
BRANCH  19  20
ATOM     20  C   UNL     1      -2.081  10.623  17.951  0.00  0.00    +0.000 A 
ATOM     21  C   UNL     1      -2.170  10.202  16.621  0.00  0.00    +0.000 A 
ATOM     22  C   UNL     1      -3.321  10.479  15.878  0.00  0.00    +0.000 A 
ATOM     23  C   UNL     1      -4.381  11.174  16.463  0.00  0.00    +0.000 A 
ATOM     24  C   UNL     1      -4.287  11.585  17.793  0.00  0.00    +0.000 A 
ATOM     25 BR   UNL     1      -5.720  12.524  18.588  0.00  0.00    +0.000 Br
ATOM     26  C   UNL     1      -3.142  11.306  18.537  0.00  0.00    +0.000 A 
ENDBRANCH  19  20
ENDBRANCH  18  19
ENDBRANCH  17  18
ENDBRANCH  16  17
ENDBRANCH  15  16
ENDBRANCH  14  15
ENDBRANCH  12  14
ENDBRANCH   1  12
BRANCH   1  27
ATOM     27  C   UNL     1       5.288   4.188  18.029  0.00  0.00    +0.000 C 
BRANCH  27  28
ATOM     28  N   UNL     1       6.324   5.191  17.869  0.00  0.00    +0.000 N 
ATOM     29  C   UNL     1       6.737   5.754  16.703  0.00  0.00    +0.000 A 
ATOM     30  N   UNL     1       7.677   6.630  16.944  0.00  0.00    +0.000 NA
ATOM     31  C   UNL     1       7.787   6.604  18.301  0.00  0.00    +0.000 A 
ATOM     32  N   UNL     1       6.957   5.760  18.922  0.00  0.00    +0.000 NA
ENDBRANCH  27  28
ENDBRANCH   1  27
TORSDOF 12
ENDMDL
