MODEL 1
REMARK VINA RESULT:      -7.8      0.000      0.000
REMARK  Name = 
REMARK  10 active torsions:
REMARK  status: ('A' for Active; 'I' for Inactive)
REMARK    1  A    between atoms: C_1  and  O_2
REMARK    2  A    between atoms: O_2  and  C_3
REMARK    3  A    between atoms: C_5  and  C_6
REMARK    4  A    between atoms: C_6  and  C_7
REMARK    5  A    between atoms: C_6  and  C_14
REMARK    6  A    between atoms: C_8  and  C_9
REMARK    7  A    between atoms: C_12  and  O_13
REMARK    8  A    between atoms: C_15  and  C_16
REMARK    9  A    between atoms: C_19  and  O_20
REMARK   10  A    between atoms: C_24  and  O_25
REMARK                            x       y       z     vdW  Elec       q    Type
REMARK                         _______ _______ _______ _____ _____    ______ ____
ROOT
ATOM      1  C   UNL     1       2.649   5.127  18.006  0.00  0.00    +0.000 C 
ENDROOT
BRANCH   1   4
ATOM      2  C   UNL     1       6.190   6.467  17.143  0.00  0.00    +0.000 A 
ATOM      3  C   UNL     1       4.974   6.251  17.812  0.00  0.00    +0.000 A 
ATOM      4  C   UNL     1       4.012   5.330  17.348  0.00  0.00    +0.000 A 
ATOM      5  C   UNL     1       4.339   4.574  16.209  0.00  0.00    +0.000 A 
ATOM      6  C   UNL     1       5.567   4.746  15.567  0.00  0.00    +0.000 A 
ATOM      7 CL   UNL     1       5.933   3.770  14.188  0.00  0.00    +0.000 Cl
ATOM      8  C   UNL     1       6.495   5.689  16.027  0.00  0.00    +0.000 A 
BRANCH   2  10
ATOM      9  C   UNL     1       8.031   6.963  18.550  0.00  0.00    +0.000 C 
ATOM     10  O   UNL     1       6.980   7.432  17.713  0.00  0.00    +0.000 OA
ENDBRANCH   2  10
BRANCH   8  11
ATOM     11  O   UNL     1       7.704   5.816  15.390  0.00  0.00    +0.000 OA
ATOM     12  H   UNL     1       7.682   5.231  14.611  0.00  0.00    +0.000 HD
ENDBRANCH   8  11
ENDBRANCH   1   4
BRANCH   1  13
ATOM     13  C   UNL     1       2.599   3.692  18.462  0.00  0.00    +0.000 A 
ATOM     14  C   UNL     1       3.586   2.877  19.100  0.00  0.00    +0.000 A 
ATOM     15  C   UNL     1       4.984   3.194  19.494  0.00  0.00    +0.000 C 
ATOM     16  N   UNL     1       3.121   1.648  19.371  0.00  0.00    +0.000 NA
ATOM     17  N   UNL     1       1.868   1.661  18.906  0.00  0.00    +0.000 N 
ATOM     18  C   UNL     1       1.491   2.863  18.374  0.00  0.00    +0.000 A 
ATOM     19  H   UNL     1       1.323   0.815  19.002  0.00  0.00    +0.000 HD
BRANCH  18  20
ATOM     20  O   UNL     1       0.273   3.099  17.892  0.00  0.00    +0.000 OA
ATOM     21  H   UNL     1      -0.351   2.433  18.219  0.00  0.00    +0.000 HD
ENDBRANCH  18  20
ENDBRANCH   1  13
BRANCH   1  22
ATOM     22  C   UNL     1       2.371   6.186  19.051  0.00  0.00    +0.000 A 
ATOM     23  C   UNL     1       2.147   7.585  18.788  0.00  0.00    +0.000 A 
ATOM     24  C   UNL     1       2.088   8.314  17.494  0.00  0.00    +0.000 C 
ATOM     25  N   UNL     1       1.955   8.290  19.909  0.00  0.00    +0.000 NA
ATOM     26  N   UNL     1       2.056   7.382  20.882  0.00  0.00    +0.000 N 
ATOM     27  C   UNL     1       2.294   6.113  20.436  0.00  0.00    +0.000 A 
ATOM     28  H   UNL     1       1.957   7.702  21.837  0.00  0.00    +0.000 HD
BRANCH  27  29
ATOM     29  O   UNL     1       2.411   5.088  21.273  0.00  0.00    +0.000 OA
ATOM     30  H   UNL     1       3.192   4.552  21.057  0.00  0.00    +0.000 HD
ENDBRANCH  27  29
ENDBRANCH   1  22
TORSDOF 7
ENDMDL
MODEL 2
REMARK VINA RESULT:      -7.6      2.075      4.546
REMARK  Name = 
REMARK  10 active torsions:
REMARK  status: ('A' for Active; 'I' for Inactive)
REMARK    1  A    between atoms: C_1  and  O_2
REMARK    2  A    between atoms: O_2  and  C_3
REMARK    3  A    between atoms: C_5  and  C_6
REMARK    4  A    between atoms: C_6  and  C_7
REMARK    5  A    between atoms: C_6  and  C_14
REMARK    6  A    between atoms: C_8  and  C_9
REMARK    7  A    between atoms: C_12  and  O_13
REMARK    8  A    between atoms: C_15  and  C_16
REMARK    9  A    between atoms: C_19  and  O_20
REMARK   10  A    between atoms: C_24  and  O_25
REMARK                            x       y       z     vdW  Elec       q    Type
REMARK                         _______ _______ _______ _____ _____    ______ ____
ROOT
ATOM      1  C   UNL     1       3.170   5.244  19.618  0.00  0.00    +0.000 C 
ENDROOT
BRANCH   1   4
ATOM      2  C   UNL     1       5.724   4.137  16.910  0.00  0.00    +0.000 A 
ATOM      3  C   UNL     1       4.513   4.377  17.581  0.00  0.00    +0.000 A 
ATOM      4  C   UNL     1       4.459   5.035  18.827  0.00  0.00    +0.000 A 
ATOM      5  C   UNL     1       5.670   5.510  19.359  0.00  0.00    +0.000 A 
ATOM      6  C   UNL     1       6.873   5.320  18.675  0.00  0.00    +0.000 A 
ATOM      7 CL   UNL     1       8.332   5.949  19.358  0.00  0.00    +0.000 Cl
ATOM      8  C   UNL     1       6.908   4.635  17.453  0.00  0.00    +0.000 A 
BRANCH   2  10
ATOM      9  C   UNL     1       5.598   4.225  14.545  0.00  0.00    +0.000 C 
ATOM     10  O   UNL     1       5.586   3.444  15.735  0.00  0.00    +0.000 OA
ENDBRANCH   2  10
BRANCH   8  11
ATOM     11  O   UNL     1       8.101   4.488  16.793  0.00  0.00    +0.000 OA
ATOM     12  H   UNL     1       8.006   4.921  15.926  0.00  0.00    +0.000 HD
ENDBRANCH   8  11
ENDBRANCH   1   4
BRANCH   1  13
ATOM     13  C   UNL     1       2.691   6.637  19.305  0.00  0.00    +0.000 A 
ATOM     14  C   UNL     1       2.870   7.449  18.141  0.00  0.00    +0.000 A 
ATOM     15  C   UNL     1       3.609   7.172  16.881  0.00  0.00    +0.000 C 
ATOM     16  N   UNL     1       2.246   8.632  18.255  0.00  0.00    +0.000 NA
ATOM     17  N   UNL     1       1.688   8.592  19.469  0.00  0.00    +0.000 N 
ATOM     18  C   UNL     1       1.899   7.416  20.134  0.00  0.00    +0.000 A 
ATOM     19  H   UNL     1       1.163   9.402  19.771  0.00  0.00    +0.000 HD
BRANCH  18  20
ATOM     20  O   UNL     1       1.397   7.159  21.339  0.00  0.00    +0.000 OA
ATOM     21  H   UNL     1       2.036   7.400  22.027  0.00  0.00    +0.000 HD
ENDBRANCH  18  20
ENDBRANCH   1  13
BRANCH   1  22
ATOM     22  C   UNL     1       2.186   4.116  19.390  0.00  0.00    +0.000 A 
ATOM     23  C   UNL     1       1.937   3.026  20.299  0.00  0.00    +0.000 A 
ATOM     24  C   UNL     1       2.509   2.755  21.644  0.00  0.00    +0.000 C 
ATOM     25  N   UNL     1       1.035   2.160  19.820  0.00  0.00    +0.000 NA
ATOM     26  N   UNL     1       0.707   2.663  18.629  0.00  0.00    +0.000 N 
ATOM     27  C   UNL     1       1.350   3.827  18.319  0.00  0.00    +0.000 A 
ATOM     28  H   UNL     1       0.036   2.152  18.070  0.00  0.00    +0.000 HD
BRANCH  27  29
ATOM     29  O   UNL     1       1.131   4.466  17.176  0.00  0.00    +0.000 OA
ATOM     30  H   UNL     1       1.911   4.420  16.598  0.00  0.00    +0.000 HD
ENDBRANCH  27  29
ENDBRANCH   1  22
TORSDOF 7
ENDMDL
MODEL 3
REMARK VINA RESULT:      -7.5      0.997      1.616
REMARK  Name = 
REMARK  10 active torsions:
REMARK  status: ('A' for Active; 'I' for Inactive)
REMARK    1  A    between atoms: C_1  and  O_2
REMARK    2  A    between atoms: O_2  and  C_3
REMARK    3  A    between atoms: C_5  and  C_6
REMARK    4  A    between atoms: C_6  and  C_7
REMARK    5  A    between atoms: C_6  and  C_14
REMARK    6  A    between atoms: C_8  and  C_9
REMARK    7  A    between atoms: C_12  and  O_13
REMARK    8  A    between atoms: C_15  and  C_16
REMARK    9  A    between atoms: C_19  and  O_20
REMARK   10  A    between atoms: C_24  and  O_25
REMARK                            x       y       z     vdW  Elec       q    Type
REMARK                         _______ _______ _______ _____ _____    ______ ____
ROOT
ATOM      1  C   UNL     1       2.878   4.895  18.127  0.00  0.00    +0.000 C 
ENDROOT
BRANCH   1   4
ATOM      2  C   UNL     1       6.318   6.373  17.098  0.00  0.00    +0.000 A 
ATOM      3  C   UNL     1       5.153   6.096  17.832  0.00  0.00    +0.000 A 
ATOM      4  C   UNL     1       4.190   5.164  17.393  0.00  0.00    +0.000 A 
ATOM      5  C   UNL     1       4.465   4.460  16.208  0.00  0.00    +0.000 A 
ATOM      6  C   UNL     1       5.645   4.693  15.498  0.00  0.00    +0.000 A 
ATOM      7 CL   UNL     1       5.950   3.780  14.062  0.00  0.00    +0.000 Cl
ATOM      8  C   UNL     1       6.573   5.647  15.935  0.00  0.00    +0.000 A 
BRANCH   2  10
ATOM      9  C   UNL     1       8.072   6.887  18.605  0.00  0.00    +0.000 C 
ATOM     10  O   UNL     1       7.115   7.340  17.654  0.00  0.00    +0.000 OA
ENDBRANCH   2  10
BRANCH   8  11
ATOM     11  O   UNL     1       7.735   5.834  15.229  0.00  0.00    +0.000 OA
ATOM     12  H   UNL     1       7.589   6.587  14.628  0.00  0.00    +0.000 HD
ENDBRANCH   8  11
ENDBRANCH   1   4
BRANCH   1  13
ATOM     13  C   UNL     1       2.986   3.513  18.714  0.00  0.00    +0.000 A 
ATOM     14  C   UNL     1       2.000   2.492  18.896  0.00  0.00    +0.000 A 
ATOM     15  C   UNL     1       0.548   2.492  18.574  0.00  0.00    +0.000 C 
ATOM     16  N   UNL     1       2.524   1.380  19.435  0.00  0.00    +0.000 NA
ATOM     17  N   UNL     1       3.814   1.679  19.613  0.00  0.00    +0.000 N 
ATOM     18  C   UNL     1       4.155   2.930  19.179  0.00  0.00    +0.000 A 
ATOM     19  H   UNL     1       4.408   0.970  20.023  0.00  0.00    +0.000 HD
BRANCH  18  20
ATOM     20  O   UNL     1       5.396   3.408  19.230  0.00  0.00    +0.000 OA
ATOM     21  H   UNL     1       5.674   3.524  20.152  0.00  0.00    +0.000 HD
ENDBRANCH  18  20
ENDBRANCH   1  13
BRANCH   1  22
ATOM     22  C   UNL     1       2.532   6.018  19.082  0.00  0.00    +0.000 A 
ATOM     23  C   UNL     1       2.310   7.393  18.713  0.00  0.00    +0.000 A 
ATOM     24  C   UNL     1       2.316   8.033  17.371  0.00  0.00    +0.000 C 
ATOM     25  N   UNL     1       2.050   8.169  19.772  0.00  0.00    +0.000 NA
ATOM     26  N   UNL     1       2.105   7.329  20.808  0.00  0.00    +0.000 N 
ATOM     27  C   UNL     1       2.379   6.036  20.462  0.00  0.00    +0.000 A 
ATOM     28  H   UNL     1       1.951   7.710  21.732  0.00  0.00    +0.000 HD
BRANCH  27  29
ATOM     29  O   UNL     1       2.459   5.071  21.371  0.00  0.00    +0.000 OA
ATOM     30  H   UNL     1       3.372   4.970  21.690  0.00  0.00    +0.000 HD
ENDBRANCH  27  29
ENDBRANCH   1  22
TORSDOF 7
ENDMDL
MODEL 4
REMARK VINA RESULT:      -7.5      1.405      3.742
REMARK  Name = 
REMARK  10 active torsions:
REMARK  status: ('A' for Active; 'I' for Inactive)
REMARK    1  A    between atoms: C_1  and  O_2
REMARK    2  A    between atoms: O_2  and  C_3
REMARK    3  A    between atoms: C_5  and  C_6
REMARK    4  A    between atoms: C_6  and  C_7
REMARK    5  A    between atoms: C_6  and  C_14
REMARK    6  A    between atoms: C_8  and  C_9
REMARK    7  A    between atoms: C_12  and  O_13
REMARK    8  A    between atoms: C_15  and  C_16
REMARK    9  A    between atoms: C_19  and  O_20
REMARK   10  A    between atoms: C_24  and  O_25
REMARK                            x       y       z     vdW  Elec       q    Type
REMARK                         _______ _______ _______ _____ _____    ______ ____
ROOT
ATOM      1  C   UNL     1       4.282   4.728  18.961  0.00  0.00    +0.000 C 
ENDROOT
BRANCH   1   4
ATOM      2  C   UNL     1       7.142   6.174  16.768  0.00  0.00    +0.000 A 
ATOM      3  C   UNL     1       6.315   5.905  17.871  0.00  0.00    +0.000 A 
ATOM      4  C   UNL     1       5.247   4.986  17.806  0.00  0.00    +0.000 A 
ATOM      5  C   UNL     1       5.070   4.286  16.600  0.00  0.00    +0.000 A 
ATOM      6  C   UNL     1       5.919   4.510  15.514  0.00  0.00    +0.000 A 
ATOM      7 CL   UNL     1       5.677   3.602  14.063  0.00  0.00    +0.000 Cl
ATOM      8  C   UNL     1       6.954   5.451  15.590  0.00  0.00    +0.000 A 
BRANCH   2  10
ATOM      9  C   UNL     1       7.655   8.300  17.678  0.00  0.00    +0.000 C 
ATOM     10  O   UNL     1       8.098   7.128  17.003  0.00  0.00    +0.000 OA
ENDBRANCH   2  10
BRANCH   8  11
ATOM     11  O   UNL     1       7.788   5.629  14.515  0.00  0.00    +0.000 OA
ATOM     12  H   UNL     1       7.254   6.016  13.798  0.00  0.00    +0.000 HD
ENDBRANCH   8  11
ENDBRANCH   1   4
BRANCH   1  13
ATOM     13  C   UNL     1       3.422   5.958  19.089  0.00  0.00    +0.000 A 
ATOM     14  C   UNL     1       3.197   7.042  18.184  0.00  0.00    +0.000 A 
ATOM     15  C   UNL     1       3.765   7.298  16.833  0.00  0.00    +0.000 C 
ATOM     16  N   UNL     1       2.323   7.933  18.676  0.00  0.00    +0.000 NA
ATOM     17  N   UNL     1       2.000   7.446  19.878  0.00  0.00    +0.000 N 
ATOM     18  C   UNL     1       2.607   6.255  20.171  0.00  0.00    +0.000 A 
ATOM     19  H   UNL     1       1.345   7.974  20.438  0.00  0.00    +0.000 HD
BRANCH  18  20
ATOM     20  O   UNL     1       2.392   5.584  21.299  0.00  0.00    +0.000 OA
ATOM     21  H   UNL     1       2.580   6.146  22.066  0.00  0.00    +0.000 HD
ENDBRANCH  18  20
ENDBRANCH   1  13
BRANCH   1  22
ATOM     22  C   UNL     1       3.563   3.406  18.803  0.00  0.00    +0.000 A 
ATOM     23  C   UNL     1       2.275   3.221  18.184  0.00  0.00    +0.000 A 
ATOM     24  C   UNL     1       1.379   4.213  17.532  0.00  0.00    +0.000 C 
ATOM     25  N   UNL     1       1.874   1.945  18.213  0.00  0.00    +0.000 NA
ATOM     26  N   UNL     1       2.866   1.309  18.838  0.00  0.00    +0.000 N 
ATOM     27  C   UNL     1       3.902   2.121  19.207  0.00  0.00    +0.000 A 
ATOM     28  H   UNL     1       2.768   0.314  18.989  0.00  0.00    +0.000 HD
BRANCH  27  29
ATOM     29  O   UNL     1       4.975   1.647  19.830  0.00  0.00    +0.000 OA
ATOM     30  H   UNL     1       5.323   0.864  19.372  0.00  0.00    +0.000 HD
ENDBRANCH  27  29
ENDBRANCH   1  22
TORSDOF 7
ENDMDL
MODEL 5
REMARK VINA RESULT:      -7.5      1.326      2.160
REMARK  Name = 
REMARK  10 active torsions:
REMARK  status: ('A' for Active; 'I' for Inactive)
REMARK    1  A    between atoms: C_1  and  O_2
REMARK    2  A    between atoms: O_2  and  C_3
REMARK    3  A    between atoms: C_5  and  C_6
REMARK    4  A    between atoms: C_6  and  C_7
REMARK    5  A    between atoms: C_6  and  C_14
REMARK    6  A    between atoms: C_8  and  C_9
REMARK    7  A    between atoms: C_12  and  O_13
REMARK    8  A    between atoms: C_15  and  C_16
REMARK    9  A    between atoms: C_19  and  O_20
REMARK   10  A    between atoms: C_24  and  O_25
REMARK                            x       y       z     vdW  Elec       q    Type
REMARK                         _______ _______ _______ _____ _____    ______ ____
ROOT
ATOM      1  C   UNL     1       2.600   5.084  18.015  0.00  0.00    +0.000 C 
ENDROOT
BRANCH   1   4
ATOM      2  C   UNL     1       5.727   4.549  15.775  0.00  0.00    +0.000 A 
ATOM      3  C   UNL     1       4.448   4.398  16.335  0.00  0.00    +0.000 A 
ATOM      4  C   UNL     1       3.953   5.266  17.331  0.00  0.00    +0.000 A 
ATOM      5  C   UNL     1       4.770   6.345  17.710  0.00  0.00    +0.000 A 
ATOM      6  C   UNL     1       6.024   6.531  17.122  0.00  0.00    +0.000 A 
ATOM      7 CL   UNL     1       6.977   7.891  17.602  0.00  0.00    +0.000 Cl
ATOM      8  C   UNL     1       6.508   5.639  16.157  0.00  0.00    +0.000 A 
BRANCH   2  10
ATOM      9  C   UNL     1       5.792   3.910  13.494  0.00  0.00    +0.000 C 
ATOM     10  O   UNL     1       6.053   3.586  14.855  0.00  0.00    +0.000 OA
ENDBRANCH   2  10
BRANCH   8  11
ATOM     11  O   UNL     1       7.732   5.865  15.580  0.00  0.00    +0.000 OA
ATOM     12  H   UNL     1       8.079   5.000  15.294  0.00  0.00    +0.000 HD
ENDBRANCH   8  11
ENDBRANCH   1   4
BRANCH   1  13
ATOM     13  C   UNL     1       2.547   3.659  18.497  0.00  0.00    +0.000 A 
ATOM     14  C   UNL     1       3.528   2.857  19.160  0.00  0.00    +0.000 A 
ATOM     15  C   UNL     1       4.922   3.184  19.563  0.00  0.00    +0.000 C 
ATOM     16  N   UNL     1       3.062   1.632  19.449  0.00  0.00    +0.000 NA
ATOM     17  N   UNL     1       1.814   1.635  18.971  0.00  0.00    +0.000 N 
ATOM     18  C   UNL     1       1.441   2.826  18.412  0.00  0.00    +0.000 A 
ATOM     19  H   UNL     1       1.269   0.790  19.077  0.00  0.00    +0.000 HD
BRANCH  18  20
ATOM     20  O   UNL     1       0.229   3.051  17.913  0.00  0.00    +0.000 OA
ATOM     21  H   UNL     1       0.216   3.889  17.426  0.00  0.00    +0.000 HD
ENDBRANCH  18  20
ENDBRANCH   1  13
BRANCH   1  22
ATOM     22  C   UNL     1       2.347   6.164  19.046  0.00  0.00    +0.000 A 
ATOM     23  C   UNL     1       2.110   7.556  18.760  0.00  0.00    +0.000 A 
ATOM     24  C   UNL     1       2.013   8.258  17.453  0.00  0.00    +0.000 C 
ATOM     25  N   UNL     1       1.947   8.284  19.872  0.00  0.00    +0.000 NA
ATOM     26  N   UNL     1       2.078   7.396  20.859  0.00  0.00    +0.000 N 
ATOM     27  C   UNL     1       2.309   6.119  20.433  0.00  0.00    +0.000 A 
ATOM     28  H   UNL     1       2.005   7.735  21.810  0.00  0.00    +0.000 HD
BRANCH  27  29
ATOM     29  O   UNL     1       2.453   5.112  21.287  0.00  0.00    +0.000 OA
ATOM     30  H   UNL     1       3.363   4.772  21.271  0.00  0.00    +0.000 HD
ENDBRANCH  27  29
ENDBRANCH   1  22
TORSDOF 7
ENDMDL
MODEL 6
REMARK VINA RESULT:      -7.4      1.048      3.982
REMARK  Name = 
REMARK  10 active torsions:
REMARK  status: ('A' for Active; 'I' for Inactive)
REMARK    1  A    between atoms: C_1  and  O_2
REMARK    2  A    between atoms: O_2  and  C_3
REMARK    3  A    between atoms: C_5  and  C_6
REMARK    4  A    between atoms: C_6  and  C_7
REMARK    5  A    between atoms: C_6  and  C_14
REMARK    6  A    between atoms: C_8  and  C_9
REMARK    7  A    between atoms: C_12  and  O_13
REMARK    8  A    between atoms: C_15  and  C_16
REMARK    9  A    between atoms: C_19  and  O_20
REMARK   10  A    between atoms: C_24  and  O_25
REMARK                            x       y       z     vdW  Elec       q    Type
REMARK                         _______ _______ _______ _____ _____    ______ ____
ROOT
ATOM      1  C   UNL     1       3.871   4.999  18.998  0.00  0.00    +0.000 C 
ENDROOT
BRANCH   1   4
ATOM      2  C   UNL     1       7.052   6.153  17.094  0.00  0.00    +0.000 A 
ATOM      3  C   UNL     1       6.112   5.952  18.118  0.00  0.00    +0.000 A 
ATOM      4  C   UNL     1       4.950   5.175  17.932  0.00  0.00    +0.000 A 
ATOM      5  C   UNL     1       4.788   4.543  16.687  0.00  0.00    +0.000 A 
ATOM      6  C   UNL     1       5.743   4.697  15.680  0.00  0.00    +0.000 A 
ATOM      7 CL   UNL     1       5.512   3.875  14.177  0.00  0.00    +0.000 Cl
ATOM      8  C   UNL     1       6.874   5.499  15.875  0.00  0.00    +0.000 A 
BRANCH   2  10
ATOM      9  C   UNL     1       7.763   8.340  17.666  0.00  0.00    +0.000 C 
ATOM     10  O   UNL     1       8.093   6.974  17.443  0.00  0.00    +0.000 OA
ENDBRANCH   2  10
BRANCH   8  11
ATOM     11  O   UNL     1       7.808   5.609  14.875  0.00  0.00    +0.000 OA
ATOM     12  H   UNL     1       7.764   6.523  14.540  0.00  0.00    +0.000 HD
ENDBRANCH   8  11
ENDBRANCH   1   4
BRANCH   1  13
ATOM     13  C   UNL     1       3.102   6.293  19.053  0.00  0.00    +0.000 A 
ATOM     14  C   UNL     1       2.975   7.348  18.096  0.00  0.00    +0.000 A 
ATOM     15  C   UNL     1       3.587   7.501  16.748  0.00  0.00    +0.000 C 
ATOM     16  N   UNL     1       2.159   8.322  18.528  0.00  0.00    +0.000 NA
ATOM     17  N   UNL     1       1.778   7.915  19.743  0.00  0.00    +0.000 N 
ATOM     18  C   UNL     1       2.290   6.698  20.101  0.00  0.00    +0.000 A 
ATOM     19  H   UNL     1       1.153   8.515  20.264  0.00  0.00    +0.000 HD
BRANCH  18  20
ATOM     20  O   UNL     1       2.003   6.096  21.253  0.00  0.00    +0.000 OA
ATOM     21  H   UNL     1       2.808   5.730  21.650  0.00  0.00    +0.000 HD
ENDBRANCH  18  20
ENDBRANCH   1  13
BRANCH   1  22
ATOM     22  C   UNL     1       3.067   3.736  18.776  0.00  0.00    +0.000 A 
ATOM     23  C   UNL     1       3.389   2.434  19.302  0.00  0.00    +0.000 A 
ATOM     24  C   UNL     1       4.507   2.013  20.188  0.00  0.00    +0.000 C 
ATOM     25  N   UNL     1       2.514   1.498  18.917  0.00  0.00    +0.000 NA
ATOM     26  N   UNL     1       1.644   2.164  18.155  0.00  0.00    +0.000 N 
ATOM     27  C   UNL     1       1.913   3.498  18.039  0.00  0.00    +0.000 A 
ATOM     28  H   UNL     1       0.887   1.640  17.735  0.00  0.00    +0.000 HD
BRANCH  27  29
ATOM     29  O   UNL     1       1.140   4.308  17.325  0.00  0.00    +0.000 OA
ATOM     30  H   UNL     1       1.672   4.981  16.868  0.00  0.00    +0.000 HD
ENDBRANCH  27  29
ENDBRANCH   1  22
TORSDOF 7
ENDMDL
MODEL 7
REMARK VINA RESULT:      -7.4      1.590      4.061
REMARK  Name = 
REMARK  10 active torsions:
REMARK  status: ('A' for Active; 'I' for Inactive)
REMARK    1  A    between atoms: C_1  and  O_2
REMARK    2  A    between atoms: O_2  and  C_3
REMARK    3  A    between atoms: C_5  and  C_6
REMARK    4  A    between atoms: C_6  and  C_7
REMARK    5  A    between atoms: C_6  and  C_14
REMARK    6  A    between atoms: C_8  and  C_9
REMARK    7  A    between atoms: C_12  and  O_13
REMARK    8  A    between atoms: C_15  and  C_16
REMARK    9  A    between atoms: C_19  and  O_20
REMARK   10  A    between atoms: C_24  and  O_25
REMARK                            x       y       z     vdW  Elec       q    Type
REMARK                         _______ _______ _______ _____ _____    ______ ____
ROOT
ATOM      1  C   UNL     1       3.213   5.249  19.643  0.00  0.00    +0.000 C 
ENDROOT
BRANCH   1   4
ATOM      2  C   UNL     1       6.921   5.487  18.513  0.00  0.00    +0.000 A 
ATOM      3  C   UNL     1       5.751   5.617  19.279  0.00  0.00    +0.000 A 
ATOM      4  C   UNL     1       4.519   5.062  18.874  0.00  0.00    +0.000 A 
ATOM      5  C   UNL     1       4.510   4.306  17.689  0.00  0.00    +0.000 A 
ATOM      6  C   UNL     1       5.680   4.130  16.947  0.00  0.00    +0.000 A 
ATOM      7 CL   UNL     1       5.622   3.167  15.512  0.00  0.00    +0.000 Cl
ATOM      8  C   UNL     1       6.886   4.717  17.351  0.00  0.00    +0.000 A 
BRANCH   2  10
ATOM      9  C   UNL     1       8.247   7.450  18.562  0.00  0.00    +0.000 C 
ATOM     10  O   UNL     1       8.010   6.131  19.041  0.00  0.00    +0.000 OA
ENDBRANCH   2  10
BRANCH   8  11
ATOM     11  O   UNL     1       8.024   4.503  16.615  0.00  0.00    +0.000 OA
ATOM     12  H   UNL     1       8.268   3.567  16.728  0.00  0.00    +0.000 HD
ENDBRANCH   8  11
ENDBRANCH   1   4
BRANCH   1  13
ATOM     13  C   UNL     1       2.718   6.635  19.324  0.00  0.00    +0.000 A 
ATOM     14  C   UNL     1       2.883   7.442  18.155  0.00  0.00    +0.000 A 
ATOM     15  C   UNL     1       3.618   7.164  16.892  0.00  0.00    +0.000 C 
ATOM     16  N   UNL     1       2.247   8.619  18.264  0.00  0.00    +0.000 NA
ATOM     17  N   UNL     1       1.696   8.582  19.482  0.00  0.00    +0.000 N 
ATOM     18  C   UNL     1       1.923   7.412  20.153  0.00  0.00    +0.000 A 
ATOM     19  H   UNL     1       1.165   9.388  19.781  0.00  0.00    +0.000 HD
BRANCH  18  20
ATOM     20  O   UNL     1       1.430   7.157  21.362  0.00  0.00    +0.000 OA
ATOM     21  H   UNL     1       2.057   6.623  21.875  0.00  0.00    +0.000 HD
ENDBRANCH  18  20
ENDBRANCH   1  13
BRANCH   1  22
ATOM     22  C   UNL     1       2.251   4.106  19.397  0.00  0.00    +0.000 A 
ATOM     23  C   UNL     1       2.045   2.981  20.272  0.00  0.00    +0.000 A 
ATOM     24  C   UNL     1       2.652   2.678  21.595  0.00  0.00    +0.000 C 
ATOM     25  N   UNL     1       1.154   2.111  19.782  0.00  0.00    +0.000 NA
ATOM     26  N   UNL     1       0.789   2.646  18.616  0.00  0.00    +0.000 N 
ATOM     27  C   UNL     1       1.399   3.835  18.333  0.00  0.00    +0.000 A 
ATOM     28  H   UNL     1       0.118   2.139  18.053  0.00  0.00    +0.000 HD
BRANCH  27  29
ATOM     29  O   UNL     1       1.141   4.507  17.217  0.00  0.00    +0.000 OA
ATOM     30  H   UNL     1       0.654   5.326  17.411  0.00  0.00    +0.000 HD
ENDBRANCH  27  29
ENDBRANCH   1  22
TORSDOF 7
ENDMDL
MODEL 8
REMARK VINA RESULT:      -7.3      1.577      2.349
REMARK  Name = 
REMARK  10 active torsions:
REMARK  status: ('A' for Active; 'I' for Inactive)
REMARK    1  A    between atoms: C_1  and  O_2
REMARK    2  A    between atoms: O_2  and  C_3
REMARK    3  A    between atoms: C_5  and  C_6
REMARK    4  A    between atoms: C_6  and  C_7
REMARK    5  A    between atoms: C_6  and  C_14
REMARK    6  A    between atoms: C_8  and  C_9
REMARK    7  A    between atoms: C_12  and  O_13
REMARK    8  A    between atoms: C_15  and  C_16
REMARK    9  A    between atoms: C_19  and  O_20
REMARK   10  A    between atoms: C_24  and  O_25
REMARK                            x       y       z     vdW  Elec       q    Type
REMARK                         _______ _______ _______ _____ _____    ______ ____
ROOT
ATOM      1  C   UNL     1       3.145   4.868  17.729  0.00  0.00    +0.000 C 
ENDROOT
BRANCH   1   4
ATOM      2  C   UNL     1       6.567   6.267  16.540  0.00  0.00    +0.000 A 
ATOM      3  C   UNL     1       5.426   6.025  17.322  0.00  0.00    +0.000 A 
ATOM      4  C   UNL     1       4.433   5.099  16.942  0.00  0.00    +0.000 A 
ATOM      5  C   UNL     1       4.653   4.364  15.764  0.00  0.00    +0.000 A 
ATOM      6  C   UNL     1       5.809   4.562  15.005  0.00  0.00    +0.000 A 
ATOM      7 CL   UNL     1       6.047   3.612  13.580  0.00  0.00    +0.000 Cl
ATOM      8  C   UNL     1       6.767   5.510  15.385  0.00  0.00    +0.000 A 
BRANCH   2  10
ATOM      9  C   UNL     1       7.918   6.991  18.347  0.00  0.00    +0.000 C 
ATOM     10  O   UNL     1       7.398   7.233  17.044  0.00  0.00    +0.000 OA
ENDBRANCH   2  10
BRANCH   8  11
ATOM     11  O   UNL     1       7.905   5.663  14.633  0.00  0.00    +0.000 OA
ATOM     12  H   UNL     1       8.412   4.834  14.707  0.00  0.00    +0.000 HD
ENDBRANCH   8  11
ENDBRANCH   1   4
BRANCH   1  13
ATOM     13  C   UNL     1       3.343   3.601  18.519  0.00  0.00    +0.000 A 
ATOM     14  C   UNL     1       2.434   2.544  18.838  0.00  0.00    +0.000 A 
ATOM     15  C   UNL     1       0.995   2.381  18.498  0.00  0.00    +0.000 C 
ATOM     16  N   UNL     1       3.026   1.570  19.545  0.00  0.00    +0.000 NA
ATOM     17  N   UNL     1       4.285   1.992  19.696  0.00  0.00    +0.000 N 
ATOM     18  C   UNL     1       4.540   3.189  19.083  0.00  0.00    +0.000 A 
ATOM     19  H   UNL     1       4.919   1.402  20.216  0.00  0.00    +0.000 HD
BRANCH  18  20
ATOM     20  O   UNL     1       5.740   3.765  19.080  0.00  0.00    +0.000 OA
ATOM     21  H   UNL     1       6.200   3.577  18.248  0.00  0.00    +0.000 HD
ENDBRANCH  18  20
ENDBRANCH   1  13
BRANCH   1  22
ATOM     22  C   UNL     1       2.738   6.101  18.507  0.00  0.00    +0.000 A 
ATOM     23  C   UNL     1       2.334   6.124  19.889  0.00  0.00    +0.000 A 
ATOM     24  C   UNL     1       2.258   5.017  20.879  0.00  0.00    +0.000 C 
ATOM     25  N   UNL     1       2.001   7.353  20.303  0.00  0.00    +0.000 NA
ATOM     26  N   UNL     1       2.175   8.114  19.221  0.00  0.00    +0.000 N 
ATOM     27  C   UNL     1       2.618   7.431  18.125  0.00  0.00    +0.000 A 
ATOM     28  H   UNL     1       1.962   9.100  19.300  0.00  0.00    +0.000 HD
BRANCH  27  29
ATOM     29  O   UNL     1       2.853   8.040  16.968  0.00  0.00    +0.000 OA
ATOM     30  H   UNL     1       3.072   8.977  17.108  0.00  0.00    +0.000 HD
ENDBRANCH  27  29
ENDBRANCH   1  22
TORSDOF 7
ENDMDL
MODEL 9
REMARK VINA RESULT:      -7.3      2.241      4.597
REMARK  Name = 
REMARK  10 active torsions:
REMARK  status: ('A' for Active; 'I' for Inactive)
REMARK    1  A    between atoms: C_1  and  O_2
REMARK    2  A    between atoms: O_2  and  C_3
REMARK    3  A    between atoms: C_5  and  C_6
REMARK    4  A    between atoms: C_6  and  C_7
REMARK    5  A    between atoms: C_6  and  C_14
REMARK    6  A    between atoms: C_8  and  C_9
REMARK    7  A    between atoms: C_12  and  O_13
REMARK    8  A    between atoms: C_15  and  C_16
REMARK    9  A    between atoms: C_19  and  O_20
REMARK   10  A    between atoms: C_24  and  O_25
REMARK                            x       y       z     vdW  Elec       q    Type
REMARK                         _______ _______ _______ _____ _____    ______ ____
ROOT
ATOM      1  C   UNL     1       3.153   5.327  19.517  0.00  0.00    +0.000 C 
ENDROOT
BRANCH   1   4
ATOM      2  C   UNL     1       5.768   4.149  16.899  0.00  0.00    +0.000 A 
ATOM      3  C   UNL     1       4.542   4.422  17.528  0.00  0.00    +0.000 A 
ATOM      4  C   UNL     1       4.462   5.084  18.771  0.00  0.00    +0.000 A 
ATOM      5  C   UNL     1       5.666   5.528  19.344  0.00  0.00    +0.000 A 
ATOM      6  C   UNL     1       6.887   5.305  18.701  0.00  0.00    +0.000 A 
ATOM      7 CL   UNL     1       8.337   5.897  19.433  0.00  0.00    +0.000 Cl
ATOM      8  C   UNL     1       6.945   4.618  17.482  0.00  0.00    +0.000 A 
BRANCH   2  10
ATOM      9  C   UNL     1       5.575   4.248  14.539  0.00  0.00    +0.000 C 
ATOM     10  O   UNL     1       5.652   3.458  15.721  0.00  0.00    +0.000 OA
ENDBRANCH   2  10
BRANCH   8  11
ATOM     11  O   UNL     1       8.156   4.438  16.863  0.00  0.00    +0.000 OA
ATOM     12  H   UNL     1       8.180   5.039  16.096  0.00  0.00    +0.000 HD
ENDBRANCH   8  11
ENDBRANCH   1   4
BRANCH   1  13
ATOM     13  C   UNL     1       2.680   6.702  19.124  0.00  0.00    +0.000 A 
ATOM     14  C   UNL     1       1.878   7.653  19.829  0.00  0.00    +0.000 A 
ATOM     15  C   UNL     1       1.244   7.567  21.172  0.00  0.00    +0.000 C 
ATOM     16  N   UNL     1       1.712   8.786  19.129  0.00  0.00    +0.000 NA
ATOM     17  N   UNL     1       2.377   8.567  17.990  0.00  0.00    +0.000 N 
ATOM     18  C   UNL     1       2.996   7.348  17.940  0.00  0.00    +0.000 A 
ATOM     19  H   UNL     1       2.377   9.304  17.297  0.00  0.00    +0.000 HD
BRANCH  18  20
ATOM     20  O   UNL     1       3.741   6.950  16.911  0.00  0.00    +0.000 OA
ATOM     21  H   UNL     1       3.236   6.347  16.344  0.00  0.00    +0.000 HD
ENDBRANCH  18  20
ENDBRANCH   1  13
BRANCH   1  22
ATOM     22  C   UNL     1       2.177   4.186  19.319  0.00  0.00    +0.000 A 
ATOM     23  C   UNL     1       1.942   3.114  20.252  0.00  0.00    +0.000 A 
ATOM     24  C   UNL     1       2.524   2.876  21.599  0.00  0.00    +0.000 C 
ATOM     25  N   UNL     1       1.044   2.231  19.796  0.00  0.00    +0.000 NA
ATOM     26  N   UNL     1       0.704   2.706  18.597  0.00  0.00    +0.000 N 
ATOM     27  C   UNL     1       1.337   3.869  18.260  0.00  0.00    +0.000 A 
ATOM     28  H   UNL     1       0.034   2.178  18.053  0.00  0.00    +0.000 HD
BRANCH  27  29
ATOM     29  O   UNL     1       1.105   4.482  17.104  0.00  0.00    +0.000 OA
ATOM     30  H   UNL     1       0.973   5.435  17.238  0.00  0.00    +0.000 HD
ENDBRANCH  27  29
ENDBRANCH   1  22
TORSDOF 7
ENDMDL
