MODEL 1
REMARK VINA RESULT:      -8.8      0.000      0.000
REMARK  Name = 
REMARK  12 active torsions:
REMARK  status: ('A' for Active; 'I' for Inactive)
REMARK    1  A    between atoms: C_1  and  N_2
REMARK    2  A    between atoms: C_3  and  C_5
REMARK    3  A    between atoms: C_5  and  C_6
REMARK    4  A    between atoms: C_6  and  C_7
REMARK    5  A    between atoms: C_7  and  C_8
REMARK    6  A    between atoms: C_9  and  C_10
REMARK    7  A    between atoms: C_9  and  C_29
REMARK    8  A    between atoms: C_13  and  C_14
REMARK    9  A    between atoms: C_14  and  C_15
REMARK   10  A    between atoms: C_15  and  N_16
REMARK   11  A    between atoms: N_16  and  S_17
REMARK   12  A    between atoms: S_17  and  C_20
REMARK                            x       y       z     vdW  Elec       q    Type
REMARK                         _______ _______ _______ _____ _____    ______ ____
ROOT
ATOM      1  C   UNL     1       2.786   7.063  18.552  0.00  0.00    +0.000 A 
ATOM      2  C   UNL     1       2.531   8.060  17.606  0.00  0.00    +0.000 A 
ATOM      3  C   UNL     1       1.728   9.161  17.934  0.00  0.00    +0.000 A 
ATOM      4  C   UNL     1       1.167   9.276  19.212  0.00  0.00    +0.000 A 
ATOM      5  C   UNL     1       1.452   8.288  20.166  0.00  0.00    +0.000 A 
ATOM      6  C   UNL     1       2.249   7.188  19.837  0.00  0.00    +0.000 A 
ENDROOT
BRANCH   1   8
ATOM      7  C   UNL     1       3.048   4.745  17.787  0.00  0.00    +0.000 C 
ATOM      8  C   UNL     1       3.623   5.894  18.204  0.00  0.00    +0.000 C 
BRANCH   8   9
ATOM      9  C   UNL     1       5.100   5.933  18.265  0.00  0.00    +0.000 A 
ATOM     10  C   UNL     1       5.852   6.662  17.341  0.00  0.00    +0.000 A 
ATOM     11  C   UNL     1       7.242   6.684  17.442  0.00  0.00    +0.000 A 
ATOM     12  C   UNL     1       7.838   5.969  18.471  0.00  0.00    +0.000 A 
ATOM     13  N   UNL     1       7.148   5.248  19.380  0.00  0.00    +0.000 NA
ATOM     14  C   UNL     1       5.799   5.247  19.256  0.00  0.00    +0.000 A 
ENDBRANCH   8   9
BRANCH   7  15
ATOM     15  C   UNL     1       1.569   4.485  17.634  0.00  0.00    +0.000 C 
BRANCH  15  16
ATOM     16  C   UNL     1       1.123   3.214  18.362  0.00  0.00    +0.000 C 
BRANCH  16  17
ATOM     17  C   UNL     1       0.885   3.483  19.849  0.00  0.00    +0.000 C 
BRANCH  17  20
ATOM     18  C   UNL     1       4.298   2.140  20.760  0.00  0.00    +0.000 C 
ATOM     19  N   UNL     1       3.040   2.423  20.115  0.00  0.00    +0.000 N 
ATOM     20  C   UNL     1       2.152   3.319  20.666  0.00  0.00    +0.000 C 
ATOM     21  O   UNL     1       2.372   3.926  21.710  0.00  0.00    +0.000 OA
ATOM     22  H   UNL     1       2.794   1.921  19.272  0.00  0.00    +0.000 HD
ENDBRANCH  17  20
ENDBRANCH  16  17
ENDBRANCH  15  16
ENDBRANCH   7  15
ENDBRANCH   1   8
BRANCH   4  23
ATOM     23  C   UNL     1       0.239  10.425  19.550  0.00  0.00    +0.000 C 
BRANCH  23  24
ATOM     24  C   UNL     1       0.426  10.870  21.006  0.00  0.00    +0.000 C 
BRANCH  24  25
ATOM     25  N   UNL     1      -0.258  12.144  21.278  0.00  0.00    +0.000 NA
ATOM     26  H   UNL     1      -0.844  12.536  20.538  0.00  0.00    +0.000 HD
BRANCH  25  27
ATOM     27  S   UNL     1      -1.052  12.261  22.771  0.00  0.00    +0.000 S 
ATOM     28  O   UNL     1      -1.006  10.942  23.360  0.00  0.00    +0.000 OA
ATOM     29  O   UNL     1      -0.540  13.424  23.460  0.00  0.00    +0.000 OA
BRANCH  27  30
ATOM     30  C   UNL     1      -2.733  12.572  22.296  0.00  0.00    +0.000 A 
ATOM     31  C   UNL     1      -3.054  12.649  20.936  0.00  0.00    +0.000 A 
ATOM     32  C   UNL     1      -4.376  12.884  20.553  0.00  0.00    +0.000 A 
ATOM     33  C   UNL     1      -5.367  13.031  21.526  0.00  0.00    +0.000 A 
ATOM     34 CL   UNL     1      -6.990  13.339  21.050  0.00  0.00    +0.000 Cl
ATOM     35  C   UNL     1      -5.049  12.932  22.883  0.00  0.00    +0.000 A 
ATOM     36  C   UNL     1      -3.728  12.698  23.272  0.00  0.00    +0.000 A 
ENDBRANCH  27  30
ENDBRANCH  25  27
ENDBRANCH  24  25
ENDBRANCH  23  24
ENDBRANCH   4  23
TORSDOF 11
ENDMDL
MODEL 2
REMARK VINA RESULT:      -8.7      1.968      2.518
REMARK  Name = 
REMARK  12 active torsions:
REMARK  status: ('A' for Active; 'I' for Inactive)
REMARK    1  A    between atoms: C_1  and  N_2
REMARK    2  A    between atoms: C_3  and  C_5
REMARK    3  A    between atoms: C_5  and  C_6
REMARK    4  A    between atoms: C_6  and  C_7
REMARK    5  A    between atoms: C_7  and  C_8
REMARK    6  A    between atoms: C_9  and  C_10
REMARK    7  A    between atoms: C_9  and  C_29
REMARK    8  A    between atoms: C_13  and  C_14
REMARK    9  A    between atoms: C_14  and  C_15
REMARK   10  A    between atoms: C_15  and  N_16
REMARK   11  A    between atoms: N_16  and  S_17
REMARK   12  A    between atoms: S_17  and  C_20
REMARK                            x       y       z     vdW  Elec       q    Type
REMARK                         _______ _______ _______ _____ _____    ______ ____
ROOT
ATOM      1  C   UNL     1       2.626   6.994  18.778  0.00  0.00    +0.000 A 
ATOM      2  C   UNL     1       2.242   6.905  20.120  0.00  0.00    +0.000 A 
ATOM      3  C   UNL     1       1.446   7.902  20.699  0.00  0.00    +0.000 A 
ATOM      4  C   UNL     1       1.027   9.005  19.944  0.00  0.00    +0.000 A 
ATOM      5  C   UNL     1       1.389   9.073  18.590  0.00  0.00    +0.000 A 
ATOM      6  C   UNL     1       2.187   8.080  18.015  0.00  0.00    +0.000 A 
ENDROOT
BRANCH   1   8
ATOM      7  C   UNL     1       2.923   4.814  17.691  0.00  0.00    +0.000 C 
ATOM      8  C   UNL     1       3.476   5.949  18.169  0.00  0.00    +0.000 C 
BRANCH   8   9
ATOM      9  C   UNL     1       4.940   6.104  18.029  0.00  0.00    +0.000 A 
ATOM     10  C   UNL     1       5.830   5.488  18.912  0.00  0.00    +0.000 A 
ATOM     11  C   UNL     1       7.203   5.649  18.736  0.00  0.00    +0.000 A 
ATOM     12  C   UNL     1       7.644   6.428  17.676  0.00  0.00    +0.000 A 
ATOM     13  N   UNL     1       6.818   7.045  16.805  0.00  0.00    +0.000 NA
ATOM     14  C   UNL     1       5.489   6.868  17.001  0.00  0.00    +0.000 A 
ENDBRANCH   8   9
BRANCH   7  15
ATOM     15  C   UNL     1       1.457   4.451  17.712  0.00  0.00    +0.000 C 
BRANCH  15  16
ATOM     16  C   UNL     1       1.183   3.185  18.527  0.00  0.00    +0.000 C 
BRANCH  16  17
ATOM     17  C   UNL     1       1.016   3.508  20.013  0.00  0.00    +0.000 C 
BRANCH  17  20
ATOM     18  C   UNL     1       4.427   2.025  20.684  0.00  0.00    +0.000 C 
ATOM     19  N   UNL     1       3.227   2.535  20.069  0.00  0.00    +0.000 N 
ATOM     20  C   UNL     1       2.193   3.021  20.836  0.00  0.00    +0.000 C 
ATOM     21  O   UNL     1       2.228   3.059  22.062  0.00  0.00    +0.000 OA
ATOM     22  H   UNL     1       3.132   2.491  19.062  0.00  0.00    +0.000 HD
ENDBRANCH  17  20
ENDBRANCH  16  17
ENDBRANCH  15  16
ENDBRANCH   7  15
ENDBRANCH   1   8
BRANCH   4  23
ATOM     23  C   UNL     1       0.228  10.123  20.582  0.00  0.00    +0.000 C 
BRANCH  23  24
ATOM     24  C   UNL     1       1.119  11.338  20.870  0.00  0.00    +0.000 C 
BRANCH  24  25
ATOM     25  N   UNL     1       0.338  12.584  20.920  0.00  0.00    +0.000 NA
ATOM     26  H   UNL     1       0.624  13.297  21.595  0.00  0.00    +0.000 HD
BRANCH  25  27
ATOM     27  S   UNL     1      -0.014  13.305  19.427  0.00  0.00    +0.000 S 
ATOM     28  O   UNL     1      -0.190  14.715  19.687  0.00  0.00    +0.000 OA
ATOM     29  O   UNL     1       0.946  12.820  18.459  0.00  0.00    +0.000 OA
BRANCH  27  30
ATOM     30  C   UNL     1      -1.609  12.633  19.036  0.00  0.00    +0.000 A 
ATOM     31  C   UNL     1      -1.762  11.876  17.870  0.00  0.00    +0.000 A 
ATOM     32  C   UNL     1      -3.012  11.335  17.559  0.00  0.00    +0.000 A 
ATOM     33  C   UNL     1      -4.094  11.547  18.417  0.00  0.00    +0.000 A 
ATOM     34 CL   UNL     1      -5.635  10.896  18.022  0.00  0.00    +0.000 Cl
ATOM     35  C   UNL     1      -3.934  12.284  19.592  0.00  0.00    +0.000 A 
ATOM     36  C   UNL     1      -2.686  12.828  19.907  0.00  0.00    +0.000 A 
ENDBRANCH  27  30
ENDBRANCH  25  27
ENDBRANCH  24  25
ENDBRANCH  23  24
ENDBRANCH   4  23
TORSDOF 11
ENDMDL
MODEL 3
REMARK VINA RESULT:      -8.7      2.170      2.772
REMARK  Name = 
REMARK  12 active torsions:
REMARK  status: ('A' for Active; 'I' for Inactive)
REMARK    1  A    between atoms: C_1  and  N_2
REMARK    2  A    between atoms: C_3  and  C_5
REMARK    3  A    between atoms: C_5  and  C_6
REMARK    4  A    between atoms: C_6  and  C_7
REMARK    5  A    between atoms: C_7  and  C_8
REMARK    6  A    between atoms: C_9  and  C_10
REMARK    7  A    between atoms: C_9  and  C_29
REMARK    8  A    between atoms: C_13  and  C_14
REMARK    9  A    between atoms: C_14  and  C_15
REMARK   10  A    between atoms: C_15  and  N_16
REMARK   11  A    between atoms: N_16  and  S_17
REMARK   12  A    between atoms: S_17  and  C_20
REMARK                            x       y       z     vdW  Elec       q    Type
REMARK                         _______ _______ _______ _____ _____    ______ ____
ROOT
ATOM      1  C   UNL     1       2.663   6.567  18.685  0.00  0.00    +0.000 A 
ATOM      2  C   UNL     1       2.340   6.390  20.034  0.00  0.00    +0.000 A 
ATOM      3  C   UNL     1       1.704   7.411  20.752  0.00  0.00    +0.000 A 
ATOM      4  C   UNL     1       1.387   8.626  20.131  0.00  0.00    +0.000 A 
ATOM      5  C   UNL     1       1.687   8.787  18.770  0.00  0.00    +0.000 A 
ATOM      6  C   UNL     1       2.325   7.769  18.055  0.00  0.00    +0.000 A 
ENDROOT
BRANCH   1   8
ATOM      7  C   UNL     1       2.675   4.377  17.577  0.00  0.00    +0.000 C 
ATOM      8  C   UNL     1       3.345   5.495  17.929  0.00  0.00    +0.000 C 
BRANCH   8   9
ATOM      9  C   UNL     1       4.758   5.604  17.504  0.00  0.00    +0.000 A 
ATOM     10  C   UNL     1       5.810   5.349  18.386  0.00  0.00    +0.000 A 
ATOM     11  C   UNL     1       7.127   5.449  17.941  0.00  0.00    +0.000 A 
ATOM     12  C   UNL     1       7.349   5.806  16.619  0.00  0.00    +0.000 A 
ATOM     13  N   UNL     1       6.361   6.066  15.736  0.00  0.00    +0.000 NA
ATOM     14  C   UNL     1       5.092   5.959  16.199  0.00  0.00    +0.000 A 
ENDBRANCH   8   9
BRANCH   7  15
ATOM     15  C   UNL     1       1.231   4.060  17.887  0.00  0.00    +0.000 C 
BRANCH  15  16
ATOM     16  C   UNL     1       1.081   2.777  18.707  0.00  0.00    +0.000 C 
BRANCH  16  17
ATOM     17  C   UNL     1       1.014   3.081  20.205  0.00  0.00    +0.000 C 
BRANCH  17  20
ATOM     18  C   UNL     1       4.611   1.974  20.547  0.00  0.00    +0.000 C 
ATOM     19  N   UNL     1       3.305   2.329  20.051  0.00  0.00    +0.000 N 
ATOM     20  C   UNL     1       2.318   2.758  20.908  0.00  0.00    +0.000 C 
ATOM     21  O   UNL     1       2.484   2.872  22.119  0.00  0.00    +0.000 OA
ATOM     22  H   UNL     1       3.105   2.217  19.065  0.00  0.00    +0.000 HD
ENDBRANCH  17  20
ENDBRANCH  16  17
ENDBRANCH  15  16
ENDBRANCH   7  15
ENDBRANCH   1   8
BRANCH   4  23
ATOM     23  C   UNL     1       0.767   9.761  20.920  0.00  0.00    +0.000 C 
BRANCH  23  24
ATOM     24  C   UNL     1      -0.658  10.053  20.433  0.00  0.00    +0.000 C 
BRANCH  24  25
ATOM     25  N   UNL     1      -0.780  11.417  19.895  0.00  0.00    +0.000 NA
ATOM     26  H   UNL     1       0.016  12.047  20.011  0.00  0.00    +0.000 HD
BRANCH  25  27
ATOM     27  S   UNL     1      -1.400  11.546  18.323  0.00  0.00    +0.000 S 
ATOM     28  O   UNL     1      -0.926  12.808  17.801  0.00  0.00    +0.000 OA
ATOM     29  O   UNL     1      -1.153  10.295  17.640  0.00  0.00    +0.000 OA
BRANCH  27  30
ATOM     30  C   UNL     1      -3.144  11.710  18.603  0.00  0.00    +0.000 A 
ATOM     31  C   UNL     1      -3.591  12.410  19.729  0.00  0.00    +0.000 A 
ATOM     32  C   UNL     1      -4.962  12.552  19.952  0.00  0.00    +0.000 A 
ATOM     33  C   UNL     1      -5.874  12.002  19.049  0.00  0.00    +0.000 A 
ATOM     34 CL   UNL     1      -7.562  12.163  19.338  0.00  0.00    +0.000 Cl
ATOM     35  C   UNL     1      -5.428  11.322  17.914  0.00  0.00    +0.000 A 
ATOM     36  C   UNL     1      -4.057  11.176  17.686  0.00  0.00    +0.000 A 
ENDBRANCH  27  30
ENDBRANCH  25  27
ENDBRANCH  24  25
ENDBRANCH  23  24
ENDBRANCH   4  23
TORSDOF 11
ENDMDL
MODEL 4
REMARK VINA RESULT:      -8.5      4.471      9.726
REMARK  Name = 
REMARK  12 active torsions:
REMARK  status: ('A' for Active; 'I' for Inactive)
REMARK    1  A    between atoms: C_1  and  N_2
REMARK    2  A    between atoms: C_3  and  C_5
REMARK    3  A    between atoms: C_5  and  C_6
REMARK    4  A    between atoms: C_6  and  C_7
REMARK    5  A    between atoms: C_7  and  C_8
REMARK    6  A    between atoms: C_9  and  C_10
REMARK    7  A    between atoms: C_9  and  C_29
REMARK    8  A    between atoms: C_13  and  C_14
REMARK    9  A    between atoms: C_14  and  C_15
REMARK   10  A    between atoms: C_15  and  N_16
REMARK   11  A    between atoms: N_16  and  S_17
REMARK   12  A    between atoms: S_17  and  C_20
REMARK                            x       y       z     vdW  Elec       q    Type
REMARK                         _______ _______ _______ _____ _____    ______ ____
ROOT
ATOM      1  C   UNL     1       1.195   9.483  19.278  0.00  0.00    +0.000 A 
ATOM      2  C   UNL     1       1.924   8.644  18.428  0.00  0.00    +0.000 A 
ATOM      3  C   UNL     1       2.287   7.356  18.841  0.00  0.00    +0.000 A 
ATOM      4  C   UNL     1       1.932   6.891  20.113  0.00  0.00    +0.000 A 
ATOM      5  C   UNL     1       1.175   7.725  20.950  0.00  0.00    +0.000 A 
ATOM      6  C   UNL     1       0.816   9.012  20.539  0.00  0.00    +0.000 A 
ENDROOT
BRANCH   1   8
ATOM      7  C   UNL     1      -0.278  11.044  18.088  0.00  0.00    +0.000 C 
ATOM      8  C   UNL     1       0.822  10.847  18.847  0.00  0.00    +0.000 C 
BRANCH   8   9
ATOM      9  C   UNL     1       1.599  12.041  19.243  0.00  0.00    +0.000 A 
ATOM     10  C   UNL     1       2.380  12.744  18.323  0.00  0.00    +0.000 A 
ATOM     11  C   UNL     1       3.087  13.873  18.734  0.00  0.00    +0.000 A 
ATOM     12  C   UNL     1       2.990  14.262  20.063  0.00  0.00    +0.000 A 
ATOM     13  N   UNL     1       2.252  13.608  20.983  0.00  0.00    +0.000 NA
ATOM     14  C   UNL     1       1.575  12.515  20.553  0.00  0.00    +0.000 A 
ENDBRANCH   8   9
BRANCH   7  15
ATOM     15  C   UNL     1      -1.224   9.981  17.584  0.00  0.00    +0.000 C 
BRANCH  15  16
ATOM     16  C   UNL     1      -2.627  10.122  18.178  0.00  0.00    +0.000 C 
BRANCH  16  17
ATOM     17  C   UNL     1      -3.618  10.655  17.141  0.00  0.00    +0.000 C 
BRANCH  17  20
ATOM     18  C   UNL     1      -6.892  12.524  17.408  0.00  0.00    +0.000 C 
ATOM     19  N   UNL     1      -5.785  11.709  16.972  0.00  0.00    +0.000 N 
ATOM     20  C   UNL     1      -4.677  11.540  17.769  0.00  0.00    +0.000 C 
ATOM     21  O   UNL     1      -4.565  12.051  18.879  0.00  0.00    +0.000 OA
ATOM     22  H   UNL     1      -5.812  11.295  16.049  0.00  0.00    +0.000 HD
ENDBRANCH  17  20
ENDBRANCH  16  17
ENDBRANCH  15  16
ENDBRANCH   7  15
ENDBRANCH   1   8
BRANCH   4  23
ATOM     23  C   UNL     1       2.385   5.527  20.595  0.00  0.00    +0.000 C 
BRANCH  23  24
ATOM     24  C   UNL     1       1.672   4.409  19.824  0.00  0.00    +0.000 C 
BRANCH  24  25
ATOM     25  N   UNL     1       2.572   3.277  19.553  0.00  0.00    +0.000 NA
ATOM     26  H   UNL     1       2.314   2.363  19.930  0.00  0.00    +0.000 HD
BRANCH  25  27
ATOM     27  S   UNL     1       3.107   3.116  17.953  0.00  0.00    +0.000 S 
ATOM     28  O   UNL     1       3.729   1.814  17.861  0.00  0.00    +0.000 OA
ATOM     29  O   UNL     1       2.025   3.509  17.078  0.00  0.00    +0.000 OA
BRANCH  27  30
ATOM     30  C   UNL     1       4.397   4.329  17.849  0.00  0.00    +0.000 A 
ATOM     31  C   UNL     1       4.436   5.190  16.746  0.00  0.00    +0.000 A 
ATOM     32  C   UNL     1       5.442   6.155  16.661  0.00  0.00    +0.000 A 
ATOM     33  C   UNL     1       6.394   6.258  17.677  0.00  0.00    +0.000 A 
ATOM     34 CL   UNL     1       7.643   7.435  17.559  0.00  0.00    +0.000 Cl
ATOM     35  C   UNL     1       6.342   5.413  18.787  0.00  0.00    +0.000 A 
ATOM     36  C   UNL     1       5.338   4.445  18.878  0.00  0.00    +0.000 A 
ENDBRANCH  27  30
ENDBRANCH  25  27
ENDBRANCH  24  25
ENDBRANCH  23  24
ENDBRANCH   4  23
TORSDOF 11
ENDMDL
MODEL 5
REMARK VINA RESULT:      -8.4      7.362      9.192
REMARK  Name = 
REMARK  12 active torsions:
REMARK  status: ('A' for Active; 'I' for Inactive)
REMARK    1  A    between atoms: C_1  and  N_2
REMARK    2  A    between atoms: C_3  and  C_5
REMARK    3  A    between atoms: C_5  and  C_6
REMARK    4  A    between atoms: C_6  and  C_7
REMARK    5  A    between atoms: C_7  and  C_8
REMARK    6  A    between atoms: C_9  and  C_10
REMARK    7  A    between atoms: C_9  and  C_29
REMARK    8  A    between atoms: C_13  and  C_14
REMARK    9  A    between atoms: C_14  and  C_15
REMARK   10  A    between atoms: C_15  and  N_16
REMARK   11  A    between atoms: N_16  and  S_17
REMARK   12  A    between atoms: S_17  and  C_20
REMARK                            x       y       z     vdW  Elec       q    Type
REMARK                         _______ _______ _______ _____ _____    ______ ____
ROOT
ATOM      1  C   UNL     1       5.986   5.400  17.544  0.00  0.00    +0.000 A 
ATOM      2  C   UNL     1       6.975   5.155  18.503  0.00  0.00    +0.000 A 
ATOM      3  C   UNL     1       7.872   6.165  18.871  0.00  0.00    +0.000 A 
ATOM      4  C   UNL     1       7.796   7.434  18.282  0.00  0.00    +0.000 A 
ATOM      5  C   UNL     1       6.783   7.682  17.344  0.00  0.00    +0.000 A 
ATOM      6  C   UNL     1       5.891   6.673  16.973  0.00  0.00    +0.000 A 
ENDROOT
BRANCH   1   8
ATOM      7  C   UNL     1       5.270   3.610  16.025  0.00  0.00    +0.000 C 
ATOM      8  C   UNL     1       5.046   4.330  17.145  0.00  0.00    +0.000 C 
BRANCH   8   9
ATOM      9  C   UNL     1       3.855   3.984  17.950  0.00  0.00    +0.000 A 
ATOM     10  C   UNL     1       2.562   4.113  17.439  0.00  0.00    +0.000 A 
ATOM     11  C   UNL     1       1.467   3.762  18.227  0.00  0.00    +0.000 A 
ATOM     12  C   UNL     1       1.705   3.293  19.512  0.00  0.00    +0.000 A 
ATOM     13  N   UNL     1       2.937   3.160  20.045  0.00  0.00    +0.000 NA
ATOM     14  C   UNL     1       3.981   3.508  19.254  0.00  0.00    +0.000 A 
ENDBRANCH   8   9
BRANCH   7  15
ATOM     15  C   UNL     1       6.423   3.777  15.064  0.00  0.00    +0.000 C 
BRANCH  15  16
ATOM     16  C   UNL     1       6.044   4.612  13.839  0.00  0.00    +0.000 C 
BRANCH  16  17
ATOM     17  C   UNL     1       6.725   4.083  12.575  0.00  0.00    +0.000 C 
BRANCH  17  20
ATOM     18  C   UNL     1       6.087   0.711  10.994  0.00  0.00    +0.000 C 
ATOM     19  N   UNL     1       6.683   1.863  11.623  0.00  0.00    +0.000 N 
ATOM     20  C   UNL     1       5.926   2.973  11.922  0.00  0.00    +0.000 C 
ATOM     21  O   UNL     1       4.723   3.047  11.689  0.00  0.00    +0.000 OA
ATOM     22  H   UNL     1       7.678   1.867  11.802  0.00  0.00    +0.000 HD
ENDBRANCH  17  20
ENDBRANCH  16  17
ENDBRANCH  15  16
ENDBRANCH   7  15
ENDBRANCH   1   8
BRANCH   4  23
ATOM     23  C   UNL     1       8.809   8.509  18.622  0.00  0.00    +0.000 C 
BRANCH  23  24
ATOM     24  C   UNL     1       8.449   9.835  17.941  0.00  0.00    +0.000 C 
BRANCH  24  25
ATOM     25  N   UNL     1       9.555  10.802  18.017  0.00  0.00    +0.000 NA
ATOM     26  H   UNL     1      10.403  10.598  17.484  0.00  0.00    +0.000 HD
BRANCH  25  27
ATOM     27  S   UNL     1       9.133  12.434  17.834  0.00  0.00    +0.000 S 
ATOM     28  O   UNL     1      10.269  13.082  17.218  0.00  0.00    +0.000 OA
ATOM     29  O   UNL     1       7.811  12.491  17.249  0.00  0.00    +0.000 OA
BRANCH  27  30
ATOM     30  C   UNL     1       9.042  13.004  19.512  0.00  0.00    +0.000 A 
ATOM     31  C   UNL     1       8.420  14.227  19.783  0.00  0.00    +0.000 A 
ATOM     32  C   UNL     1       8.335  14.679  21.102  0.00  0.00    +0.000 A 
ATOM     33  C   UNL     1       8.863  13.904  22.137  0.00  0.00    +0.000 A 
ATOM     34 CL   UNL     1       8.773  14.473  23.758  0.00  0.00    +0.000 Cl
ATOM     35  C   UNL     1       9.464  12.673  21.868  0.00  0.00    +0.000 A 
ATOM     36  C   UNL     1       9.552  12.217  20.550  0.00  0.00    +0.000 A 
ENDBRANCH  27  30
ENDBRANCH  25  27
ENDBRANCH  24  25
ENDBRANCH  23  24
ENDBRANCH   4  23
TORSDOF 11
ENDMDL
MODEL 6
REMARK VINA RESULT:      -8.3      2.525      3.145
REMARK  Name = 
REMARK  12 active torsions:
REMARK  status: ('A' for Active; 'I' for Inactive)
REMARK    1  A    between atoms: C_1  and  N_2
REMARK    2  A    between atoms: C_3  and  C_5
REMARK    3  A    between atoms: C_5  and  C_6
REMARK    4  A    between atoms: C_6  and  C_7
REMARK    5  A    between atoms: C_7  and  C_8
REMARK    6  A    between atoms: C_9  and  C_10
REMARK    7  A    between atoms: C_9  and  C_29
REMARK    8  A    between atoms: C_13  and  C_14
REMARK    9  A    between atoms: C_14  and  C_15
REMARK   10  A    between atoms: C_15  and  N_16
REMARK   11  A    between atoms: N_16  and  S_17
REMARK   12  A    between atoms: S_17  and  C_20
REMARK                            x       y       z     vdW  Elec       q    Type
REMARK                         _______ _______ _______ _____ _____    ______ ____
ROOT
ATOM      1  C   UNL     1       2.776   7.115  18.527  0.00  0.00    +0.000 A 
ATOM      2  C   UNL     1       2.231   7.290  19.803  0.00  0.00    +0.000 A 
ATOM      3  C   UNL     1       1.447   8.414  20.092  0.00  0.00    +0.000 A 
ATOM      4  C   UNL     1       1.201   9.382  19.110  0.00  0.00    +0.000 A 
ATOM      5  C   UNL     1       1.726   9.185  17.823  0.00  0.00    +0.000 A 
ATOM      6  C   UNL     1       2.512   8.066  17.537  0.00  0.00    +0.000 A 
ENDROOT
BRANCH   1   8
ATOM      7  C   UNL     1       3.041   4.766  17.865  0.00  0.00    +0.000 C 
ATOM      8  C   UNL     1       3.614   5.935  18.224  0.00  0.00    +0.000 C 
BRANCH   8   9
ATOM      9  C   UNL     1       5.091   5.982  18.269  0.00  0.00    +0.000 A 
ATOM     10  C   UNL     1       5.830   6.710  17.334  0.00  0.00    +0.000 A 
ATOM     11  C   UNL     1       7.221   6.740  17.421  0.00  0.00    +0.000 A 
ATOM     12  C   UNL     1       7.831   6.033  18.447  0.00  0.00    +0.000 A 
ATOM     13  N   UNL     1       7.155   5.313  19.367  0.00  0.00    +0.000 NA
ATOM     14  C   UNL     1       5.804   5.305  19.256  0.00  0.00    +0.000 A 
ENDBRANCH   8   9
BRANCH   7  15
ATOM     15  C   UNL     1       1.561   4.493  17.737  0.00  0.00    +0.000 C 
BRANCH  15  16
ATOM     16  C   UNL     1       1.119   3.283  18.563  0.00  0.00    +0.000 C 
BRANCH  16  17
ATOM     17  C   UNL     1       0.970   3.646  20.042  0.00  0.00    +0.000 C 
BRANCH  17  20
ATOM     18  C   UNL     1       4.307   2.014  20.736  0.00  0.00    +0.000 C 
ATOM     19  N   UNL     1       3.118   2.542  20.115  0.00  0.00    +0.000 N 
ATOM     20  C   UNL     1       2.145   3.160  20.867  0.00  0.00    +0.000 C 
ATOM     21  O   UNL     1       2.229   3.307  22.083  0.00  0.00    +0.000 OA
ATOM     22  H   UNL     1       2.982   2.414  19.121  0.00  0.00    +0.000 HD
ENDBRANCH  17  20
ENDBRANCH  16  17
ENDBRANCH  15  16
ENDBRANCH   7  15
ENDBRANCH   1   8
BRANCH   4  23
ATOM     23  C   UNL     1       0.417  10.636  19.436  0.00  0.00    +0.000 C 
BRANCH  23  24
ATOM     24  C   UNL     1       0.220  10.782  20.950  0.00  0.00    +0.000 C 
BRANCH  24  25
ATOM     25  N   UNL     1      -1.118  11.300  21.277  0.00  0.00    +0.000 NA
ATOM     26  H   UNL     1      -1.780  10.662  21.722  0.00  0.00    +0.000 HD
BRANCH  25  27
ATOM     27  S   UNL     1      -1.164  12.812  22.043  0.00  0.00    +0.000 S 
ATOM     28  O   UNL     1      -2.538  13.255  21.986  0.00  0.00    +0.000 OA
ATOM     29  O   UNL     1      -0.449  12.701  23.296  0.00  0.00    +0.000 OA
BRANCH  27  30
ATOM     30  C   UNL     1      -0.228  13.838  20.939  0.00  0.00    +0.000 A 
ATOM     31  C   UNL     1       1.049  14.262  21.321  0.00  0.00    +0.000 A 
ATOM     32  C   UNL     1       1.797  15.062  20.453  0.00  0.00    +0.000 A 
ATOM     33  C   UNL     1       1.269  15.424  19.213  0.00  0.00    +0.000 A 
ATOM     34 CL   UNL     1       2.185  16.425  18.156  0.00  0.00    +0.000 Cl
ATOM     35  C   UNL     1       0.003  14.983  18.823  0.00  0.00    +0.000 A 
ATOM     36  C   UNL     1      -0.751  14.183  19.687  0.00  0.00    +0.000 A 
ENDBRANCH  27  30
ENDBRANCH  25  27
ENDBRANCH  24  25
ENDBRANCH  23  24
ENDBRANCH   4  23
TORSDOF 11
ENDMDL
MODEL 7
REMARK VINA RESULT:      -8.3      1.791      2.194
REMARK  Name = 
REMARK  12 active torsions:
REMARK  status: ('A' for Active; 'I' for Inactive)
REMARK    1  A    between atoms: C_1  and  N_2
REMARK    2  A    between atoms: C_3  and  C_5
REMARK    3  A    between atoms: C_5  and  C_6
REMARK    4  A    between atoms: C_6  and  C_7
REMARK    5  A    between atoms: C_7  and  C_8
REMARK    6  A    between atoms: C_9  and  C_10
REMARK    7  A    between atoms: C_9  and  C_29
REMARK    8  A    between atoms: C_13  and  C_14
REMARK    9  A    between atoms: C_14  and  C_15
REMARK   10  A    between atoms: C_15  and  N_16
REMARK   11  A    between atoms: N_16  and  S_17
REMARK   12  A    between atoms: S_17  and  C_20
REMARK                            x       y       z     vdW  Elec       q    Type
REMARK                         _______ _______ _______ _____ _____    ______ ____
ROOT
ATOM      1  C   UNL     1       2.816   7.088  18.542  0.00  0.00    +0.000 A 
ATOM      2  C   UNL     1       2.265   7.196  19.823  0.00  0.00    +0.000 A 
ATOM      3  C   UNL     1       1.447   8.284  20.154  0.00  0.00    +0.000 A 
ATOM      4  C   UNL     1       1.173   9.282  19.210  0.00  0.00    +0.000 A 
ATOM      5  C   UNL     1       1.704   9.152  17.918  0.00  0.00    +0.000 A 
ATOM      6  C   UNL     1       2.524   8.068  17.589  0.00  0.00    +0.000 A 
ENDROOT
BRANCH   1   8
ATOM      7  C   UNL     1       3.154   4.791  17.745  0.00  0.00    +0.000 C 
ATOM      8  C   UNL     1       3.689   5.946  18.194  0.00  0.00    +0.000 C 
BRANCH   8   9
ATOM      9  C   UNL     1       5.163   6.021  18.291  0.00  0.00    +0.000 A 
ATOM     10  C   UNL     1       5.918   6.787  17.400  0.00  0.00    +0.000 A 
ATOM     11  C   UNL     1       7.304   6.841  17.535  0.00  0.00    +0.000 A 
ATOM     12  C   UNL     1       7.894   6.120  18.563  0.00  0.00    +0.000 A 
ATOM     13  N   UNL     1       7.202   5.363  19.441  0.00  0.00    +0.000 NA
ATOM     14  C   UNL     1       5.856   5.332  19.284  0.00  0.00    +0.000 A 
ENDBRANCH   8   9
BRANCH   7  15
ATOM     15  C   UNL     1       1.685   4.496  17.552  0.00  0.00    +0.000 C 
BRANCH  15  16
ATOM     16  C   UNL     1       1.322   3.064  17.949  0.00  0.00    +0.000 C 
BRANCH  16  17
ATOM     17  C   UNL     1       2.561   2.279  18.387  0.00  0.00    +0.000 C 
BRANCH  17  20
ATOM     18  C   UNL     1       1.691   2.626  22.048  0.00  0.00    +0.000 C 
ATOM     19  N   UNL     1       1.647   2.505  20.612  0.00  0.00    +0.000 N 
ATOM     20  C   UNL     1       2.806   2.392  19.879  0.00  0.00    +0.000 C 
ATOM     21  O   UNL     1       3.924   2.379  20.387  0.00  0.00    +0.000 OA
ATOM     22  H   UNL     1       0.753   2.548  20.141  0.00  0.00    +0.000 HD
ENDBRANCH  17  20
ENDBRANCH  16  17
ENDBRANCH  15  16
ENDBRANCH   7  15
ENDBRANCH   1   8
BRANCH   4  23
ATOM     23  C   UNL     1       0.351  10.498  19.583  0.00  0.00    +0.000 C 
BRANCH  23  24
ATOM     24  C   UNL     1       1.024  11.786  19.093  0.00  0.00    +0.000 C 
BRANCH  24  25
ATOM     25  N   UNL     1       0.251  12.981  19.470  0.00  0.00    +0.000 NA
ATOM     26  H   UNL     1      -0.764  12.945  19.358  0.00  0.00    +0.000 HD
BRANCH  25  27
ATOM     27  S   UNL     1       0.648  13.686  20.960  0.00  0.00    +0.000 S 
ATOM     28  O   UNL     1       1.782  12.949  21.469  0.00  0.00    +0.000 OA
ATOM     29  O   UNL     1       0.687  15.120  20.779  0.00  0.00    +0.000 OA
BRANCH  27  30
ATOM     30  C   UNL     1      -0.751  13.275  21.971  0.00  0.00    +0.000 A 
ATOM     31  C   UNL     1      -1.750  14.232  22.173  0.00  0.00    +0.000 A 
ATOM     32  C   UNL     1      -2.860  13.914  22.960  0.00  0.00    +0.000 A 
ATOM     33  C   UNL     1      -2.966  12.643  23.529  0.00  0.00    +0.000 A 
ATOM     34 CL   UNL     1      -4.325  12.262  24.513  0.00  0.00    +0.000 Cl
ATOM     35  C   UNL     1      -1.979  11.681  23.308  0.00  0.00    +0.000 A 
ATOM     36  C   UNL     1      -0.866  11.994  22.523  0.00  0.00    +0.000 A 
ENDBRANCH  27  30
ENDBRANCH  25  27
ENDBRANCH  24  25
ENDBRANCH  23  24
ENDBRANCH   4  23
TORSDOF 11
ENDMDL
MODEL 8
REMARK VINA RESULT:      -8.2      2.549      3.152
REMARK  Name = 
REMARK  12 active torsions:
REMARK  status: ('A' for Active; 'I' for Inactive)
REMARK    1  A    between atoms: C_1  and  N_2
REMARK    2  A    between atoms: C_3  and  C_5
REMARK    3  A    between atoms: C_5  and  C_6
REMARK    4  A    between atoms: C_6  and  C_7
REMARK    5  A    between atoms: C_7  and  C_8
REMARK    6  A    between atoms: C_9  and  C_10
REMARK    7  A    between atoms: C_9  and  C_29
REMARK    8  A    between atoms: C_13  and  C_14
REMARK    9  A    between atoms: C_14  and  C_15
REMARK   10  A    between atoms: C_15  and  N_16
REMARK   11  A    between atoms: N_16  and  S_17
REMARK   12  A    between atoms: S_17  and  C_20
REMARK                            x       y       z     vdW  Elec       q    Type
REMARK                         _______ _______ _______ _____ _____    ______ ____
ROOT
ATOM      1  C   UNL     1       2.661   7.153  18.576  0.00  0.00    +0.000 A 
ATOM      2  C   UNL     1       2.197   7.231  19.893  0.00  0.00    +0.000 A 
ATOM      3  C   UNL     1       1.404   8.311  20.303  0.00  0.00    +0.000 A 
ATOM      4  C   UNL     1       1.069   9.330  19.403  0.00  0.00    +0.000 A 
ATOM      5  C   UNL     1       1.512   9.230  18.075  0.00  0.00    +0.000 A 
ATOM      6  C   UNL     1       2.307   8.155  17.668  0.00  0.00    +0.000 A 
ENDROOT
BRANCH   1   8
ATOM      7  C   UNL     1       2.943   4.862  17.742  0.00  0.00    +0.000 C 
ATOM      8  C   UNL     1       3.508   6.020  18.145  0.00  0.00    +0.000 C 
BRANCH   8   9
ATOM      9  C   UNL     1       4.984   6.108  18.106  0.00  0.00    +0.000 A 
ATOM     10  C   UNL     1       5.782   5.461  19.052  0.00  0.00    +0.000 A 
ATOM     11  C   UNL     1       7.170   5.558  18.970  0.00  0.00    +0.000 A 
ATOM     12  C   UNL     1       7.718   6.306  17.938  0.00  0.00    +0.000 A 
ATOM     13  N   UNL     1       6.983   6.951  17.008  0.00  0.00    +0.000 NA
ATOM     14  C   UNL     1       5.636   6.836  17.113  0.00  0.00    +0.000 A 
ENDBRANCH   8   9
BRANCH   7  15
ATOM     15  C   UNL     1       1.466   4.555  17.684  0.00  0.00    +0.000 C 
BRANCH  15  16
ATOM     16  C   UNL     1       1.120   3.229  18.365  0.00  0.00    +0.000 C 
BRANCH  16  17
ATOM     17  C   UNL     1       0.880   3.421  19.864  0.00  0.00    +0.000 C 
BRANCH  17  20
ATOM     18  C   UNL     1       4.346   2.198  20.746  0.00  0.00    +0.000 C 
ATOM     19  N   UNL     1       3.070   2.432  20.116  0.00  0.00    +0.000 N 
ATOM     20  C   UNL     1       2.164   3.311  20.663  0.00  0.00    +0.000 C 
ATOM     21  O   UNL     1       2.382   3.946  21.691  0.00  0.00    +0.000 OA
ATOM     22  H   UNL     1       2.826   1.905  19.287  0.00  0.00    +0.000 HD
ENDBRANCH  17  20
ENDBRANCH  16  17
ENDBRANCH  15  16
ENDBRANCH   7  15
ENDBRANCH   1   8
BRANCH   4  23
ATOM     23  C   UNL     1       0.274  10.537  19.858  0.00  0.00    +0.000 C 
BRANCH  23  24
ATOM     24  C   UNL     1      -0.326  10.304  21.250  0.00  0.00    +0.000 C 
BRANCH  24  25
ATOM     25  N   UNL     1       0.075  11.357  22.197  0.00  0.00    +0.000 NA
ATOM     26  H   UNL     1       1.059  11.632  22.214  0.00  0.00    +0.000 HD
BRANCH  25  27
ATOM     27  S   UNL     1      -0.914  12.733  22.246  0.00  0.00    +0.000 S 
ATOM     28  O   UNL     1      -2.183  12.342  21.675  0.00  0.00    +0.000 OA
ATOM     29  O   UNL     1      -0.816  13.308  23.569  0.00  0.00    +0.000 OA
BRANCH  27  30
ATOM     30  C   UNL     1      -0.124  13.822  21.089  0.00  0.00    +0.000 A 
ATOM     31  C   UNL     1      -0.825  14.229  19.949  0.00  0.00    +0.000 A 
ATOM     32  C   UNL     1      -0.214  15.094  19.038  0.00  0.00    +0.000 A 
ATOM     33  C   UNL     1       1.084  15.550  19.275  0.00  0.00    +0.000 A 
ATOM     34 CL   UNL     1       1.840  16.599  18.141  0.00  0.00    +0.000 Cl
ATOM     35  C   UNL     1       1.775  15.160  20.424  0.00  0.00    +0.000 A 
ATOM     36  C   UNL     1       1.169  14.294  21.339  0.00  0.00    +0.000 A 
ENDBRANCH  27  30
ENDBRANCH  25  27
ENDBRANCH  24  25
ENDBRANCH  23  24
ENDBRANCH   4  23
TORSDOF 11
ENDMDL
MODEL 9
REMARK VINA RESULT:      -8.2      2.064      2.378
REMARK  Name = 
REMARK  12 active torsions:
REMARK  status: ('A' for Active; 'I' for Inactive)
REMARK    1  A    between atoms: C_1  and  N_2
REMARK    2  A    between atoms: C_3  and  C_5
REMARK    3  A    between atoms: C_5  and  C_6
REMARK    4  A    between atoms: C_6  and  C_7
REMARK    5  A    between atoms: C_7  and  C_8
REMARK    6  A    between atoms: C_9  and  C_10
REMARK    7  A    between atoms: C_9  and  C_29
REMARK    8  A    between atoms: C_13  and  C_14
REMARK    9  A    between atoms: C_14  and  C_15
REMARK   10  A    between atoms: C_15  and  N_16
REMARK   11  A    between atoms: N_16  and  S_17
REMARK   12  A    between atoms: S_17  and  C_20
REMARK                            x       y       z     vdW  Elec       q    Type
REMARK                         _______ _______ _______ _____ _____    ______ ____
ROOT
ATOM      1  C   UNL     1       2.640   7.126  18.580  0.00  0.00    +0.000 A 
ATOM      2  C   UNL     1       2.208   7.196  19.908  0.00  0.00    +0.000 A 
ATOM      3  C   UNL     1       1.410   8.264  20.340  0.00  0.00    +0.000 A 
ATOM      4  C   UNL     1       1.037   9.278  19.449  0.00  0.00    +0.000 A 
ATOM      5  C   UNL     1       1.447   9.186  18.111  0.00  0.00    +0.000 A 
ATOM      6  C   UNL     1       2.247   8.123  17.682  0.00  0.00    +0.000 A 
ENDROOT
BRANCH   1   8
ATOM      7  C   UNL     1       2.936   4.831  17.762  0.00  0.00    +0.000 C 
ATOM      8  C   UNL     1       3.492   6.006  18.126  0.00  0.00    +0.000 C 
BRANCH   8   9
ATOM      9  C   UNL     1       4.963   6.125  18.021  0.00  0.00    +0.000 A 
ATOM     10  C   UNL     1       5.815   5.501  18.935  0.00  0.00    +0.000 A 
ATOM     11  C   UNL     1       7.196   5.627  18.793  0.00  0.00    +0.000 A 
ATOM     12  C   UNL     1       7.682   6.381  17.733  0.00  0.00    +0.000 A 
ATOM     13  N   UNL     1       6.893   7.003  16.832  0.00  0.00    +0.000 NA
ATOM     14  C   UNL     1       5.555   6.861  16.997  0.00  0.00    +0.000 A 
ENDBRANCH   8   9
BRANCH   7  15
ATOM     15  C   UNL     1       1.465   4.491  17.772  0.00  0.00    +0.000 C 
BRANCH  15  16
ATOM     16  C   UNL     1       1.175   3.182  18.510  0.00  0.00    +0.000 C 
BRANCH  16  17
ATOM     17  C   UNL     1       0.964   3.425  20.006  0.00  0.00    +0.000 C 
BRANCH  17  20
ATOM     18  C   UNL     1       4.409   2.023  20.674  0.00  0.00    +0.000 C 
ATOM     19  N   UNL     1       3.188   2.483  20.061  0.00  0.00    +0.000 N 
ATOM     20  C   UNL     1       2.166   2.999  20.825  0.00  0.00    +0.000 C 
ATOM     21  O   UNL     1       2.230   3.107  22.046  0.00  0.00    +0.000 OA
ATOM     22  H   UNL     1       3.070   2.381  19.061  0.00  0.00    +0.000 HD
ENDBRANCH  17  20
ENDBRANCH  16  17
ENDBRANCH  15  16
ENDBRANCH   7  15
ENDBRANCH   1   8
BRANCH   4  23
ATOM     23  C   UNL     1       0.236  10.473  19.926  0.00  0.00    +0.000 C 
BRANCH  23  24
ATOM     24  C   UNL     1       0.922  11.151  21.119  0.00  0.00    +0.000 C 
BRANCH  24  25
ATOM     25  N   UNL     1       0.013  12.079  21.812  0.00  0.00    +0.000 NA
ATOM     26  H   UNL     1      -0.136  11.939  22.813  0.00  0.00    +0.000 HD
BRANCH  25  27
ATOM     27  S   UNL     1       0.237  13.727  21.482  0.00  0.00    +0.000 S 
ATOM     28  O   UNL     1       1.509  14.089  22.064  0.00  0.00    +0.000 OA
ATOM     29  O   UNL     1      -0.052  13.945  20.081  0.00  0.00    +0.000 OA
BRANCH  27  30
ATOM     30  C   UNL     1      -1.032  14.495  22.455  0.00  0.00    +0.000 A 
ATOM     31  C   UNL     1      -1.739  15.577  21.920  0.00  0.00    +0.000 A 
ATOM     32  C   UNL     1      -2.747  16.182  22.676  0.00  0.00    +0.000 A 
ATOM     33  C   UNL     1      -3.044  15.699  23.951  0.00  0.00    +0.000 A 
ATOM     34 CL   UNL     1      -4.271  16.459  24.885  0.00  0.00    +0.000 Cl
ATOM     35  C   UNL     1      -2.352  14.605  24.476  0.00  0.00    +0.000 A 
ATOM     36  C   UNL     1      -1.343  13.996  23.725  0.00  0.00    +0.000 A 
ENDBRANCH  27  30
ENDBRANCH  25  27
ENDBRANCH  24  25
ENDBRANCH  23  24
ENDBRANCH   4  23
TORSDOF 11
ENDMDL
