MODEL 1
REMARK VINA RESULT:      -6.8      0.000      0.000
REMARK  Name = 
REMARK  14 active torsions:
REMARK  status: ('A' for Active; 'I' for Inactive)
REMARK    1  A    between atoms: C_1  and  C_2
REMARK    2  A    between atoms: C_2  and  C_3
REMARK    3  A    between atoms: C_2  and  C_4
REMARK    4  A    between atoms: C_4  and  C_5
REMARK    5  A    between atoms: C_4  and  N_8
REMARK    6  A    between atoms: C_5  and  O_7
REMARK    7  A    between atoms: C_10  and  C_11
REMARK    8  A    between atoms: C_11  and  C_12
REMARK    9  A    between atoms: C_11  and  N_13
REMARK   10  A    between atoms: C_14  and  C_16
REMARK   11  A    between atoms: C_16  and  N_17
REMARK   12  A    between atoms: C_16  and  C_18
REMARK   13  A    between atoms: C_18  and  C_19
REMARK   14  A    between atoms: C_18  and  O_20
REMARK                            x       y       z     vdW  Elec       q    Type
REMARK                         _______ _______ _______ _____ _____    ______ ____
ROOT
ATOM      1  C   UNL     1       7.154   5.913  17.069  0.00  0.00    +0.000 C 
ATOM      2  C   UNL     1       7.413   7.354  17.514  0.00  0.00    +0.000 C 
ENDROOT
BRANCH   1   5
ATOM      3  N   UNL     1       4.087   4.714  18.630  0.00  0.00    +0.000 N 
ATOM      4  C   UNL     1       4.640   5.436  17.614  0.00  0.00    +0.000 A 
ATOM      5  C   UNL     1       6.004   5.307  17.808  0.00  0.00    +0.000 A 
ATOM      6  N   UNL     1       6.212   4.481  18.882  0.00  0.00    +0.000 NA
ATOM      7  N   UNL     1       5.038   4.111  19.367  0.00  0.00    +0.000 NA
BRANCH   3   8
ATOM      8  C   UNL     1       2.691   4.517  18.970  0.00  0.00    +0.000 C 
BRANCH   8  10
ATOM      9  C   UNL     1       0.761   2.901  19.329  0.00  0.00    +0.000 C 
ATOM     10  C   UNL     1       2.275   3.028  19.111  0.00  0.00    +0.000 C 
ATOM     11  C   UNL     1       2.658   2.204  17.875  0.00  0.00    +0.000 C 
ENDBRANCH   8  10
BRANCH   8  12
ATOM     12  C   UNL     1       2.402   5.316  20.229  0.00  0.00    +0.000 C 
ATOM     13  O   UNL     1       1.931   6.446  20.231  0.00  0.00    +0.000 OA
BRANCH  12  14
ATOM     14  O   UNL     1       2.687   4.665  21.381  0.00  0.00    +0.000 OA
ATOM     15  H   UNL     1       3.286   5.134  21.997  0.00  0.00    +0.000 HD
ENDBRANCH  12  14
ENDBRANCH   8  12
ENDBRANCH   3   8
ENDBRANCH   1   5
BRANCH   1  16
ATOM     16  N   UNL     1       6.878   5.853  15.642  0.00  0.00    +0.000 N 
ATOM     17  C   UNL     1       6.732   4.647  14.985  0.00  0.00    +0.000 C 
ATOM     18  O   UNL     1       6.833   3.560  15.543  0.00  0.00    +0.000 OA
ATOM     19  H   UNL     1       6.803   6.718  15.124  0.00  0.00    +0.000 HD
BRANCH  17  20
ATOM     20  C   UNL     1       6.549   4.791  13.461  0.00  0.00    +0.000 C 
BRANCH  20  21
ATOM     21  N   UNL     1       7.810   5.334  12.895  0.00  0.00    +0.000 NA
ATOM     22  H   UNL     1       8.529   5.276  13.623  0.00  0.00    +0.000 HD
ATOM     23  H   UNL     1       7.698   6.330  12.709  0.00  0.00    +0.000 HD
ENDBRANCH  20  21
BRANCH  20  24
ATOM     24  C   UNL     1       6.176   3.433  12.814  0.00  0.00    +0.000 C 
ATOM     25  C   UNL     1       4.871   3.515  12.028  0.00  0.00    +0.000 C 
BRANCH  24  26
ATOM     26  O   UNL     1       7.188   2.996  11.893  0.00  0.00    +0.000 OA
ATOM     27  H   UNL     1       7.549   3.785  11.450  0.00  0.00    +0.000 HD
ENDBRANCH  24  26
ENDBRANCH  20  24
ENDBRANCH  17  20
ENDBRANCH   1  16
TORSDOF 10
ENDMDL
MODEL 2
REMARK VINA RESULT:      -6.7      1.989      2.592
REMARK  Name = 
REMARK  14 active torsions:
REMARK  status: ('A' for Active; 'I' for Inactive)
REMARK    1  A    between atoms: C_1  and  C_2
REMARK    2  A    between atoms: C_2  and  C_3
REMARK    3  A    between atoms: C_2  and  C_4
REMARK    4  A    between atoms: C_4  and  C_5
REMARK    5  A    between atoms: C_4  and  N_8
REMARK    6  A    between atoms: C_5  and  O_7
REMARK    7  A    between atoms: C_10  and  C_11
REMARK    8  A    between atoms: C_11  and  C_12
REMARK    9  A    between atoms: C_11  and  N_13
REMARK   10  A    between atoms: C_14  and  C_16
REMARK   11  A    between atoms: C_16  and  N_17
REMARK   12  A    between atoms: C_16  and  C_18
REMARK   13  A    between atoms: C_18  and  C_19
REMARK   14  A    between atoms: C_18  and  O_20
REMARK                            x       y       z     vdW  Elec       q    Type
REMARK                         _______ _______ _______ _____ _____    ______ ____
ROOT
ATOM      1  C   UNL     1       4.909   6.385  17.413  0.00  0.00    +0.000 C 
ATOM      2  C   UNL     1       3.909   7.540  17.479  0.00  0.00    +0.000 C 
ENDROOT
BRANCH   1   5
ATOM      3  N   UNL     1       3.279   3.595  19.096  0.00  0.00    +0.000 N 
ATOM      4  C   UNL     1       3.140   4.641  18.233  0.00  0.00    +0.000 A 
ATOM      5  C   UNL     1       4.411   5.182  18.148  0.00  0.00    +0.000 A 
ATOM      6  N   UNL     1       5.258   4.418  18.907  0.00  0.00    +0.000 NA
ATOM      7  N   UNL     1       4.563   3.442  19.469  0.00  0.00    +0.000 NA
BRANCH   3   8
ATOM      8  C   UNL     1       2.276   2.678  19.605  0.00  0.00    +0.000 C 
BRANCH   8  10
ATOM      9  C   UNL     1       1.702   2.617  22.081  0.00  0.00    +0.000 C 
ATOM     10  C   UNL     1       1.385   3.270  20.728  0.00  0.00    +0.000 C 
ATOM     11  C   UNL     1       1.567   4.787  20.867  0.00  0.00    +0.000 C 
ENDBRANCH   8  10
BRANCH   8  12
ATOM     12  C   UNL     1       1.459   2.183  18.424  0.00  0.00    +0.000 C 
ATOM     13  O   UNL     1       0.236   2.193  18.382  0.00  0.00    +0.000 OA
BRANCH  12  14
ATOM     14  O   UNL     1       2.199   1.737  17.381  0.00  0.00    +0.000 OA
ATOM     15  H   UNL     1       2.787   2.400  16.963  0.00  0.00    +0.000 HD
ENDBRANCH  12  14
ENDBRANCH   8  12
ENDBRANCH   3   8
ENDBRANCH   1   5
BRANCH   1  16
ATOM     16  N   UNL     1       5.181   6.013  16.033  0.00  0.00    +0.000 N 
ATOM     17  C   UNL     1       6.439   5.617  15.626  0.00  0.00    +0.000 C 
ATOM     18  O   UNL     1       7.404   5.561  16.381  0.00  0.00    +0.000 OA
ATOM     19  H   UNL     1       4.427   6.058  15.360  0.00  0.00    +0.000 HD
BRANCH  17  20
ATOM     20  C   UNL     1       6.549   5.366  14.109  0.00  0.00    +0.000 C 
BRANCH  20  21
ATOM     21  N   UNL     1       7.987   5.404  13.738  0.00  0.00    +0.000 NA
ATOM     22  H   UNL     1       8.125   6.204  13.114  0.00  0.00    +0.000 HD
ATOM     23  H   UNL     1       8.214   4.584  13.177  0.00  0.00    +0.000 HD
ENDBRANCH  20  21
BRANCH  20  24
ATOM     24  C   UNL     1       5.898   4.015  13.719  0.00  0.00    +0.000 C 
ATOM     25  C   UNL     1       6.507   3.434  12.447  0.00  0.00    +0.000 C 
BRANCH  24  26
ATOM     26  O   UNL     1       6.075   3.031  14.751  0.00  0.00    +0.000 OA
ATOM     27  H   UNL     1       6.658   2.334  14.401  0.00  0.00    +0.000 HD
ENDBRANCH  24  26
ENDBRANCH  20  24
ENDBRANCH  17  20
ENDBRANCH   1  16
TORSDOF 10
ENDMDL
MODEL 3
REMARK VINA RESULT:      -6.7      1.895      6.966
REMARK  Name = 
REMARK  14 active torsions:
REMARK  status: ('A' for Active; 'I' for Inactive)
REMARK    1  A    between atoms: C_1  and  C_2
REMARK    2  A    between atoms: C_2  and  C_3
REMARK    3  A    between atoms: C_2  and  C_4
REMARK    4  A    between atoms: C_4  and  C_5
REMARK    5  A    between atoms: C_4  and  N_8
REMARK    6  A    between atoms: C_5  and  O_7
REMARK    7  A    between atoms: C_10  and  C_11
REMARK    8  A    between atoms: C_11  and  C_12
REMARK    9  A    between atoms: C_11  and  N_13
REMARK   10  A    between atoms: C_14  and  C_16
REMARK   11  A    between atoms: C_16  and  N_17
REMARK   12  A    between atoms: C_16  and  C_18
REMARK   13  A    between atoms: C_18  and  C_19
REMARK   14  A    between atoms: C_18  and  O_20
REMARK                            x       y       z     vdW  Elec       q    Type
REMARK                         _______ _______ _______ _____ _____    ______ ____
ROOT
ATOM      1  C   UNL     1       6.370   5.374  18.294  0.00  0.00    +0.000 C 
ATOM      2  C   UNL     1       7.765   5.506  18.908  0.00  0.00    +0.000 C 
ENDROOT
BRANCH   1   5
ATOM      3  N   UNL     1       6.841   4.943  14.706  0.00  0.00    +0.000 N 
ATOM      4  C   UNL     1       7.105   4.463  15.954  0.00  0.00    +0.000 A 
ATOM      5  C   UNL     1       6.428   5.323  16.800  0.00  0.00    +0.000 A 
ATOM      6  N   UNL     1       5.751   6.238  16.036  0.00  0.00    +0.000 NA
ATOM      7  N   UNL     1       5.994   5.989  14.760  0.00  0.00    +0.000 NA
BRANCH   3   8
ATOM      8  C   UNL     1       7.314   4.476  13.417  0.00  0.00    +0.000 C 
BRANCH   8  10
ATOM      9  C   UNL     1       6.711   2.691  11.710  0.00  0.00    +0.000 C 
ATOM     10  C   UNL     1       6.201   3.905  12.499  0.00  0.00    +0.000 C 
ATOM     11  C   UNL     1       4.961   3.481  13.296  0.00  0.00    +0.000 C 
ENDBRANCH   8  10
BRANCH   8  12
ATOM     12  C   UNL     1       8.072   5.617  12.760  0.00  0.00    +0.000 C 
ATOM     13  O   UNL     1       7.773   6.108  11.679  0.00  0.00    +0.000 OA
BRANCH  12  14
ATOM     14  O   UNL     1       9.117   6.084  13.484  0.00  0.00    +0.000 OA
ATOM     15  H   UNL     1       9.724   5.403  13.840  0.00  0.00    +0.000 HD
ENDBRANCH  12  14
ENDBRANCH   8  12
ENDBRANCH   3   8
ENDBRANCH   1   5
BRANCH   1  16
ATOM     16  N   UNL     1       5.701   4.177  18.778  0.00  0.00    +0.000 N 
ATOM     17  C   UNL     1       4.345   4.161  19.037  0.00  0.00    +0.000 C 
ATOM     18  O   UNL     1       3.621   5.140  18.890  0.00  0.00    +0.000 OA
ATOM     19  H   UNL     1       6.251   3.343  18.936  0.00  0.00    +0.000 HD
BRANCH  17  20
ATOM     20  C   UNL     1       3.845   2.834  19.641  0.00  0.00    +0.000 C 
BRANCH  20  21
ATOM     21  N   UNL     1       5.020   2.100  20.176  0.00  0.00    +0.000 NA
ATOM     22  H   UNL     1       5.655   2.789  20.591  0.00  0.00    +0.000 HD
ATOM     23  H   UNL     1       5.542   1.686  19.405  0.00  0.00    +0.000 HD
ENDBRANCH  20  21
BRANCH  20  24
ATOM     24  C   UNL     1       2.785   3.087  20.743  0.00  0.00    +0.000 C 
ATOM     25  C   UNL     1       1.374   2.760  20.263  0.00  0.00    +0.000 C 
BRANCH  24  26
ATOM     26  O   UNL     1       3.029   2.274  21.901  0.00  0.00    +0.000 OA
ATOM     27  H   UNL     1       2.939   2.841  22.688  0.00  0.00    +0.000 HD
ENDBRANCH  24  26
ENDBRANCH  20  24
ENDBRANCH  17  20
ENDBRANCH   1  16
TORSDOF 10
ENDMDL
MODEL 4
REMARK VINA RESULT:      -6.6      2.349      3.062
REMARK  Name = 
REMARK  14 active torsions:
REMARK  status: ('A' for Active; 'I' for Inactive)
REMARK    1  A    between atoms: C_1  and  C_2
REMARK    2  A    between atoms: C_2  and  C_3
REMARK    3  A    between atoms: C_2  and  C_4
REMARK    4  A    between atoms: C_4  and  C_5
REMARK    5  A    between atoms: C_4  and  N_8
REMARK    6  A    between atoms: C_5  and  O_7
REMARK    7  A    between atoms: C_10  and  C_11
REMARK    8  A    between atoms: C_11  and  C_12
REMARK    9  A    between atoms: C_11  and  N_13
REMARK   10  A    between atoms: C_14  and  C_16
REMARK   11  A    between atoms: C_16  and  N_17
REMARK   12  A    between atoms: C_16  and  C_18
REMARK   13  A    between atoms: C_18  and  C_19
REMARK   14  A    between atoms: C_18  and  O_20
REMARK                            x       y       z     vdW  Elec       q    Type
REMARK                         _______ _______ _______ _____ _____    ______ ____
ROOT
ATOM      1  C   UNL     1       4.119   6.990  17.722  0.00  0.00    +0.000 C 
ATOM      2  C   UNL     1       2.962   7.934  17.389  0.00  0.00    +0.000 C 
ENDROOT
BRANCH   1   5
ATOM      3  N   UNL     1       3.302   4.147  19.850  0.00  0.00    +0.000 N 
ATOM      4  C   UNL     1       4.006   4.597  18.773  0.00  0.00    +0.000 A 
ATOM      5  C   UNL     1       3.710   5.947  18.713  0.00  0.00    +0.000 A 
ATOM      6  N   UNL     1       2.898   6.259  19.771  0.00  0.00    +0.000 NA
ATOM      7  N   UNL     1       2.667   5.159  20.469  0.00  0.00    +0.000 NA
BRANCH   3   8
ATOM      8  C   UNL     1       3.185   2.802  20.380  0.00  0.00    +0.000 C 
BRANCH   8  10
ATOM      9  C   UNL     1       1.167   2.558  21.908  0.00  0.00    +0.000 C 
ATOM     10  C   UNL     1       1.725   2.291  20.503  0.00  0.00    +0.000 C 
ATOM     11  C   UNL     1       0.796   2.954  19.477  0.00  0.00    +0.000 C 
ENDBRANCH   8  10
BRANCH   8  12
ATOM     12  C   UNL     1       4.044   1.888  19.522  0.00  0.00    +0.000 C 
ATOM     13  O   UNL     1       3.659   1.354  18.490  0.00  0.00    +0.000 OA
BRANCH  12  14
ATOM     14  O   UNL     1       5.308   1.720  19.979  0.00  0.00    +0.000 OA
ATOM     15  H   UNL     1       5.792   0.950  19.616  0.00  0.00    +0.000 HD
ENDBRANCH  12  14
ENDBRANCH   8  12
ENDBRANCH   3   8
ENDBRANCH   1   5
BRANCH   1  16
ATOM     16  N   UNL     1       4.612   6.331  16.523  0.00  0.00    +0.000 N 
ATOM     17  C   UNL     1       5.959   6.295  16.220  0.00  0.00    +0.000 C 
ATOM     18  O   UNL     1       6.819   6.817  16.920  0.00  0.00    +0.000 OA
ATOM     19  H   UNL     1       3.946   5.899  15.897  0.00  0.00    +0.000 HD
BRANCH  17  20
ATOM     20  C   UNL     1       6.270   5.644  14.858  0.00  0.00    +0.000 C 
BRANCH  20  21
ATOM     21  N   UNL     1       7.745   5.542  14.722  0.00  0.00    +0.000 NA
ATOM     22  H   UNL     1       8.013   4.579  14.950  0.00  0.00    +0.000 HD
ATOM     23  H   UNL     1       8.193   6.119  15.433  0.00  0.00    +0.000 HD
ENDBRANCH  20  21
BRANCH  20  24
ATOM     24  C   UNL     1       5.592   4.256  14.736  0.00  0.00    +0.000 C 
ATOM     25  C   UNL     1       6.027   3.516  13.475  0.00  0.00    +0.000 C 
BRANCH  24  26
ATOM     26  O   UNL     1       5.925   3.411  15.849  0.00  0.00    +0.000 OA
ATOM     27  H   UNL     1       6.543   3.901  16.421  0.00  0.00    +0.000 HD
ENDBRANCH  24  26
ENDBRANCH  20  24
ENDBRANCH  17  20
ENDBRANCH   1  16
TORSDOF 10
ENDMDL
MODEL 5
REMARK VINA RESULT:      -6.6      1.934      2.321
REMARK  Name = 
REMARK  14 active torsions:
REMARK  status: ('A' for Active; 'I' for Inactive)
REMARK    1  A    between atoms: C_1  and  C_2
REMARK    2  A    between atoms: C_2  and  C_3
REMARK    3  A    between atoms: C_2  and  C_4
REMARK    4  A    between atoms: C_4  and  C_5
REMARK    5  A    between atoms: C_4  and  N_8
REMARK    6  A    between atoms: C_5  and  O_7
REMARK    7  A    between atoms: C_10  and  C_11
REMARK    8  A    between atoms: C_11  and  C_12
REMARK    9  A    between atoms: C_11  and  N_13
REMARK   10  A    between atoms: C_14  and  C_16
REMARK   11  A    between atoms: C_16  and  N_17
REMARK   12  A    between atoms: C_16  and  C_18
REMARK   13  A    between atoms: C_18  and  C_19
REMARK   14  A    between atoms: C_18  and  O_20
REMARK                            x       y       z     vdW  Elec       q    Type
REMARK                         _______ _______ _______ _____ _____    ______ ____
ROOT
ATOM      1  C   UNL     1       7.387   5.259  18.106  0.00  0.00    +0.000 C 
ATOM      2  C   UNL     1       7.764   6.700  18.458  0.00  0.00    +0.000 C 
ENDROOT
BRANCH   1   5
ATOM      3  N   UNL     1       4.166   3.973  19.224  0.00  0.00    +0.000 N 
ATOM      4  C   UNL     1       5.343   3.700  18.593  0.00  0.00    +0.000 A 
ATOM      5  C   UNL     1       6.051   4.887  18.665  0.00  0.00    +0.000 A 
ATOM      6  N   UNL     1       5.305   5.793  19.373  0.00  0.00    +0.000 NA
ATOM      7  N   UNL     1       4.164   5.222  19.724  0.00  0.00    +0.000 NA
BRANCH   3   8
ATOM      8  C   UNL     1       3.007   3.124  19.423  0.00  0.00    +0.000 C 
BRANCH   8  10
ATOM      9  C   UNL     1       0.560   3.504  20.000  0.00  0.00    +0.000 C 
ATOM     10  C   UNL     1       2.008   3.651  20.488  0.00  0.00    +0.000 C 
ATOM     11  C   UNL     1       2.149   2.911  21.824  0.00  0.00    +0.000 C 
ENDBRANCH   8  10
BRANCH   8  12
ATOM     12  C   UNL     1       2.347   2.914  18.071  0.00  0.00    +0.000 C 
ATOM     13  O   UNL     1       2.006   3.823  17.324  0.00  0.00    +0.000 OA
BRANCH  12  14
ATOM     14  O   UNL     1       2.180   1.615  17.727  0.00  0.00    +0.000 OA
ATOM     15  H   UNL     1       2.771   1.283  17.021  0.00  0.00    +0.000 HD
ENDBRANCH  12  14
ENDBRANCH   8  12
ENDBRANCH   3   8
ENDBRANCH   1   5
BRANCH   1  16
ATOM     16  N   UNL     1       7.362   5.067  16.665  0.00  0.00    +0.000 N 
ATOM     17  C   UNL     1       6.543   5.822  15.849  0.00  0.00    +0.000 C 
ATOM     18  O   UNL     1       5.783   6.686  16.274  0.00  0.00    +0.000 OA
ATOM     19  H   UNL     1       7.954   4.354  16.258  0.00  0.00    +0.000 HD
BRANCH  17  20
ATOM     20  C   UNL     1       6.582   5.398  14.368  0.00  0.00    +0.000 C 
BRANCH  20  21
ATOM     21  N   UNL     1       8.005   5.305  13.952  0.00  0.00    +0.000 NA
ATOM     22  H   UNL     1       8.052   4.680  13.141  0.00  0.00    +0.000 HD
ATOM     23  H   UNL     1       8.542   4.836  14.681  0.00  0.00    +0.000 HD
ENDBRANCH  20  21
BRANCH  20  24
ATOM     24  C   UNL     1       5.840   4.055  14.153  0.00  0.00    +0.000 C 
ATOM     25  C   UNL     1       6.153   3.440  12.792  0.00  0.00    +0.000 C 
BRANCH  24  26
ATOM     26  O   UNL     1       6.215   3.085  15.143  0.00  0.00    +0.000 OA
ATOM     27  H   UNL     1       6.268   3.540  16.002  0.00  0.00    +0.000 HD
ENDBRANCH  24  26
ENDBRANCH  20  24
ENDBRANCH  17  20
ENDBRANCH   1  16
TORSDOF 10
ENDMDL
MODEL 6
REMARK VINA RESULT:      -6.6      1.599      1.943
REMARK  Name = 
REMARK  14 active torsions:
REMARK  status: ('A' for Active; 'I' for Inactive)
REMARK    1  A    between atoms: C_1  and  C_2
REMARK    2  A    between atoms: C_2  and  C_3
REMARK    3  A    between atoms: C_2  and  C_4
REMARK    4  A    between atoms: C_4  and  C_5
REMARK    5  A    between atoms: C_4  and  N_8
REMARK    6  A    between atoms: C_5  and  O_7
REMARK    7  A    between atoms: C_10  and  C_11
REMARK    8  A    between atoms: C_11  and  C_12
REMARK    9  A    between atoms: C_11  and  N_13
REMARK   10  A    between atoms: C_14  and  C_16
REMARK   11  A    between atoms: C_16  and  N_17
REMARK   12  A    between atoms: C_16  and  C_18
REMARK   13  A    between atoms: C_18  and  C_19
REMARK   14  A    between atoms: C_18  and  O_20
REMARK                            x       y       z     vdW  Elec       q    Type
REMARK                         _______ _______ _______ _____ _____    ______ ____
ROOT
ATOM      1  C   UNL     1       7.099   6.095  17.114  0.00  0.00    +0.000 C 
ATOM      2  C   UNL     1       7.554   7.508  17.483  0.00  0.00    +0.000 C 
ENDROOT
BRANCH   1   5
ATOM      3  N   UNL     1       4.307   4.739  19.023  0.00  0.00    +0.000 N 
ATOM      4  C   UNL     1       5.620   4.609  18.679  0.00  0.00    +0.000 A 
ATOM      5  C   UNL     1       5.867   5.699  17.864  0.00  0.00    +0.000 A 
ATOM      6  N   UNL     1       4.727   6.456  17.796  0.00  0.00    +0.000 NA
ATOM      7  N   UNL     1       3.785   5.873  18.519  0.00  0.00    +0.000 NA
BRANCH   3   8
ATOM      8  C   UNL     1       3.474   3.869  19.831  0.00  0.00    +0.000 C 
BRANCH   8  10
ATOM      9  C   UNL     1       1.591   3.574  18.148  0.00  0.00    +0.000 C 
ATOM     10  C   UNL     1       1.952   4.024  19.570  0.00  0.00    +0.000 C 
ATOM     11  C   UNL     1       1.113   3.211  20.565  0.00  0.00    +0.000 C 
ENDBRANCH   8  10
BRANCH   8  12
ATOM     12  C   UNL     1       3.951   2.442  19.619  0.00  0.00    +0.000 C 
ATOM     13  O   UNL     1       3.654   1.755  18.650  0.00  0.00    +0.000 OA
BRANCH  12  14
ATOM     14  O   UNL     1       4.769   1.977  20.593  0.00  0.00    +0.000 OA
ATOM     15  H   UNL     1       4.541   2.248  21.505  0.00  0.00    +0.000 HD
ENDBRANCH  12  14
ENDBRANCH   8  12
ENDBRANCH   3   8
ENDBRANCH   1   5
BRANCH   1  16
ATOM     16  N   UNL     1       6.835   5.990  15.688  0.00  0.00    +0.000 N 
ATOM     17  C   UNL     1       6.776   4.766  15.052  0.00  0.00    +0.000 C 
ATOM     18  O   UNL     1       6.951   3.699  15.630  0.00  0.00    +0.000 OA
ATOM     19  H   UNL     1       6.702   6.839  15.155  0.00  0.00    +0.000 HD
BRANCH  17  20
ATOM     20  C   UNL     1       6.591   4.870  13.525  0.00  0.00    +0.000 C 
BRANCH  20  21
ATOM     21  N   UNL     1       7.857   5.380  12.940  0.00  0.00    +0.000 NA
ATOM     22  H   UNL     1       7.770   5.333  11.920  0.00  0.00    +0.000 HD
ATOM     23  H   UNL     1       8.619   4.745  13.173  0.00  0.00    +0.000 HD
ENDBRANCH  20  21
BRANCH  20  24
ATOM     24  C   UNL     1       6.196   3.501  12.916  0.00  0.00    +0.000 C 
ATOM     25  C   UNL     1       4.878   3.573  12.153  0.00  0.00    +0.000 C 
BRANCH  24  26
ATOM     26  O   UNL     1       7.188   3.035  11.988  0.00  0.00    +0.000 OA
ATOM     27  H   UNL     1       7.937   3.659  12.013  0.00  0.00    +0.000 HD
ENDBRANCH  24  26
ENDBRANCH  20  24
ENDBRANCH  17  20
ENDBRANCH   1  16
TORSDOF 10
ENDMDL
MODEL 7
REMARK VINA RESULT:      -6.5      1.912      6.627
REMARK  Name = 
REMARK  14 active torsions:
REMARK  status: ('A' for Active; 'I' for Inactive)
REMARK    1  A    between atoms: C_1  and  C_2
REMARK    2  A    between atoms: C_2  and  C_3
REMARK    3  A    between atoms: C_2  and  C_4
REMARK    4  A    between atoms: C_4  and  C_5
REMARK    5  A    between atoms: C_4  and  N_8
REMARK    6  A    between atoms: C_5  and  O_7
REMARK    7  A    between atoms: C_10  and  C_11
REMARK    8  A    between atoms: C_11  and  C_12
REMARK    9  A    between atoms: C_11  and  N_13
REMARK   10  A    between atoms: C_14  and  C_16
REMARK   11  A    between atoms: C_16  and  N_17
REMARK   12  A    between atoms: C_16  and  C_18
REMARK   13  A    between atoms: C_18  and  C_19
REMARK   14  A    between atoms: C_18  and  O_20
REMARK                            x       y       z     vdW  Elec       q    Type
REMARK                         _______ _______ _______ _____ _____    ______ ____
ROOT
ATOM      1  C   UNL     1       6.149   5.215  18.218  0.00  0.00    +0.000 C 
ATOM      2  C   UNL     1       7.500   5.454  18.896  0.00  0.00    +0.000 C 
ENDROOT
BRANCH   1   5
ATOM      3  N   UNL     1       6.755   4.855  14.643  0.00  0.00    +0.000 N 
ATOM      4  C   UNL     1       6.919   4.317  15.884  0.00  0.00    +0.000 A 
ATOM      5  C   UNL     1       6.275   5.205  16.728  0.00  0.00    +0.000 A 
ATOM      6  N   UNL     1       5.713   6.195  15.965  0.00  0.00    +0.000 NA
ATOM      7  N   UNL     1       5.996   5.965  14.694  0.00  0.00    +0.000 NA
BRANCH   3   8
ATOM      8  C   UNL     1       7.251   4.389  13.362  0.00  0.00    +0.000 C 
BRANCH   8  10
ATOM      9  C   UNL     1       6.676   2.612  11.637  0.00  0.00    +0.000 C 
ATOM     10  C   UNL     1       6.153   3.822  12.423  0.00  0.00    +0.000 C 
ATOM     11  C   UNL     1       4.900   3.393  13.198  0.00  0.00    +0.000 C 
ENDBRANCH   8  10
BRANCH   8  12
ATOM     12  C   UNL     1       8.022   5.530  12.720  0.00  0.00    +0.000 C 
ATOM     13  O   UNL     1       7.786   5.977  11.605  0.00  0.00    +0.000 OA
BRANCH  12  14
ATOM     14  O   UNL     1       9.001   6.049  13.499  0.00  0.00    +0.000 OA
ATOM     15  H   UNL     1       9.905   6.016  13.123  0.00  0.00    +0.000 HD
ENDBRANCH  12  14
ENDBRANCH   8  12
ENDBRANCH   3   8
ENDBRANCH   1   5
BRANCH   1  16
ATOM     16  N   UNL     1       5.569   3.953  18.649  0.00  0.00    +0.000 N 
ATOM     17  C   UNL     1       4.402   3.908  19.385  0.00  0.00    +0.000 C 
ATOM     18  O   UNL     1       3.787   4.910  19.733  0.00  0.00    +0.000 OA
ATOM     19  H   UNL     1       6.043   3.092  18.408  0.00  0.00    +0.000 HD
BRANCH  17  20
ATOM     20  C   UNL     1       4.007   2.487  19.833  0.00  0.00    +0.000 C 
BRANCH  20  21
ATOM     21  N   UNL     1       3.069   2.608  20.978  0.00  0.00    +0.000 NA
ATOM     22  H   UNL     1       3.563   2.292  21.819  0.00  0.00    +0.000 HD
ATOM     23  H   UNL     1       2.299   1.952  20.858  0.00  0.00    +0.000 HD
ENDBRANCH  20  21
BRANCH  20  24
ATOM     24  C   UNL     1       3.375   1.689  18.665  0.00  0.00    +0.000 C 
ATOM     25  C   UNL     1       2.099   2.346  18.149  0.00  0.00    +0.000 C 
BRANCH  24  26
ATOM     26  O   UNL     1       4.274   1.595  17.548  0.00  0.00    +0.000 OA
ATOM     27  H   UNL     1       3.943   2.186  16.848  0.00  0.00    +0.000 HD
ENDBRANCH  24  26
ENDBRANCH  20  24
ENDBRANCH  17  20
ENDBRANCH   1  16
TORSDOF 10
ENDMDL
MODEL 8
REMARK VINA RESULT:      -6.5      1.632      2.070
REMARK  Name = 
REMARK  14 active torsions:
REMARK  status: ('A' for Active; 'I' for Inactive)
REMARK    1  A    between atoms: C_1  and  C_2
REMARK    2  A    between atoms: C_2  and  C_3
REMARK    3  A    between atoms: C_2  and  C_4
REMARK    4  A    between atoms: C_4  and  C_5
REMARK    5  A    between atoms: C_4  and  N_8
REMARK    6  A    between atoms: C_5  and  O_7
REMARK    7  A    between atoms: C_10  and  C_11
REMARK    8  A    between atoms: C_11  and  C_12
REMARK    9  A    between atoms: C_11  and  N_13
REMARK   10  A    between atoms: C_14  and  C_16
REMARK   11  A    between atoms: C_16  and  N_17
REMARK   12  A    between atoms: C_16  and  C_18
REMARK   13  A    between atoms: C_18  and  C_19
REMARK   14  A    between atoms: C_18  and  O_20
REMARK                            x       y       z     vdW  Elec       q    Type
REMARK                         _______ _______ _______ _____ _____    ______ ____
ROOT
ATOM      1  C   UNL     1       6.673   5.792  17.021  0.00  0.00    +0.000 C 
ATOM      2  C   UNL     1       7.075   7.207  17.443  0.00  0.00    +0.000 C 
ENDROOT
BRANCH   1   5
ATOM      3  N   UNL     1       3.838   4.278  18.737  0.00  0.00    +0.000 N 
ATOM      4  C   UNL     1       5.134   4.137  18.339  0.00  0.00    +0.000 A 
ATOM      5  C   UNL     1       5.432   5.340  17.723  0.00  0.00    +0.000 A 
ATOM      6  N   UNL     1       4.339   6.160  17.823  0.00  0.00    +0.000 NA
ATOM      7  N   UNL     1       3.377   5.511  18.458  0.00  0.00    +0.000 NA
BRANCH   3   8
ATOM      8  C   UNL     1       2.967   3.326  19.402  0.00  0.00    +0.000 C 
BRANCH   8  10
ATOM      9  C   UNL     1       0.866   4.380  20.371  0.00  0.00    +0.000 C 
ATOM     10  C   UNL     1       2.283   3.876  20.681  0.00  0.00    +0.000 C 
ATOM     11  C   UNL     1       2.190   2.814  21.784  0.00  0.00    +0.000 C 
ENDBRANCH   8  10
BRANCH   8  12
ATOM     12  C   UNL     1       1.960   2.827  18.380  0.00  0.00    +0.000 C 
ATOM     13  O   UNL     1       1.091   1.998  18.620  0.00  0.00    +0.000 OA
BRANCH  12  14
ATOM     14  O   UNL     1       2.077   3.396  17.157  0.00  0.00    +0.000 OA
ATOM     15  H   UNL     1       2.448   4.302  17.144  0.00  0.00    +0.000 HD
ENDBRANCH  12  14
ENDBRANCH   8  12
ENDBRANCH   3   8
ENDBRANCH   1   5
BRANCH   1  16
ATOM     16  N   UNL     1       6.451   5.723  15.585  0.00  0.00    +0.000 N 
ATOM     17  C   UNL     1       6.380   4.513  14.923  0.00  0.00    +0.000 C 
ATOM     18  O   UNL     1       6.507   3.431  15.484  0.00  0.00    +0.000 OA
ATOM     19  H   UNL     1       6.358   6.585  15.065  0.00  0.00    +0.000 HD
BRANCH  17  20
ATOM     20  C   UNL     1       6.246   4.652  13.393  0.00  0.00    +0.000 C 
BRANCH  20  21
ATOM     21  N   UNL     1       7.536   5.161  12.862  0.00  0.00    +0.000 NA
ATOM     22  H   UNL     1       7.944   5.776  13.572  0.00  0.00    +0.000 HD
ATOM     23  H   UNL     1       7.360   5.761  12.057  0.00  0.00    +0.000 HD
ENDBRANCH  20  21
BRANCH  20  24
ATOM     24  C   UNL     1       5.858   3.300  12.743  0.00  0.00    +0.000 C 
ATOM     25  C   UNL     1       4.705   3.451  11.757  0.00  0.00    +0.000 C 
BRANCH  24  26
ATOM     26  O   UNL     1       6.958   2.736  12.011  0.00  0.00    +0.000 OA
ATOM     27  H   UNL     1       7.014   3.197  11.154  0.00  0.00    +0.000 HD
ENDBRANCH  24  26
ENDBRANCH  20  24
ENDBRANCH  17  20
ENDBRANCH   1  16
TORSDOF 10
ENDMDL
MODEL 9
REMARK VINA RESULT:      -6.5      1.903      2.313
REMARK  Name = 
REMARK  14 active torsions:
REMARK  status: ('A' for Active; 'I' for Inactive)
REMARK    1  A    between atoms: C_1  and  C_2
REMARK    2  A    between atoms: C_2  and  C_3
REMARK    3  A    between atoms: C_2  and  C_4
REMARK    4  A    between atoms: C_4  and  C_5
REMARK    5  A    between atoms: C_4  and  N_8
REMARK    6  A    between atoms: C_5  and  O_7
REMARK    7  A    between atoms: C_10  and  C_11
REMARK    8  A    between atoms: C_11  and  C_12
REMARK    9  A    between atoms: C_11  and  N_13
REMARK   10  A    between atoms: C_14  and  C_16
REMARK   11  A    between atoms: C_16  and  N_17
REMARK   12  A    between atoms: C_16  and  C_18
REMARK   13  A    between atoms: C_18  and  C_19
REMARK   14  A    between atoms: C_18  and  O_20
REMARK                            x       y       z     vdW  Elec       q    Type
REMARK                         _______ _______ _______ _____ _____    ______ ____
ROOT
ATOM      1  C   UNL     1       6.812   6.396  17.359  0.00  0.00    +0.000 C 
ATOM      2  C   UNL     1       6.881   7.867  17.775  0.00  0.00    +0.000 C 
ENDROOT
BRANCH   1   5
ATOM      3  N   UNL     1       4.353   4.520  19.286  0.00  0.00    +0.000 N 
ATOM      4  C   UNL     1       5.620   5.022  19.239  0.00  0.00    +0.000 A 
ATOM      5  C   UNL     1       5.677   5.688  18.027  0.00  0.00    +0.000 A 
ATOM      6  N   UNL     1       4.446   5.607  17.430  0.00  0.00    +0.000 NA
ATOM      7  N   UNL     1       3.640   4.907  18.212  0.00  0.00    +0.000 NA
BRANCH   3   8
ATOM      8  C   UNL     1       3.724   3.694  20.299  0.00  0.00    +0.000 C 
BRANCH   8  10
ATOM      9  C   UNL     1       1.595   2.624  21.186  0.00  0.00    +0.000 C 
ATOM     10  C   UNL     1       2.173   3.683  20.237  0.00  0.00    +0.000 C 
ATOM     11  C   UNL     1       1.574   5.046  20.607  0.00  0.00    +0.000 C 
ENDBRANCH   8  10
BRANCH   8  12
ATOM     12  C   UNL     1       4.313   2.298  20.192  0.00  0.00    +0.000 C 
ATOM     13  O   UNL     1       4.919   1.737  21.096  0.00  0.00    +0.000 OA
BRANCH  12  14
ATOM     14  O   UNL     1       4.096   1.691  19.001  0.00  0.00    +0.000 OA
ATOM     15  H   UNL     1       4.797   1.813  18.328  0.00  0.00    +0.000 HD
ENDBRANCH  12  14
ENDBRANCH   8  12
ENDBRANCH   3   8
ENDBRANCH   1   5
BRANCH   1  16
ATOM     16  N   UNL     1       6.659   6.272  15.918  0.00  0.00    +0.000 N 
ATOM     17  C   UNL     1       7.177   5.194  15.226  0.00  0.00    +0.000 C 
ATOM     18  O   UNL     1       7.801   4.287  15.765  0.00  0.00    +0.000 OA
ATOM     19  H   UNL     1       6.169   7.001  15.416  0.00  0.00    +0.000 HD
BRANCH  17  20
ATOM     20  C   UNL     1       7.002   5.297  13.698  0.00  0.00    +0.000 C 
BRANCH  20  21
ATOM     21  N   UNL     1       8.347   5.457  13.090  0.00  0.00    +0.000 NA
ATOM     22  H   UNL     1       8.962   5.871  13.798  0.00  0.00    +0.000 HD
ATOM     23  H   UNL     1       8.302   6.145  12.340  0.00  0.00    +0.000 HD
ENDBRANCH  20  21
BRANCH  20  24
ATOM     24  C   UNL     1       6.269   4.053  13.136  0.00  0.00    +0.000 C 
ATOM     25  C   UNL     1       7.006   3.445  11.947  0.00  0.00    +0.000 C 
BRANCH  24  26
ATOM     26  O   UNL     1       6.156   3.020  14.127  0.00  0.00    +0.000 OA
ATOM     27  H   UNL     1       5.290   3.117  14.562  0.00  0.00    +0.000 HD
ENDBRANCH  24  26
ENDBRANCH  20  24
ENDBRANCH  17  20
ENDBRANCH   1  16
TORSDOF 10
ENDMDL
