MODEL 1
REMARK VINA RESULT:      -8.7      0.000      0.000
REMARK  Name = 
REMARK  2 active torsions:
REMARK  status: ('A' for Active; 'I' for Inactive)
REMARK    1  A    between atoms: C_1  and  C_2
REMARK    2  A    between atoms: C_5  and  N_6
REMARK                            x       y       z     vdW  Elec       q    Type
REMARK                         _______ _______ _______ _____ _____    ______ ____
ROOT
ATOM      1  N   UNL     1       2.911   6.818  18.741  0.00  0.00    +0.000 N 
ATOM      2  C   UNL     1       2.560   6.353  20.012  0.00  0.00    +0.000 A 
ATOM      3  O   UNL     1       2.882   5.263  20.483  0.00  0.00    +0.000 OA
ATOM      4  N   UNL     1       1.829   7.211  20.791  0.00  0.00    +0.000 N 
ATOM      5  C   UNL     1       1.310   8.415  20.349  0.00  0.00    +0.000 A 
ATOM      6  N   UNL     1       0.528   9.106  21.199  0.00  0.00    +0.000 NA
ATOM      7  C   UNL     1      -0.060  10.216  20.698  0.00  0.00    +0.000 A 
ATOM      8  N   UNL     1      -0.874  10.998  21.557  0.00  0.00    +0.000 N 
ATOM      9  C   UNL     1      -1.096  10.815  22.903  0.00  0.00    +0.000 A 
ATOM     10  C   UNL     1      -1.912  11.854  23.285  0.00  0.00    +0.000 A 
ATOM     11  N   UNL     1      -2.220  12.651  22.217  0.00  0.00    +0.000 NA
ATOM     12  C   UNL     1      -1.588  12.115  21.195  0.00  0.00    +0.000 A 
ATOM     13  N   UNL     1       0.084  10.647  19.425  0.00  0.00    +0.000 NA
ATOM     14  C   UNL     1       0.913   9.937  18.632  0.00  0.00    +0.000 A 
ATOM     15  C   UNL     1       1.566   8.811  19.065  0.00  0.00    +0.000 A 
ATOM     16  C   UNL     1       2.468   8.039  18.221  0.00  0.00    +0.000 A 
ATOM     17  O   UNL     1       2.737   8.496  17.114  0.00  0.00    +0.000 OA
ATOM     18  H   UNL     1       1.599   6.907  21.728  0.00  0.00    +0.000 HD
ENDROOT
BRANCH   1  23
ATOM     19  C   UNL     1       6.263   3.714  15.267  0.00  0.00    +0.000 C 
ATOM     20  C   UNL     1       5.381   4.494  16.193  0.00  0.00    +0.000 A 
ATOM     21  C   UNL     1       4.108   4.035  16.556  0.00  0.00    +0.000 A 
ATOM     22  C   UNL     1       3.308   4.781  17.428  0.00  0.00    +0.000 A 
ATOM     23  C   UNL     1       3.752   6.016  17.917  0.00  0.00    +0.000 A 
ATOM     24  C   UNL     1       5.020   6.480  17.551  0.00  0.00    +0.000 A 
ATOM     25  C   UNL     1       5.824   5.711  16.715  0.00  0.00    +0.000 A 
ATOM     26  F   UNL     1       7.052   6.157  16.410  0.00  0.00    +0.000 F 
ENDBRANCH   1  23
TORSDOF 1
ENDMDL
MODEL 2
REMARK VINA RESULT:      -8.3      1.139      1.486
REMARK  Name = 
REMARK  2 active torsions:
REMARK  status: ('A' for Active; 'I' for Inactive)
REMARK    1  A    between atoms: C_1  and  C_2
REMARK    2  A    between atoms: C_5  and  N_6
REMARK                            x       y       z     vdW  Elec       q    Type
REMARK                         _______ _______ _______ _____ _____    ______ ____
ROOT
ATOM      1  N   UNL     1       2.513   7.257  18.839  0.00  0.00    +0.000 N 
ATOM      2  C   UNL     1       2.191   6.832  20.131  0.00  0.00    +0.000 A 
ATOM      3  O   UNL     1       2.520   5.755  20.626  0.00  0.00    +0.000 OA
ATOM      4  N   UNL     1       1.484   7.717  20.903  0.00  0.00    +0.000 N 
ATOM      5  C   UNL     1       0.960   8.910  20.437  0.00  0.00    +0.000 A 
ATOM      6  N   UNL     1       0.203   9.631  21.286  0.00  0.00    +0.000 NA
ATOM      7  C   UNL     1      -0.392  10.729  20.767  0.00  0.00    +0.000 A 
ATOM      8  N   UNL     1      -1.180  11.540  21.622  0.00  0.00    +0.000 N 
ATOM      9  C   UNL     1      -1.369  11.398  22.978  0.00  0.00    +0.000 A 
ATOM     10  C   UNL     1      -2.171  12.452  23.349  0.00  0.00    +0.000 A 
ATOM     11  N   UNL     1      -2.502  13.219  22.266  0.00  0.00    +0.000 NA
ATOM     12  C   UNL     1      -1.898  12.649  21.245  0.00  0.00    +0.000 A 
ATOM     13  N   UNL     1      -0.278  11.120  19.478  0.00  0.00    +0.000 NA
ATOM     14  C   UNL     1       0.527  10.383  18.686  0.00  0.00    +0.000 A 
ATOM     15  C   UNL     1       1.186   9.267  19.136  0.00  0.00    +0.000 A 
ATOM     16  C   UNL     1       2.062   8.465  18.293  0.00  0.00    +0.000 A 
ATOM     17  O   UNL     1       2.305   8.887  17.167  0.00  0.00    +0.000 OA
ATOM     18  H   UNL     1       1.276   7.442  21.853  0.00  0.00    +0.000 HD
ENDROOT
BRANCH   1  23
ATOM     19  C   UNL     1       5.858   3.811  15.697  0.00  0.00    +0.000 C 
ATOM     20  C   UNL     1       4.989   4.737  16.492  0.00  0.00    +0.000 A 
ATOM     21  C   UNL     1       5.361   6.066  16.735  0.00  0.00    +0.000 A 
ATOM     22  C   UNL     1       4.525   6.910  17.475  0.00  0.00    +0.000 A 
ATOM     23  C   UNL     1       3.329   6.426  18.018  0.00  0.00    +0.000 A 
ATOM     24  C   UNL     1       2.959   5.098  17.783  0.00  0.00    +0.000 A 
ATOM     25  C   UNL     1       3.777   4.278  17.011  0.00  0.00    +0.000 A 
ATOM     26  F   UNL     1       3.382   3.020  16.765  0.00  0.00    +0.000 F 
ENDBRANCH   1  23
TORSDOF 1
ENDMDL
MODEL 3
REMARK VINA RESULT:      -8.0      3.481      7.658
REMARK  Name = 
REMARK  2 active torsions:
REMARK  status: ('A' for Active; 'I' for Inactive)
REMARK    1  A    between atoms: C_1  and  C_2
REMARK    2  A    between atoms: C_5  and  N_6
REMARK                            x       y       z     vdW  Elec       q    Type
REMARK                         _______ _______ _______ _____ _____    ______ ____
ROOT
ATOM      1  N   UNL     1       1.090  10.586  19.708  0.00  0.00    +0.000 N 
ATOM      2  C   UNL     1       0.849  10.160  21.018  0.00  0.00    +0.000 A 
ATOM      3  O   UNL     1       0.464  10.879  21.938  0.00  0.00    +0.000 OA
ATOM      4  N   UNL     1       1.028   8.823  21.264  0.00  0.00    +0.000 N 
ATOM      5  C   UNL     1       1.560   7.928  20.353  0.00  0.00    +0.000 A 
ATOM      6  N   UNL     1       1.767   6.665  20.770  0.00  0.00    +0.000 NA
ATOM      7  C   UNL     1       2.397   5.847  19.896  0.00  0.00    +0.000 A 
ATOM      8  N   UNL     1       2.620   4.497  20.273  0.00  0.00    +0.000 N 
ATOM      9  C   UNL     1       2.200   3.864  21.420  0.00  0.00    +0.000 A 
ATOM     10  C   UNL     1       2.621   2.560  21.294  0.00  0.00    +0.000 A 
ATOM     11  N   UNL     1       3.307   2.379  20.125  0.00  0.00    +0.000 NA
ATOM     12  C   UNL     1       3.293   3.555  19.534  0.00  0.00    +0.000 A 
ATOM     13  N   UNL     1       2.824   6.223  18.671  0.00  0.00    +0.000 NA
ATOM     14  C   UNL     1       2.551   7.488  18.292  0.00  0.00    +0.000 A 
ATOM     15  C   UNL     1       1.897   8.378  19.106  0.00  0.00    +0.000 A 
ATOM     16  C   UNL     1       1.590   9.745  18.707  0.00  0.00    +0.000 A 
ATOM     17  O   UNL     1       1.827  10.063  17.546  0.00  0.00    +0.000 OA
ATOM     18  H   UNL     1       0.821   8.490  22.196  0.00  0.00    +0.000 HD
ENDROOT
BRANCH   1  23
ATOM     19  C   UNL     1       0.040  16.098  18.507  0.00  0.00    +0.000 C 
ATOM     20  C   UNL     1       0.298  14.650  18.789  0.00  0.00    +0.000 A 
ATOM     21  C   UNL     1      -0.706  13.683  18.642  0.00  0.00    +0.000 A 
ATOM     22  C   UNL     1      -0.434  12.336  18.906  0.00  0.00    +0.000 A 
ATOM     23  C   UNL     1       0.830  11.943  19.361  0.00  0.00    +0.000 A 
ATOM     24  C   UNL     1       1.831  12.907  19.516  0.00  0.00    +0.000 A 
ATOM     25  C   UNL     1       1.563  14.238  19.211  0.00  0.00    +0.000 A 
ATOM     26  F   UNL     1       2.550  15.139  19.329  0.00  0.00    +0.000 F 
ENDBRANCH   1  23
TORSDOF 1
ENDMDL
MODEL 4
REMARK VINA RESULT:      -7.9      3.608      8.699
REMARK  Name = 
REMARK  2 active torsions:
REMARK  status: ('A' for Active; 'I' for Inactive)
REMARK    1  A    between atoms: C_1  and  C_2
REMARK    2  A    between atoms: C_5  and  N_6
REMARK                            x       y       z     vdW  Elec       q    Type
REMARK                         _______ _______ _______ _____ _____    ______ ____
ROOT
ATOM      1  N   UNL     1       0.116  10.508  21.658  0.00  0.00    +0.000 N 
ATOM      2  C   UNL     1       0.626   9.576  22.567  0.00  0.00    +0.000 A 
ATOM      3  O   UNL     1       0.531   9.654  23.790  0.00  0.00    +0.000 OA
ATOM      4  N   UNL     1       1.244   8.479  22.027  0.00  0.00    +0.000 N 
ATOM      5  C   UNL     1       1.514   8.320  20.679  0.00  0.00    +0.000 A 
ATOM      6  N   UNL     1       2.216   7.233  20.308  0.00  0.00    +0.000 NA
ATOM      7  C   UNL     1       2.566   7.168  19.003  0.00  0.00    +0.000 A 
ATOM      8  N   UNL     1       3.285   6.032  18.551  0.00  0.00    +0.000 N 
ATOM      9  C   UNL     1       3.623   4.909  19.271  0.00  0.00    +0.000 A 
ATOM     10  C   UNL     1       4.268   4.082  18.380  0.00  0.00    +0.000 A 
ATOM     11  N   UNL     1       4.361   4.670  17.148  0.00  0.00    +0.000 NA
ATOM     12  C   UNL     1       3.766   5.837  17.279  0.00  0.00    +0.000 A 
ATOM     13  N   UNL     1       2.266   8.114  18.086  0.00  0.00    +0.000 NA
ATOM     14  C   UNL     1       1.525   9.159  18.507  0.00  0.00    +0.000 A 
ATOM     15  C   UNL     1       1.109   9.293  19.807  0.00  0.00    +0.000 A 
ATOM     16  C   UNL     1       0.304  10.413  20.273  0.00  0.00    +0.000 A 
ATOM     17  O   UNL     1      -0.113  11.201  19.430  0.00  0.00    +0.000 OA
ATOM     18  H   UNL     1       1.585   7.775  22.669  0.00  0.00    +0.000 HD
ENDROOT
BRANCH   1  23
ATOM     19  C   UNL     1      -2.989  14.977  23.480  0.00  0.00    +0.000 C 
ATOM     20  C   UNL     1      -2.149  13.825  23.019  0.00  0.00    +0.000 A 
ATOM     21  C   UNL     1      -0.908  14.023  22.401  0.00  0.00    +0.000 A 
ATOM     22  C   UNL     1      -0.141  12.928  21.987  0.00  0.00    +0.000 A 
ATOM     23  C   UNL     1      -0.623  11.624  22.148  0.00  0.00    +0.000 A 
ATOM     24  C   UNL     1      -1.865  11.424  22.759  0.00  0.00    +0.000 A 
ATOM     25  C   UNL     1      -2.601  12.518  23.204  0.00  0.00    +0.000 A 
ATOM     26  F   UNL     1      -3.772  12.300  23.823  0.00  0.00    +0.000 F 
ENDBRANCH   1  23
TORSDOF 1
ENDMDL
MODEL 5
REMARK VINA RESULT:      -7.7      2.214      3.048
REMARK  Name = 
REMARK  2 active torsions:
REMARK  status: ('A' for Active; 'I' for Inactive)
REMARK    1  A    between atoms: C_1  and  C_2
REMARK    2  A    between atoms: C_5  and  N_6
REMARK                            x       y       z     vdW  Elec       q    Type
REMARK                         _______ _______ _______ _____ _____    ______ ____
ROOT
ATOM      1  N   UNL     1       2.197   7.304  18.935  0.00  0.00    +0.000 N 
ATOM      2  C   UNL     1       2.460   8.233  17.924  0.00  0.00    +0.000 A 
ATOM      3  O   UNL     1       3.027   7.985  16.862  0.00  0.00    +0.000 OA
ATOM      4  N   UNL     1       2.006   9.508  18.141  0.00  0.00    +0.000 N 
ATOM      5  C   UNL     1       1.452   9.947  19.330  0.00  0.00    +0.000 A 
ATOM      6  N   UNL     1       1.141  11.253  19.428  0.00  0.00    +0.000 NA
ATOM      7  C   UNL     1       0.714  11.673  20.641  0.00  0.00    +0.000 A 
ATOM      8  N   UNL     1       0.349  13.035  20.795  0.00  0.00    +0.000 N 
ATOM      9  C   UNL     1       0.297  14.008  19.824  0.00  0.00    +0.000 A 
ATOM     10  C   UNL     1      -0.156  15.139  20.461  0.00  0.00    +0.000 A 
ATOM     11  N   UNL     1      -0.358  14.902  21.793  0.00  0.00    +0.000 NA
ATOM     12  C   UNL     1      -0.046  13.636  21.966  0.00  0.00    +0.000 A 
ATOM     13  N   UNL     1       0.597  10.876  21.726  0.00  0.00    +0.000 NA
ATOM     14  C   UNL     1       0.882   9.569  21.556  0.00  0.00    +0.000 A 
ATOM     15  C   UNL     1       1.300   9.054  20.356  0.00  0.00    +0.000 A 
ATOM     16  C   UNL     1       1.605   7.644  20.157  0.00  0.00    +0.000 A 
ATOM     17  O   UNL     1       1.358   6.875  21.081  0.00  0.00    +0.000 OA
ATOM     18  H   UNL     1       2.152  10.185  17.403  0.00  0.00    +0.000 HD
ENDROOT
BRANCH   1  23
ATOM     19  C   UNL     1       3.775   1.868  17.983  0.00  0.00    +0.000 C 
ATOM     20  C   UNL     1       3.330   3.275  18.241  0.00  0.00    +0.000 A 
ATOM     21  C   UNL     1       2.105   3.758  17.763  0.00  0.00    +0.000 A 
ATOM     22  C   UNL     1       1.712   5.075  18.025  0.00  0.00    +0.000 A 
ATOM     23  C   UNL     1       2.556   5.939  18.733  0.00  0.00    +0.000 A 
ATOM     24  C   UNL     1       3.783   5.462  19.206  0.00  0.00    +0.000 A 
ATOM     25  C   UNL     1       4.146   4.139  18.974  0.00  0.00    +0.000 A 
ATOM     26  F   UNL     1       5.309   3.692  19.472  0.00  0.00    +0.000 F 
ENDBRANCH   1  23
TORSDOF 1
ENDMDL
MODEL 6
REMARK VINA RESULT:      -7.7      3.453      8.123
REMARK  Name = 
REMARK  2 active torsions:
REMARK  status: ('A' for Active; 'I' for Inactive)
REMARK    1  A    between atoms: C_1  and  C_2
REMARK    2  A    between atoms: C_5  and  N_6
REMARK                            x       y       z     vdW  Elec       q    Type
REMARK                         _______ _______ _______ _____ _____    ______ ____
ROOT
ATOM      1  N   UNL     1       0.968  10.144  20.315  0.00  0.00    +0.000 N 
ATOM      2  C   UNL     1       1.089   9.434  21.514  0.00  0.00    +0.000 A 
ATOM      3  O   UNL     1       0.860   9.890  22.633  0.00  0.00    +0.000 OA
ATOM      4  N   UNL     1       1.457   8.119  21.405  0.00  0.00    +0.000 N 
ATOM      5  C   UNL     1       1.848   7.514  20.224  0.00  0.00    +0.000 A 
ATOM      6  N   UNL     1       2.277   6.239  20.290  0.00  0.00    +0.000 NA
ATOM      7  C   UNL     1       2.764   5.716  19.141  0.00  0.00    +0.000 A 
ATOM      8  N   UNL     1       3.206   4.369  19.146  0.00  0.00    +0.000 N 
ATOM      9  C   UNL     1       3.137   3.463  20.180  0.00  0.00    +0.000 A 
ATOM     10  C   UNL     1       3.648   2.290  19.675  0.00  0.00    +0.000 A 
ATOM     11  N   UNL     1       4.054   2.451  18.379  0.00  0.00    +0.000 NA
ATOM     12  C   UNL     1       3.780   3.705  18.088  0.00  0.00    +0.000 A 
ATOM     13  N   UNL     1       2.848   6.389  17.972  0.00  0.00    +0.000 NA
ATOM     14  C   UNL     1       2.364   7.648  17.957  0.00  0.00    +0.000 A 
ATOM     15  C   UNL     1       1.833   8.249  19.071  0.00  0.00    +0.000 A 
ATOM     16  C   UNL     1       1.302   9.605  19.067  0.00  0.00    +0.000 A 
ATOM     17  O   UNL     1       1.224  10.179  17.985  0.00  0.00    +0.000 OA
ATOM     18  H   UNL     1       1.512   7.580  22.260  0.00  0.00    +0.000 HD
ENDROOT
BRANCH   1  23
ATOM     19  C   UNL     1      -0.968  15.546  20.250  0.00  0.00    +0.000 C 
ATOM     20  C   UNL     1      -0.442  14.144  20.296  0.00  0.00    +0.000 A 
ATOM     21  C   UNL     1       0.927  13.877  20.437  0.00  0.00    +0.000 A 
ATOM     22  C   UNL     1       1.389  12.557  20.484  0.00  0.00    +0.000 A 
ATOM     23  C   UNL     1       0.496  11.488  20.348  0.00  0.00    +0.000 A 
ATOM     24  C   UNL     1      -0.870  11.751  20.200  0.00  0.00    +0.000 A 
ATOM     25  C   UNL     1      -1.324  13.067  20.196  0.00  0.00    +0.000 A 
ATOM     26  F   UNL     1      -2.642  13.294  20.093  0.00  0.00    +0.000 F 
ENDBRANCH   1  23
TORSDOF 1
ENDMDL
MODEL 7
REMARK VINA RESULT:      -7.6      3.365      8.447
REMARK  Name = 
REMARK  2 active torsions:
REMARK  status: ('A' for Active; 'I' for Inactive)
REMARK    1  A    between atoms: C_1  and  C_2
REMARK    2  A    between atoms: C_5  and  N_6
REMARK                            x       y       z     vdW  Elec       q    Type
REMARK                         _______ _______ _______ _____ _____    ______ ____
ROOT
ATOM      1  N   UNL     1       0.247  10.724  21.045  0.00  0.00    +0.000 N 
ATOM      2  C   UNL     1       0.558   9.822  22.067  0.00  0.00    +0.000 A 
ATOM      3  O   UNL     1       0.345  10.005  23.264  0.00  0.00    +0.000 OA
ATOM      4  N   UNL     1       1.112   8.631  21.675  0.00  0.00    +0.000 N 
ATOM      5  C   UNL     1       1.503   8.341  20.380  0.00  0.00    +0.000 A 
ATOM      6  N   UNL     1       2.123   7.166  20.165  0.00  0.00    +0.000 NA
ATOM      7  C   UNL     1       2.598   6.964  18.915  0.00  0.00    +0.000 A 
ATOM      8  N   UNL     1       3.238   5.732  18.625  0.00  0.00    +0.000 N 
ATOM      9  C   UNL     1       3.379   4.642  19.453  0.00  0.00    +0.000 A 
ATOM     10  C   UNL     1       4.024   3.689  18.698  0.00  0.00    +0.000 A 
ATOM     11  N   UNL     1       4.306   4.165  17.447  0.00  0.00    +0.000 NA
ATOM     12  C   UNL     1       3.827   5.391  17.432  0.00  0.00    +0.000 A 
ATOM     13  N   UNL     1       2.497   7.859  17.908  0.00  0.00    +0.000 NA
ATOM     14  C   UNL     1       1.829   9.000  18.171  0.00  0.00    +0.000 A 
ATOM     15  C   UNL     1       1.295   9.277  19.404  0.00  0.00    +0.000 A 
ATOM     16  C   UNL     1       0.568  10.503  19.700  0.00  0.00    +0.000 A 
ATOM     17  O   UNL     1       0.326  11.258  18.764  0.00  0.00    +0.000 OA
ATOM     18  H   UNL     1       1.308   7.950  22.398  0.00  0.00    +0.000 HD
ENDROOT
BRANCH   1  23
ATOM     19  C   UNL     1      -2.374  15.602  22.555  0.00  0.00    +0.000 C 
ATOM     20  C   UNL     1      -1.714  14.324  22.134  0.00  0.00    +0.000 A 
ATOM     21  C   UNL     1      -2.457  13.168  21.866  0.00  0.00    +0.000 A 
ATOM     22  C   UNL     1      -1.815  11.990  21.467  0.00  0.00    +0.000 A 
ATOM     23  C   UNL     1      -0.419  11.941  21.372  0.00  0.00    +0.000 A 
ATOM     24  C   UNL     1       0.327  13.093  21.647  0.00  0.00    +0.000 A 
ATOM     25  C   UNL     1      -0.325  14.270  22.003  0.00  0.00    +0.000 A 
ATOM     26  F   UNL     1       0.407  15.372  22.222  0.00  0.00    +0.000 F 
ENDBRANCH   1  23
TORSDOF 1
ENDMDL
MODEL 8
REMARK VINA RESULT:      -7.6      3.182      8.120
REMARK  Name = 
REMARK  2 active torsions:
REMARK  status: ('A' for Active; 'I' for Inactive)
REMARK    1  A    between atoms: C_1  and  C_2
REMARK    2  A    between atoms: C_5  and  N_6
REMARK                            x       y       z     vdW  Elec       q    Type
REMARK                         _______ _______ _______ _____ _____    ______ ____
ROOT
ATOM      1  N   UNL     1       0.858  10.216  20.564  0.00  0.00    +0.000 N 
ATOM      2  C   UNL     1       1.058   9.412  21.691  0.00  0.00    +0.000 A 
ATOM      3  O   UNL     1       0.861   9.759  22.854  0.00  0.00    +0.000 OA
ATOM      4  N   UNL     1       1.472   8.127  21.453  0.00  0.00    +0.000 N 
ATOM      5  C   UNL     1       1.835   7.643  20.209  0.00  0.00    +0.000 A 
ATOM      6  N   UNL     1       2.316   6.387  20.145  0.00  0.00    +0.000 NA
ATOM      7  C   UNL     1       2.772   5.986  18.937  0.00  0.00    +0.000 A 
ATOM      8  N   UNL     1       3.266   4.663  18.805  0.00  0.00    +0.000 N 
ATOM      9  C   UNL     1       3.277   3.670  19.758  0.00  0.00    +0.000 A 
ATOM     10  C   UNL     1       3.811   2.567  19.133  0.00  0.00    +0.000 A 
ATOM     11  N   UNL     1       4.153   2.856  17.840  0.00  0.00    +0.000 NA
ATOM     12  C   UNL     1       3.819   4.118  17.672  0.00  0.00    +0.000 A 
ATOM     13  N   UNL     1       2.779   6.760  17.829  0.00  0.00    +0.000 NA
ATOM     14  C   UNL     1       2.246   7.993  17.944  0.00  0.00    +0.000 A 
ATOM     15  C   UNL     1       1.741   8.473  19.125  0.00  0.00    +0.000 A 
ATOM     16  C   UNL     1       1.158   9.801  19.262  0.00  0.00    +0.000 A 
ATOM     17  O   UNL     1       1.011  10.462  18.239  0.00  0.00    +0.000 OA
ATOM     18  H   UNL     1       1.585   7.520  22.254  0.00  0.00    +0.000 HD
ENDROOT
BRANCH   1  23
ATOM     19  C   UNL     1      -1.190  15.505  21.442  0.00  0.00    +0.000 C 
ATOM     20  C   UNL     1      -0.680  14.119  21.186  0.00  0.00    +0.000 A 
ATOM     21  C   UNL     1      -1.551  13.031  21.041  0.00  0.00    +0.000 A 
ATOM     22  C   UNL     1      -1.046  11.749  20.796  0.00  0.00    +0.000 A 
ATOM     23  C   UNL     1       0.336  11.531  20.734  0.00  0.00    +0.000 A 
ATOM     24  C   UNL     1       1.207  12.614  20.886  0.00  0.00    +0.000 A 
ATOM     25  C   UNL     1       0.694  13.892  21.088  0.00  0.00    +0.000 A 
ATOM     26  F   UNL     1       1.547  14.922  21.190  0.00  0.00    +0.000 F 
ENDBRANCH   1  23
TORSDOF 1
ENDMDL
MODEL 9
REMARK VINA RESULT:      -7.6      2.482      3.397
REMARK  Name = 
REMARK  2 active torsions:
REMARK  status: ('A' for Active; 'I' for Inactive)
REMARK    1  A    between atoms: C_1  and  C_2
REMARK    2  A    between atoms: C_5  and  N_6
REMARK                            x       y       z     vdW  Elec       q    Type
REMARK                         _______ _______ _______ _____ _____    ______ ____
ROOT
ATOM      1  N   UNL     1       2.219   7.384  19.051  0.00  0.00    +0.000 N 
ATOM      2  C   UNL     1       2.423   8.266  17.986  0.00  0.00    +0.000 A 
ATOM      3  O   UNL     1       2.994   7.986  16.933  0.00  0.00    +0.000 OA
ATOM      4  N   UNL     1       1.904   9.526  18.133  0.00  0.00    +0.000 N 
ATOM      5  C   UNL     1       1.337  10.003  19.302  0.00  0.00    +0.000 A 
ATOM      6  N   UNL     1       0.958  11.295  19.328  0.00  0.00    +0.000 NA
ATOM      7  C   UNL     1       0.519  11.761  20.519  0.00  0.00    +0.000 A 
ATOM      8  N   UNL     1       0.083  13.109  20.599  0.00  0.00    +0.000 N 
ATOM      9  C   UNL     1      -0.028  14.019  19.573  0.00  0.00    +0.000 A 
ATOM     10  C   UNL     1      -0.536  15.161  20.149  0.00  0.00    +0.000 A 
ATOM     11  N   UNL     1      -0.714  14.991  21.495  0.00  0.00    +0.000 NA
ATOM     12  C   UNL     1      -0.333  13.755  21.737  0.00  0.00    +0.000 A 
ATOM     13  N   UNL     1       0.454  11.024  21.649  0.00  0.00    +0.000 NA
ATOM     14  C   UNL     1       0.806   9.726  21.552  0.00  0.00    +0.000 A 
ATOM     15  C   UNL     1       1.242   9.165  20.379  0.00  0.00    +0.000 A 
ATOM     16  C   UNL     1       1.620   7.764  20.258  0.00  0.00    +0.000 A 
ATOM     17  O   UNL     1       1.421   7.038  21.228  0.00  0.00    +0.000 OA
ATOM     18  H   UNL     1       2.008  10.165  17.356  0.00  0.00    +0.000 HD
ENDROOT
BRANCH   1  23
ATOM     19  C   UNL     1       3.832   1.888  18.699  0.00  0.00    +0.000 C 
ATOM     20  C   UNL     1       3.442   3.332  18.776  0.00  0.00    +0.000 A 
ATOM     21  C   UNL     1       4.327   4.307  19.256  0.00  0.00    +0.000 A 
ATOM     22  C   UNL     1       3.938   5.650  19.310  0.00  0.00    +0.000 A 
ATOM     23  C   UNL     1       2.648   6.031  18.924  0.00  0.00    +0.000 A 
ATOM     24  C   UNL     1       1.760   5.059  18.451  0.00  0.00    +0.000 A 
ATOM     25  C   UNL     1       2.170   3.732  18.363  0.00  0.00    +0.000 A 
ATOM     26  F   UNL     1       1.316   2.824  17.868  0.00  0.00    +0.000 F 
ENDBRANCH   1  23
TORSDOF 1
ENDMDL
