MODEL 1
REMARK VINA RESULT:      -7.3      0.000      0.000
REMARK  Name = 
REMARK  7 active torsions:
REMARK  status: ('A' for Active; 'I' for Inactive)
REMARK    1  A    between atoms: C_5  and  S_6
REMARK    2  A    between atoms: S_6  and  C_7
REMARK    3  A    between atoms: C_7  and  C_8
REMARK    4  A    between atoms: C_8  and  C_9
REMARK    5  A    between atoms: C_9  and  N_10
REMARK    6  A    between atoms: C_13  and  C_14
REMARK    7  A    between atoms: C_14  and  C_15
REMARK                            x       y       z     vdW  Elec       q    Type
REMARK                         _______ _______ _______ _____ _____    ______ ____
ROOT
ATOM      1  C   UNL     1       2.760   1.740  18.163  0.00  0.00    +0.000 C 
ENDROOT
BRANCH   1   2
ATOM      2  N   UNL     1       2.197   2.501  19.304  0.00  0.00    +0.000 NA
ATOM      3  C   UNL     1       3.256   2.986  20.206  0.00  0.00    +0.000 C 
ATOM      4  C   UNL     1       2.702   3.806  21.368  0.00  0.00    +0.000 C 
ATOM      5  C   UNL     1       1.896   5.011  20.880  0.00  0.00    +0.000 C 
ATOM      6  C   UNL     1       0.786   4.470  19.963  0.00  0.00    +0.000 C 
ATOM      7  C   UNL     1       1.335   3.597  18.824  0.00  0.00    +0.000 C 
BRANCH   5   8
ATOM      8  C   UNL     1       2.743   6.075  20.145  0.00  0.00    +0.000 C 
BRANCH   8   9
ATOM      9  C   UNL     1       2.035   7.367  19.807  0.00  0.00    +0.000 A 
ATOM     10  C   UNL     1       1.322   8.059  20.798  0.00  0.00    +0.000 A 
ATOM     11  C   UNL     1       0.712   9.282  20.514  0.00  0.00    +0.000 A 
ATOM     12  C   UNL     1       0.811   9.829  19.237  0.00  0.00    +0.000 A 
ATOM     13  C   UNL     1       1.512   9.149  18.243  0.00  0.00    +0.000 A 
ATOM     14  C   UNL     1       2.122   7.924  18.525  0.00  0.00    +0.000 A 
ENDBRANCH   8   9
ENDBRANCH   5   8
ENDBRANCH   1   2
BRANCH   1  15
ATOM     15  C   UNL     1       4.129   2.290  17.729  0.00  0.00    +0.000 C 
BRANCH  15  16
ATOM     16  C   UNL     1       4.049   3.618  16.976  0.00  0.00    +0.000 C 
BRANCH  16  17
ATOM     17  S   UNL     1       5.609   3.803  16.044  0.00  0.00    +0.000 S 
BRANCH  17  22
ATOM     18  N   UNL     1       8.067   5.614  19.988  0.00  0.00    +0.000 N 
ATOM     19  C   UNL     1       7.636   5.512  18.734  0.00  0.00    +0.000 A 
ATOM     20  N   UNL     1       7.929   6.358  17.747  0.00  0.00    +0.000 NA
ATOM     21  N   UNL     1       7.248   5.804  16.727  0.00  0.00    +0.000 N 
ATOM     22  C   UNL     1       6.578   4.699  17.138  0.00  0.00    +0.000 A 
ATOM     23  N   UNL     1       6.799   4.489  18.413  0.00  0.00    +0.000 NA
ATOM     24  H   UNL     1       8.416   6.516  20.282  0.00  0.00    +0.000 HD
ATOM     25  H   UNL     1       7.546   5.107  20.692  0.00  0.00    +0.000 HD
ATOM     26  H   UNL     1       7.282   6.225  15.807  0.00  0.00    +0.000 HD
ENDBRANCH  17  22
ENDBRANCH  16  17
ENDBRANCH  15  16
ENDBRANCH   1  15
TORSDOF 7
ENDMDL
MODEL 2
REMARK VINA RESULT:      -7.3      4.323      6.528
REMARK  Name = 
REMARK  7 active torsions:
REMARK  status: ('A' for Active; 'I' for Inactive)
REMARK    1  A    between atoms: C_5  and  S_6
REMARK    2  A    between atoms: S_6  and  C_7
REMARK    3  A    between atoms: C_7  and  C_8
REMARK    4  A    between atoms: C_8  and  C_9
REMARK    5  A    between atoms: C_9  and  N_10
REMARK    6  A    between atoms: C_13  and  C_14
REMARK    7  A    between atoms: C_14  and  C_15
REMARK                            x       y       z     vdW  Elec       q    Type
REMARK                         _______ _______ _______ _____ _____    ______ ____
ROOT
ATOM      1  C   UNL     1       7.719   7.301  16.696  0.00  0.00    +0.000 C 
ENDROOT
BRANCH   1   2
ATOM      2  N   UNL     1       7.193   5.929  16.887  0.00  0.00    +0.000 NA
ATOM      3  C   UNL     1       6.619   5.752  18.232  0.00  0.00    +0.000 C 
ATOM      4  C   UNL     1       6.036   4.356  18.438  0.00  0.00    +0.000 C 
ATOM      5  C   UNL     1       4.953   4.035  17.405  0.00  0.00    +0.000 C 
ATOM      6  C   UNL     1       5.590   4.204  16.015  0.00  0.00    +0.000 C 
ATOM      7  C   UNL     1       6.229   5.589  15.825  0.00  0.00    +0.000 C 
BRANCH   5   8
ATOM      8  C   UNL     1       3.684   4.908  17.536  0.00  0.00    +0.000 C 
BRANCH   8   9
ATOM      9  C   UNL     1       2.585   4.351  18.412  0.00  0.00    +0.000 A 
ATOM     10  C   UNL     1       2.014   3.104  18.117  0.00  0.00    +0.000 A 
ATOM     11  C   UNL     1       1.039   2.553  18.950  0.00  0.00    +0.000 A 
ATOM     12  C   UNL     1       0.626   3.241  20.088  0.00  0.00    +0.000 A 
ATOM     13  C   UNL     1       1.182   4.483  20.389  0.00  0.00    +0.000 A 
ATOM     14  C   UNL     1       2.157   5.037  19.556  0.00  0.00    +0.000 A 
ENDBRANCH   8   9
ENDBRANCH   5   8
ENDBRANCH   1   2
BRANCH   1  15
ATOM     15  C   UNL     1       8.028   7.987  18.037  0.00  0.00    +0.000 C 
BRANCH  15  16
ATOM     16  C   UNL     1       8.027   9.515  17.961  0.00  0.00    +0.000 C 
BRANCH  16  17
ATOM     17  S   UNL     1       9.311  10.110  19.116  0.00  0.00    +0.000 S 
BRANCH  17  22
ATOM     18  N   UNL     1      10.022  14.652  17.181  0.00  0.00    +0.000 N 
ATOM     19  C   UNL     1      10.264  13.379  17.480  0.00  0.00    +0.000 A 
ATOM     20  N   UNL     1      11.326  12.682  17.082  0.00  0.00    +0.000 NA
ATOM     21  N   UNL     1      11.073  11.486  17.645  0.00  0.00    +0.000 N 
ATOM     22  C   UNL     1       9.894  11.510  18.315  0.00  0.00    +0.000 A 
ATOM     23  N   UNL     1       9.350  12.699  18.225  0.00  0.00    +0.000 NA
ATOM     24  H   UNL     1      10.525  15.043  16.396  0.00  0.00    +0.000 HD
ATOM     25  H   UNL     1       9.067  14.970  17.278  0.00  0.00    +0.000 HD
ATOM     26  H   UNL     1      11.726  10.722  17.529  0.00  0.00    +0.000 HD
ENDBRANCH  17  22
ENDBRANCH  16  17
ENDBRANCH  15  16
ENDBRANCH   1  15
TORSDOF 7
ENDMDL
MODEL 3
REMARK VINA RESULT:      -7.3      2.960      4.949
REMARK  Name = 
REMARK  7 active torsions:
REMARK  status: ('A' for Active; 'I' for Inactive)
REMARK    1  A    between atoms: C_5  and  S_6
REMARK    2  A    between atoms: S_6  and  C_7
REMARK    3  A    between atoms: C_7  and  C_8
REMARK    4  A    between atoms: C_8  and  C_9
REMARK    5  A    between atoms: C_9  and  N_10
REMARK    6  A    between atoms: C_13  and  C_14
REMARK    7  A    between atoms: C_14  and  C_15
REMARK                            x       y       z     vdW  Elec       q    Type
REMARK                         _______ _______ _______ _____ _____    ______ ____
ROOT
ATOM      1  C   UNL     1       2.420   6.803  19.485  0.00  0.00    +0.000 C 
ENDROOT
BRANCH   1   2
ATOM      2  N   UNL     1       2.094   8.248  19.465  0.00  0.00    +0.000 NA
ATOM      3  C   UNL     1       1.478   8.646  18.187  0.00  0.00    +0.000 C 
ATOM      4  C   UNL     1       1.098  10.125  18.158  0.00  0.00    +0.000 C 
ATOM      5  C   UNL     1       0.136  10.487  19.291  0.00  0.00    +0.000 C 
ATOM      6  C   UNL     1       0.819  10.084  20.610  0.00  0.00    +0.000 C 
ATOM      7  C   UNL     1       1.254   8.609  20.621  0.00  0.00    +0.000 C 
BRANCH   5   8
ATOM      8  C   UNL     1      -1.254   9.823  19.169  0.00  0.00    +0.000 C 
BRANCH   8   9
ATOM      9  C   UNL     1      -2.110  10.288  18.014  0.00  0.00    +0.000 A 
ATOM     10  C   UNL     1      -1.918   9.749  16.733  0.00  0.00    +0.000 A 
ATOM     11  C   UNL     1      -2.739  10.128  15.670  0.00  0.00    +0.000 A 
ATOM     12  C   UNL     1      -3.764  11.047  15.875  0.00  0.00    +0.000 A 
ATOM     13  C   UNL     1      -3.963  11.594  17.142  0.00  0.00    +0.000 A 
ATOM     14  C   UNL     1      -3.140  11.218  18.207  0.00  0.00    +0.000 A 
ENDBRANCH   8   9
ENDBRANCH   5   8
ENDBRANCH   1   2
BRANCH   1  15
ATOM     15  C   UNL     1       3.169   6.366  18.215  0.00  0.00    +0.000 C 
BRANCH  15  16
ATOM     16  C   UNL     1       3.103   4.862  17.948  0.00  0.00    +0.000 C 
BRANCH  16  17
ATOM     17  S   UNL     1       4.527   4.103  18.803  0.00  0.00    +0.000 S 
BRANCH  17  22
ATOM     18  N   UNL     1       7.375   5.131  14.840  0.00  0.00    +0.000 N 
ATOM     19  C   UNL     1       7.060   4.805  16.090  0.00  0.00    +0.000 A 
ATOM     20  N   UNL     1       7.931   4.506  17.053  0.00  0.00    +0.000 NA
ATOM     21  N   UNL     1       7.099   4.255  18.080  0.00  0.00    +0.000 N 
ATOM     22  C   UNL     1       5.805   4.385  17.695  0.00  0.00    +0.000 A 
ATOM     23  N   UNL     1       5.745   4.728  16.432  0.00  0.00    +0.000 NA
ATOM     24  H   UNL     1       8.303   4.886  14.522  0.00  0.00    +0.000 HD
ATOM     25  H   UNL     1       6.646   5.036  14.146  0.00  0.00    +0.000 HD
ATOM     26  H   UNL     1       7.473   4.003  18.987  0.00  0.00    +0.000 HD
ENDBRANCH  17  22
ENDBRANCH  16  17
ENDBRANCH  15  16
ENDBRANCH   1  15
TORSDOF 7
ENDMDL
MODEL 4
REMARK VINA RESULT:      -7.2      4.624      6.742
REMARK  Name = 
REMARK  7 active torsions:
REMARK  status: ('A' for Active; 'I' for Inactive)
REMARK    1  A    between atoms: C_5  and  S_6
REMARK    2  A    between atoms: S_6  and  C_7
REMARK    3  A    between atoms: C_7  and  C_8
REMARK    4  A    between atoms: C_8  and  C_9
REMARK    5  A    between atoms: C_9  and  N_10
REMARK    6  A    between atoms: C_13  and  C_14
REMARK    7  A    between atoms: C_14  and  C_15
REMARK                            x       y       z     vdW  Elec       q    Type
REMARK                         _______ _______ _______ _____ _____    ______ ____
ROOT
ATOM      1  C   UNL     1       8.156   7.368  18.462  0.00  0.00    +0.000 C 
ENDROOT
BRANCH   1   2
ATOM      2  N   UNL     1       7.242   6.514  17.667  0.00  0.00    +0.000 NA
ATOM      3  C   UNL     1       6.652   5.442  18.487  0.00  0.00    +0.000 C 
ATOM      4  C   UNL     1       5.677   4.573  17.698  0.00  0.00    +0.000 C 
ATOM      5  C   UNL     1       4.539   5.399  17.095  0.00  0.00    +0.000 C 
ATOM      6  C   UNL     1       5.186   6.491  16.226  0.00  0.00    +0.000 C 
ATOM      7  C   UNL     1       6.211   7.332  17.002  0.00  0.00    +0.000 C 
BRANCH   5   8
ATOM      8  C   UNL     1       3.593   6.024  18.146  0.00  0.00    +0.000 C 
BRANCH   8   9
ATOM      9  C   UNL     1       2.610   5.079  18.796  0.00  0.00    +0.000 A 
ATOM     10  C   UNL     1       1.935   4.123  18.023  0.00  0.00    +0.000 A 
ATOM     11  C   UNL     1       1.067   3.207  18.620  0.00  0.00    +0.000 A 
ATOM     12  C   UNL     1       0.867   3.234  19.997  0.00  0.00    +0.000 A 
ATOM     13  C   UNL     1       1.527   4.183  20.777  0.00  0.00    +0.000 A 
ATOM     14  C   UNL     1       2.394   5.102  20.180  0.00  0.00    +0.000 A 
ENDBRANCH   8   9
ENDBRANCH   5   8
ENDBRANCH   1   2
BRANCH   1  15
ATOM     15  C   UNL     1       8.210   8.807  17.921  0.00  0.00    +0.000 C 
BRANCH  15  16
ATOM     16  C   UNL     1       8.778   9.818  18.918  0.00  0.00    +0.000 C 
BRANCH  16  17
ATOM     17  S   UNL     1      10.013  10.821  18.021  0.00  0.00    +0.000 S 
BRANCH  17  22
ATOM     18  N   UNL     1       6.991  14.732  17.351  0.00  0.00    +0.000 N 
ATOM     19  C   UNL     1       8.057  14.041  17.745  0.00  0.00    +0.000 A 
ATOM     20  N   UNL     1       9.122  14.549  18.362  0.00  0.00    +0.000 NA
ATOM     21  N   UNL     1       9.877  13.447  18.517  0.00  0.00    +0.000 N 
ATOM     22  C   UNL     1       9.263  12.363  17.981  0.00  0.00    +0.000 A 
ATOM     23  N   UNL     1       8.105  12.707  17.475  0.00  0.00    +0.000 NA
ATOM     24  H   UNL     1       7.098  15.735  17.274  0.00  0.00    +0.000 HD
ATOM     25  H   UNL     1       6.407  14.308  16.643  0.00  0.00    +0.000 HD
ATOM     26  H   UNL     1      10.775  13.507  18.980  0.00  0.00    +0.000 HD
ENDBRANCH  17  22
ENDBRANCH  16  17
ENDBRANCH  15  16
ENDBRANCH   1  15
TORSDOF 7
ENDMDL
MODEL 5
REMARK VINA RESULT:      -7.1      1.760      2.659
REMARK  Name = 
REMARK  7 active torsions:
REMARK  status: ('A' for Active; 'I' for Inactive)
REMARK    1  A    between atoms: C_5  and  S_6
REMARK    2  A    between atoms: S_6  and  C_7
REMARK    3  A    between atoms: C_7  and  C_8
REMARK    4  A    between atoms: C_8  and  C_9
REMARK    5  A    between atoms: C_9  and  N_10
REMARK    6  A    between atoms: C_13  and  C_14
REMARK    7  A    between atoms: C_14  and  C_15
REMARK                            x       y       z     vdW  Elec       q    Type
REMARK                         _______ _______ _______ _____ _____    ______ ____
ROOT
ATOM      1  C   UNL     1       3.733   1.997  18.475  0.00  0.00    +0.000 C 
ENDROOT
BRANCH   1   2
ATOM      2  N   UNL     1       2.677   2.617  19.310  0.00  0.00    +0.000 NA
ATOM      3  C   UNL     1       3.189   2.995  20.638  0.00  0.00    +0.000 C 
ATOM      4  C   UNL     1       2.128   3.672  21.502  0.00  0.00    +0.000 C 
ATOM      5  C   UNL     1       1.562   4.924  20.830  0.00  0.00    +0.000 C 
ATOM      6  C   UNL     1       1.013   4.492  19.459  0.00  0.00    +0.000 C 
ATOM      7  C   UNL     1       2.063   3.760  18.609  0.00  0.00    +0.000 C 
BRANCH   5   8
ATOM      8  C   UNL     1       2.589   6.069  20.673  0.00  0.00    +0.000 C 
BRANCH   8   9
ATOM      9  C   UNL     1       2.095   7.308  19.962  0.00  0.00    +0.000 A 
ATOM     10  C   UNL     1       2.450   7.542  18.625  0.00  0.00    +0.000 A 
ATOM     11  C   UNL     1       1.955   8.652  17.940  0.00  0.00    +0.000 A 
ATOM     12  C   UNL     1       1.096   9.540  18.582  0.00  0.00    +0.000 A 
ATOM     13  C   UNL     1       0.739   9.322  19.912  0.00  0.00    +0.000 A 
ATOM     14  C   UNL     1       1.236   8.212  20.600  0.00  0.00    +0.000 A 
ENDBRANCH   8   9
ENDBRANCH   5   8
ENDBRANCH   1   2
BRANCH   1  15
ATOM     15  C   UNL     1       4.241   2.958  17.387  0.00  0.00    +0.000 C 
BRANCH  15  16
ATOM     16  C   UNL     1       5.323   3.922  17.874  0.00  0.00    +0.000 C 
BRANCH  16  17
ATOM     17  S   UNL     1       5.168   5.448  16.883  0.00  0.00    +0.000 S 
BRANCH  17  22
ATOM     18  N   UNL     1       6.680   3.503  12.546  0.00  0.00    +0.000 N 
ATOM     19  C   UNL     1       6.692   4.267  13.634  0.00  0.00    +0.000 A 
ATOM     20  N   UNL     1       7.659   5.120  13.967  0.00  0.00    +0.000 NA
ATOM     21  N   UNL     1       7.180   5.608  15.126  0.00  0.00    +0.000 N 
ATOM     22  C   UNL     1       5.996   5.027  15.442  0.00  0.00    +0.000 A 
ATOM     23  N   UNL     1       5.659   4.163  14.515  0.00  0.00    +0.000 NA
ATOM     24  H   UNL     1       7.563   3.358  12.077  0.00  0.00    +0.000 HD
ATOM     25  H   UNL     1       6.066   2.699  12.559  0.00  0.00    +0.000 HD
ATOM     26  H   UNL     1       7.702   6.311  15.635  0.00  0.00    +0.000 HD
ENDBRANCH  17  22
ENDBRANCH  16  17
ENDBRANCH  15  16
ENDBRANCH   1  15
TORSDOF 7
ENDMDL
MODEL 6
REMARK VINA RESULT:      -7.1      0.860      1.204
REMARK  Name = 
REMARK  7 active torsions:
REMARK  status: ('A' for Active; 'I' for Inactive)
REMARK    1  A    between atoms: C_5  and  S_6
REMARK    2  A    between atoms: S_6  and  C_7
REMARK    3  A    between atoms: C_7  and  C_8
REMARK    4  A    between atoms: C_8  and  C_9
REMARK    5  A    between atoms: C_9  and  N_10
REMARK    6  A    between atoms: C_13  and  C_14
REMARK    7  A    between atoms: C_14  and  C_15
REMARK                            x       y       z     vdW  Elec       q    Type
REMARK                         _______ _______ _______ _____ _____    ______ ____
ROOT
ATOM      1  C   UNL     1       3.002   2.263  17.394  0.00  0.00    +0.000 C 
ENDROOT
BRANCH   1   2
ATOM      2  N   UNL     1       2.231   2.610  18.611  0.00  0.00    +0.000 NA
ATOM      3  C   UNL     1       3.093   2.642  19.806  0.00  0.00    +0.000 C 
ATOM      4  C   UNL     1       2.327   3.036  21.067  0.00  0.00    +0.000 C 
ATOM      5  C   UNL     1       1.655   4.403  20.920  0.00  0.00    +0.000 C 
ATOM      6  C   UNL     1       0.745   4.327  19.682  0.00  0.00    +0.000 C 
ATOM      7  C   UNL     1       1.500   3.876  18.422  0.00  0.00    +0.000 C 
BRANCH   5   8
ATOM      8  C   UNL     1       2.649   5.580  20.799  0.00  0.00    +0.000 C 
BRANCH   8   9
ATOM      9  C   UNL     1       2.090   6.861  20.224  0.00  0.00    +0.000 A 
ATOM     10  C   UNL     1       1.296   7.702  21.018  0.00  0.00    +0.000 A 
ATOM     11  C   UNL     1       0.822   8.915  20.517  0.00  0.00    +0.000 A 
ATOM     12  C   UNL     1       1.139   9.304  19.219  0.00  0.00    +0.000 A 
ATOM     13  C   UNL     1       1.923   8.475  18.417  0.00  0.00    +0.000 A 
ATOM     14  C   UNL     1       2.397   7.259  18.916  0.00  0.00    +0.000 A 
ENDBRANCH   8   9
ENDBRANCH   5   8
ENDBRANCH   1   2
BRANCH   1  15
ATOM     15  C   UNL     1       4.409   2.882  17.411  0.00  0.00    +0.000 C 
BRANCH  15  16
ATOM     16  C   UNL     1       4.573   4.064  16.456  0.00  0.00    +0.000 C 
BRANCH  16  17
ATOM     17  S   UNL     1       6.326   4.102  15.945  0.00  0.00    +0.000 S 
BRANCH  17  22
ATOM     18  N   UNL     1       8.162   8.191  18.134  0.00  0.00    +0.000 N 
ATOM     19  C   UNL     1       7.758   6.931  17.999  0.00  0.00    +0.000 A 
ATOM     20  N   UNL     1       7.820   5.995  18.944  0.00  0.00    +0.000 NA
ATOM     21  N   UNL     1       7.304   4.938  18.291  0.00  0.00    +0.000 N 
ATOM     22  C   UNL     1       6.988   5.268  17.014  0.00  0.00    +0.000 A 
ATOM     23  N   UNL     1       7.270   6.528  16.793  0.00  0.00    +0.000 NA
ATOM     24  H   UNL     1       8.791   8.391  18.900  0.00  0.00    +0.000 HD
ATOM     25  H   UNL     1       8.346   8.705  17.283  0.00  0.00    +0.000 HD
ATOM     26  H   UNL     1       7.204   4.048  18.764  0.00  0.00    +0.000 HD
ENDBRANCH  17  22
ENDBRANCH  16  17
ENDBRANCH  15  16
ENDBRANCH   1  15
TORSDOF 7
ENDMDL
MODEL 7
REMARK VINA RESULT:      -7.0      3.280      7.123
REMARK  Name = 
REMARK  7 active torsions:
REMARK  status: ('A' for Active; 'I' for Inactive)
REMARK    1  A    between atoms: C_5  and  S_6
REMARK    2  A    between atoms: S_6  and  C_7
REMARK    3  A    between atoms: C_7  and  C_8
REMARK    4  A    between atoms: C_8  and  C_9
REMARK    5  A    between atoms: C_9  and  N_10
REMARK    6  A    between atoms: C_13  and  C_14
REMARK    7  A    between atoms: C_14  and  C_15
REMARK                            x       y       z     vdW  Elec       q    Type
REMARK                         _______ _______ _______ _____ _____    ______ ____
ROOT
ATOM      1  C   UNL     1       3.780   6.966  17.522  0.00  0.00    +0.000 C 
ENDROOT
BRANCH   1   2
ATOM      2  N   UNL     1       4.794   5.895  17.379  0.00  0.00    +0.000 NA
ATOM      3  C   UNL     1       4.372   4.876  16.402  0.00  0.00    +0.000 C 
ATOM      4  C   UNL     1       5.420   3.783  16.210  0.00  0.00    +0.000 C 
ATOM      5  C   UNL     1       6.764   4.357  15.758  0.00  0.00    +0.000 C 
ATOM      6  C   UNL     1       7.188   5.395  16.811  0.00  0.00    +0.000 C 
ATOM      7  C   UNL     1       6.112   6.467  17.048  0.00  0.00    +0.000 C 
BRANCH   5   8
ATOM      8  C   UNL     1       6.734   4.987  14.347  0.00  0.00    +0.000 C 
BRANCH   8   9
ATOM      9  C   UNL     1       6.296   4.076  13.224  0.00  0.00    +0.000 A 
ATOM     10  C   UNL     1       7.243   3.309  12.530  0.00  0.00    +0.000 A 
ATOM     11  C   UNL     1       6.845   2.421  11.529  0.00  0.00    +0.000 A 
ATOM     12  C   UNL     1       5.495   2.287  11.214  0.00  0.00    +0.000 A 
ATOM     13  C   UNL     1       4.545   3.047  11.893  0.00  0.00    +0.000 A 
ATOM     14  C   UNL     1       4.941   3.938  12.893  0.00  0.00    +0.000 A 
ENDBRANCH   8   9
ENDBRANCH   5   8
ENDBRANCH   1   2
BRANCH   1  15
ATOM     15  C   UNL     1       2.504   6.458  18.215  0.00  0.00    +0.000 C 
BRANCH  15  16
ATOM     16  C   UNL     1       2.600   6.438  19.741  0.00  0.00    +0.000 C 
BRANCH  16  17
ATOM     17  S   UNL     1       1.814   4.890  20.308  0.00  0.00    +0.000 S 
BRANCH  17  22
ATOM     18  N   UNL     1       4.135   0.854  18.522  0.00  0.00    +0.000 N 
ATOM     19  C   UNL     1       3.982   2.059  19.063  0.00  0.00    +0.000 A 
ATOM     20  N   UNL     1       4.969   2.848  19.481  0.00  0.00    +0.000 NA
ATOM     21  N   UNL     1       4.274   3.908  19.934  0.00  0.00    +0.000 N 
ATOM     22  C   UNL     1       2.940   3.705  19.794  0.00  0.00    +0.000 A 
ATOM     23  N   UNL     1       2.720   2.534  19.249  0.00  0.00    +0.000 NA
ATOM     24  H   UNL     1       5.022   0.393  18.672  0.00  0.00    +0.000 HD
ATOM     25  H   UNL     1       3.329   0.243  18.530  0.00  0.00    +0.000 HD
ATOM     26  H   UNL     1       4.761   4.709  20.316  0.00  0.00    +0.000 HD
ENDBRANCH  17  22
ENDBRANCH  16  17
ENDBRANCH  15  16
ENDBRANCH   1  15
TORSDOF 7
ENDMDL
MODEL 8
REMARK VINA RESULT:      -7.0      1.729      2.384
REMARK  Name = 
REMARK  7 active torsions:
REMARK  status: ('A' for Active; 'I' for Inactive)
REMARK    1  A    between atoms: C_5  and  S_6
REMARK    2  A    between atoms: S_6  and  C_7
REMARK    3  A    between atoms: C_7  and  C_8
REMARK    4  A    between atoms: C_8  and  C_9
REMARK    5  A    between atoms: C_9  and  N_10
REMARK    6  A    between atoms: C_13  and  C_14
REMARK    7  A    between atoms: C_14  and  C_15
REMARK                            x       y       z     vdW  Elec       q    Type
REMARK                         _______ _______ _______ _____ _____    ______ ____
ROOT
ATOM      1  C   UNL     1       2.807   1.718  18.490  0.00  0.00    +0.000 C 
ENDROOT
BRANCH   1   2
ATOM      2  N   UNL     1       2.102   2.514  19.523  0.00  0.00    +0.000 NA
ATOM      3  C   UNL     1       3.016   2.936  20.598  0.00  0.00    +0.000 C 
ATOM      4  C   UNL     1       2.319   3.790  21.654  0.00  0.00    +0.000 C 
ATOM      5  C   UNL     1       1.683   5.041  21.044  0.00  0.00    +0.000 C 
ATOM      6  C   UNL     1       0.717   4.566  19.945  0.00  0.00    +0.000 C 
ATOM      7  C   UNL     1       1.402   3.658  18.911  0.00  0.00    +0.000 C 
BRANCH   5   8
ATOM      8  C   UNL     1       2.706   6.050  20.475  0.00  0.00    +0.000 C 
BRANCH   8   9
ATOM      9  C   UNL     1       2.126   7.267  19.792  0.00  0.00    +0.000 A 
ATOM     10  C   UNL     1       1.416   8.221  20.536  0.00  0.00    +0.000 A 
ATOM     11  C   UNL     1       0.925   9.377  19.928  0.00  0.00    +0.000 A 
ATOM     12  C   UNL     1       1.140   9.594  18.570  0.00  0.00    +0.000 A 
ATOM     13  C   UNL     1       1.839   8.651  17.818  0.00  0.00    +0.000 A 
ATOM     14  C   UNL     1       2.330   7.492  18.425  0.00  0.00    +0.000 A 
ENDBRANCH   8   9
ENDBRANCH   5   8
ENDBRANCH   1   2
BRANCH   1  15
ATOM     15  C   UNL     1       3.434   2.612  17.408  0.00  0.00    +0.000 C 
BRANCH  15  16
ATOM     16  C   UNL     1       4.803   3.174  17.791  0.00  0.00    +0.000 C 
BRANCH  16  17
ATOM     17  S   UNL     1       4.867   4.895  17.183  0.00  0.00    +0.000 S 
BRANCH  17  22
ATOM     18  N   UNL     1       6.543   3.477  12.704  0.00  0.00    +0.000 N 
ATOM     19  C   UNL     1       6.439   4.192  13.820  0.00  0.00    +0.000 A 
ATOM     20  N   UNL     1       7.199   5.238  14.140  0.00  0.00    +0.000 NA
ATOM     21  N   UNL     1       6.686   5.569  15.340  0.00  0.00    +0.000 N 
ATOM     22  C   UNL     1       5.689   4.718  15.688  0.00  0.00    +0.000 A 
ATOM     23  N   UNL     1       5.510   3.826  14.745  0.00  0.00    +0.000 NA
ATOM     24  H   UNL     1       7.409   3.555  12.188  0.00  0.00    +0.000 HD
ATOM     25  H   UNL     1       6.134   2.552  12.715  0.00  0.00    +0.000 HD
ATOM     26  H   UNL     1       7.058   6.360  15.850  0.00  0.00    +0.000 HD
ENDBRANCH  17  22
ENDBRANCH  16  17
ENDBRANCH  15  16
ENDBRANCH   1  15
TORSDOF 7
ENDMDL
MODEL 9
REMARK VINA RESULT:      -7.0      2.827      4.735
REMARK  Name = 
REMARK  7 active torsions:
REMARK  status: ('A' for Active; 'I' for Inactive)
REMARK    1  A    between atoms: C_5  and  S_6
REMARK    2  A    between atoms: S_6  and  C_7
REMARK    3  A    between atoms: C_7  and  C_8
REMARK    4  A    between atoms: C_8  and  C_9
REMARK    5  A    between atoms: C_9  and  N_10
REMARK    6  A    between atoms: C_13  and  C_14
REMARK    7  A    between atoms: C_14  and  C_15
REMARK                            x       y       z     vdW  Elec       q    Type
REMARK                         _______ _______ _______ _____ _____    ______ ____
ROOT
ATOM      1  C   UNL     1       2.510   6.474  19.462  0.00  0.00    +0.000 C 
ENDROOT
BRANCH   1   2
ATOM      2  N   UNL     1       2.276   7.935  19.399  0.00  0.00    +0.000 NA
ATOM      3  C   UNL     1       2.225   8.416  18.007  0.00  0.00    +0.000 C 
ATOM      4  C   UNL     1       1.946   9.914  17.917  0.00  0.00    +0.000 C 
ATOM      5  C   UNL     1       0.631  10.289  18.604  0.00  0.00    +0.000 C 
ATOM      6  C   UNL     1       0.726   9.798  20.059  0.00  0.00    +0.000 C 
ATOM      7  C   UNL     1       1.064   8.301  20.155  0.00  0.00    +0.000 C 
BRANCH   5   8
ATOM      8  C   UNL     1      -0.625   9.712  17.912  0.00  0.00    +0.000 C 
BRANCH   8   9
ATOM      9  C   UNL     1      -1.915  10.464  18.147  0.00  0.00    +0.000 A 
ATOM     10  C   UNL     1      -3.112  10.003  17.579  0.00  0.00    +0.000 A 
ATOM     11  C   UNL     1      -4.319  10.655  17.834  0.00  0.00    +0.000 A 
ATOM     12  C   UNL     1      -4.344  11.773  18.663  0.00  0.00    +0.000 A 
ATOM     13  C   UNL     1      -3.160  12.245  19.230  0.00  0.00    +0.000 A 
ATOM     14  C   UNL     1      -1.951  11.594  18.973  0.00  0.00    +0.000 A 
ENDBRANCH   8   9
ENDBRANCH   5   8
ENDBRANCH   1   2
BRANCH   1  15
ATOM     15  C   UNL     1       3.122   5.935  18.158  0.00  0.00    +0.000 C 
BRANCH  15  16
ATOM     16  C   UNL     1       2.614   4.547  17.767  0.00  0.00    +0.000 C 
BRANCH  16  17
ATOM     17  S   UNL     1       3.784   3.331  18.465  0.00  0.00    +0.000 S 
BRANCH  17  22
ATOM     18  N   UNL     1       7.603   4.925  15.680  0.00  0.00    +0.000 N 
ATOM     19  C   UNL     1       6.925   4.562  16.766  0.00  0.00    +0.000 A 
ATOM     20  N   UNL     1       7.419   4.508  18.001  0.00  0.00    +0.000 NA
ATOM     21  N   UNL     1       6.341   4.087  18.689  0.00  0.00    +0.000 N 
ATOM     22  C   UNL     1       5.287   3.888  17.858  0.00  0.00    +0.000 A 
ATOM     23  N   UNL     1       5.627   4.176  16.625  0.00  0.00    +0.000 NA
ATOM     24  H   UNL     1       8.612   4.905  15.742  0.00  0.00    +0.000 HD
ATOM     25  H   UNL     1       7.223   4.638  14.788  0.00  0.00    +0.000 HD
ATOM     26  H   UNL     1       6.397   3.956  19.691  0.00  0.00    +0.000 HD
ENDBRANCH  17  22
ENDBRANCH  16  17
ENDBRANCH  15  16
ENDBRANCH   1  15
TORSDOF 7
ENDMDL
