MODEL 1
REMARK VINA RESULT:      -9.0      0.000      0.000
REMARK  Name = 
REMARK  5 active torsions:
REMARK  status: ('A' for Active; 'I' for Inactive)
REMARK    1  A    between atoms: N_1  and  S_2
REMARK    2  A    between atoms: S_2  and  C_5
REMARK    3  A    between atoms: C_8  and  N_9
REMARK    4  A    between atoms: C_11  and  C_12
REMARK    5  A    between atoms: C_15  and  C_16
REMARK                            x       y       z     vdW  Elec       q    Type
REMARK                         _______ _______ _______ _____ _____    ______ ____
ROOT
ATOM      1  N   UNL     1      -1.011  11.911  18.835  0.00  0.00    +0.000 N 
ATOM      2  N   UNL     1      -0.513  10.641  19.087  0.00  0.00    +0.000 NA
ATOM      3  C   UNL     1       0.776  10.486  19.135  0.00  0.00    +0.000 A 
ATOM      4  C   UNL     1       1.740  11.598  19.096  0.00  0.00    +0.000 A 
ATOM      5  C   UNL     1       1.258  12.796  18.782  0.00  0.00    +0.000 A 
ATOM      6  C   UNL     1      -0.187  13.007  18.556  0.00  0.00    +0.000 A 
ATOM      7  O   UNL     1      -0.523  14.143  18.224  0.00  0.00    +0.000 OA
ENDROOT
BRANCH   1  11
ATOM      8  C   UNL     1      -5.258  11.947  19.011  0.00  0.00    +0.000 A 
ATOM      9  C   UNL     1      -4.526  12.534  20.038  0.00  0.00    +0.000 A 
ATOM     10  C   UNL     1      -3.130  12.562  19.960  0.00  0.00    +0.000 A 
ATOM     11  C   UNL     1      -2.444  12.003  18.869  0.00  0.00    +0.000 A 
ATOM     12  C   UNL     1      -3.212  11.471  17.816  0.00  0.00    +0.000 A 
ATOM     13  C   UNL     1      -4.610  11.425  17.890  0.00  0.00    +0.000 A 
BRANCH   8  14
ATOM     14  S   UNL     1      -7.020  11.872  19.128  0.00  0.00    +0.000 S 
ATOM     15  O   UNL     1      -7.596  12.582  18.013  0.00  0.00    +0.000 OA
ATOM     16  O   UNL     1      -7.422  12.112  20.495  0.00  0.00    +0.000 OA
BRANCH  14  17
ATOM     17  N   UNL     1      -7.316  10.241  18.859  0.00  0.00    +0.000 NA
ATOM     18  H   UNL     1      -7.871   9.864  19.629  0.00  0.00    +0.000 HD
ATOM     19  H   UNL     1      -6.439   9.746  18.697  0.00  0.00    +0.000 HD
ENDBRANCH  14  17
ENDBRANCH   8  14
ENDBRANCH   1  11
BRANCH   3  20
ATOM     20  C   UNL     1       1.348   9.107  19.239  0.00  0.00    +0.000 A 
ATOM     21  C   UNL     1       1.343   8.394  20.443  0.00  0.00    +0.000 A 
ATOM     22  C   UNL     1       1.920   7.123  20.517  0.00  0.00    +0.000 A 
ATOM     23  C   UNL     1       2.528   6.533  19.398  0.00  0.00    +0.000 A 
ATOM     24  C   UNL     1       2.581   7.287  18.217  0.00  0.00    +0.000 A 
ATOM     25  C   UNL     1       1.982   8.547  18.130  0.00  0.00    +0.000 A 
BRANCH  23  26
ATOM     26  C   UNL     1       3.118   5.132  19.540  0.00  0.00    +0.000 C 
ATOM     27  C   UNL     1       2.407   4.313  20.639  0.00  0.00    +0.000 C 
ATOM     28  C   UNL     1       1.026   3.829  20.206  0.00  0.00    +0.000 C 
ATOM     29  C   UNL     1       1.086   3.011  18.920  0.00  0.00    +0.000 C 
ATOM     30  C   UNL     1       1.847   3.712  17.801  0.00  0.00    +0.000 C 
ATOM     31  C   UNL     1       3.193   4.284  18.255  0.00  0.00    +0.000 C 
ENDBRANCH  23  26
ENDBRANCH   3  20
TORSDOF 5
ENDMDL
MODEL 2
REMARK VINA RESULT:      -8.9      2.237      2.556
REMARK  Name = 
REMARK  5 active torsions:
REMARK  status: ('A' for Active; 'I' for Inactive)
REMARK    1  A    between atoms: N_1  and  S_2
REMARK    2  A    between atoms: S_2  and  C_5
REMARK    3  A    between atoms: C_8  and  N_9
REMARK    4  A    between atoms: C_11  and  C_12
REMARK    5  A    between atoms: C_15  and  C_16
REMARK                            x       y       z     vdW  Elec       q    Type
REMARK                         _______ _______ _______ _____ _____    ______ ____
ROOT
ATOM      1  N   UNL     1      -0.695  12.088  20.092  0.00  0.00    +0.000 N 
ATOM      2  N   UNL     1      -0.152  10.823  20.255  0.00  0.00    +0.000 NA
ATOM      3  C   UNL     1       0.887  10.505  19.543  0.00  0.00    +0.000 A 
ATOM      4  C   UNL     1       1.622  11.454  18.691  0.00  0.00    +0.000 A 
ATOM      5  C   UNL     1       1.053  12.637  18.487  0.00  0.00    +0.000 A 
ATOM      6  C   UNL     1      -0.219  13.001  19.144  0.00  0.00    +0.000 A 
ATOM      7  O   UNL     1      -0.685  14.101  18.850  0.00  0.00    +0.000 OA
ENDROOT
BRANCH   1  11
ATOM      8  C   UNL     1      -4.040  12.716  22.641  0.00  0.00    +0.000 A 
ATOM      9  C   UNL     1      -2.795  12.441  23.200  0.00  0.00    +0.000 A 
ATOM     10  C   UNL     1      -1.685  12.278  22.364  0.00  0.00    +0.000 A 
ATOM     11  C   UNL     1      -1.797  12.377  20.967  0.00  0.00    +0.000 A 
ATOM     12  C   UNL     1      -3.054  12.717  20.434  0.00  0.00    +0.000 A 
ATOM     13  C   UNL     1      -4.176  12.868  21.260  0.00  0.00    +0.000 A 
BRANCH   8  14
ATOM     14  S   UNL     1      -5.450  12.879  23.691  0.00  0.00    +0.000 S 
ATOM     15  O   UNL     1      -6.523  12.069  23.169  0.00  0.00    +0.000 OA
ATOM     16  O   UNL     1      -5.627  14.268  24.048  0.00  0.00    +0.000 OA
BRANCH  14  17
ATOM     17  N   UNL     1      -4.924  12.125  25.097  0.00  0.00    +0.000 NA
ATOM     18  H   UNL     1      -3.904  12.120  25.120  0.00  0.00    +0.000 HD
ATOM     19  H   UNL     1      -5.347  11.200  25.179  0.00  0.00    +0.000 HD
ENDBRANCH  14  17
ENDBRANCH   8  14
ENDBRANCH   1  11
BRANCH   3  20
ATOM     20  C   UNL     1       1.395   9.097  19.571  0.00  0.00    +0.000 A 
ATOM     21  C   UNL     1       1.325   8.309  20.726  0.00  0.00    +0.000 A 
ATOM     22  C   UNL     1       1.844   7.011  20.732  0.00  0.00    +0.000 A 
ATOM     23  C   UNL     1       2.459   6.468  19.593  0.00  0.00    +0.000 A 
ATOM     24  C   UNL     1       2.579   7.293  18.466  0.00  0.00    +0.000 A 
ATOM     25  C   UNL     1       2.038   8.582  18.446  0.00  0.00    +0.000 A 
BRANCH  23  26
ATOM     26  C   UNL     1       2.984   5.036  19.658  0.00  0.00    +0.000 C 
ATOM     27  C   UNL     1       2.227   4.189  20.704  0.00  0.00    +0.000 C 
ATOM     28  C   UNL     1       0.829   3.794  20.236  0.00  0.00    +0.000 C 
ATOM     29  C   UNL     1       0.864   3.048  18.906  0.00  0.00    +0.000 C 
ATOM     30  C   UNL     1       1.666   3.776  17.833  0.00  0.00    +0.000 C 
ATOM     31  C   UNL     1       3.032   4.259  18.327  0.00  0.00    +0.000 C 
ENDBRANCH  23  26
ENDBRANCH   3  20
TORSDOF 5
ENDMDL
MODEL 3
REMARK VINA RESULT:      -8.8      0.503      1.024
REMARK  Name = 
REMARK  5 active torsions:
REMARK  status: ('A' for Active; 'I' for Inactive)
REMARK    1  A    between atoms: N_1  and  S_2
REMARK    2  A    between atoms: S_2  and  C_5
REMARK    3  A    between atoms: C_8  and  N_9
REMARK    4  A    between atoms: C_11  and  C_12
REMARK    5  A    between atoms: C_15  and  C_16
REMARK                            x       y       z     vdW  Elec       q    Type
REMARK                         _______ _______ _______ _____ _____    ______ ____
ROOT
ATOM      1  N   UNL     1      -0.931  11.992  18.947  0.00  0.00    +0.000 N 
ATOM      2  N   UNL     1      -0.405  10.732  19.194  0.00  0.00    +0.000 NA
ATOM      3  C   UNL     1       0.880  10.573  19.089  0.00  0.00    +0.000 A 
ATOM      4  C   UNL     1       1.831  11.676  18.880  0.00  0.00    +0.000 A 
ATOM      5  C   UNL     1       1.313  12.861  18.573  0.00  0.00    +0.000 A 
ATOM      6  C   UNL     1      -0.148  13.069  18.517  0.00  0.00    +0.000 A 
ATOM      7  O   UNL     1      -0.523  14.190  18.176  0.00  0.00    +0.000 OA
ENDROOT
BRANCH   1  11
ATOM      8  C   UNL     1      -5.124  12.058  19.645  0.00  0.00    +0.000 A 
ATOM      9  C   UNL     1      -4.270  12.688  20.547  0.00  0.00    +0.000 A 
ATOM     10  C   UNL     1      -2.894  12.704  20.295  0.00  0.00    +0.000 A 
ATOM     11  C   UNL     1      -2.349  12.092  19.154  0.00  0.00    +0.000 A 
ATOM     12  C   UNL     1      -3.241  11.518  18.230  0.00  0.00    +0.000 A 
ATOM     13  C   UNL     1      -4.620  11.483  18.478  0.00  0.00    +0.000 A 
BRANCH   8  14
ATOM     14  S   UNL     1      -6.857  11.998  19.983  0.00  0.00    +0.000 S 
ATOM     15  O   UNL     1      -7.460  13.243  19.572  0.00  0.00    +0.000 OA
ATOM     16  O   UNL     1      -7.074  11.423  21.291  0.00  0.00    +0.000 OA
BRANCH  14  17
ATOM     17  N   UNL     1      -7.382  10.832  18.894  0.00  0.00    +0.000 NA
ATOM     18  H   UNL     1      -6.624  10.175  18.706  0.00  0.00    +0.000 HD
ATOM     19  H   UNL     1      -7.764  11.276  18.060  0.00  0.00    +0.000 HD
ENDBRANCH  14  17
ENDBRANCH   8  14
ENDBRANCH   1  11
BRANCH   3  20
ATOM     20  C   UNL     1       1.461   9.197  19.186  0.00  0.00    +0.000 A 
ATOM     21  C   UNL     1       2.038   8.558  18.082  0.00  0.00    +0.000 A 
ATOM     22  C   UNL     1       2.536   7.258  18.196  0.00  0.00    +0.000 A 
ATOM     23  C   UNL     1       2.461   6.552  19.407  0.00  0.00    +0.000 A 
ATOM     24  C   UNL     1       1.821   7.181  20.484  0.00  0.00    +0.000 A 
ATOM     25  C   UNL     1       1.346   8.492  20.385  0.00  0.00    +0.000 A 
BRANCH  23  26
ATOM     26  C   UNL     1       3.046   5.143  19.470  0.00  0.00    +0.000 C 
ATOM     27  C   UNL     1       2.457   4.325  20.640  0.00  0.00    +0.000 C 
ATOM     28  C   UNL     1       1.029   3.860  20.368  0.00  0.00    +0.000 C 
ATOM     29  C   UNL     1       0.929   3.050  19.080  0.00  0.00    +0.000 C 
ATOM     30  C   UNL     1       1.564   3.750  17.884  0.00  0.00    +0.000 C 
ATOM     31  C   UNL     1       2.960   4.303  18.181  0.00  0.00    +0.000 C 
ENDBRANCH  23  26
ENDBRANCH   3  20
TORSDOF 5
ENDMDL
MODEL 4
REMARK VINA RESULT:      -8.7      2.184      2.751
REMARK  Name = 
REMARK  5 active torsions:
REMARK  status: ('A' for Active; 'I' for Inactive)
REMARK    1  A    between atoms: N_1  and  S_2
REMARK    2  A    between atoms: S_2  and  C_5
REMARK    3  A    between atoms: C_8  and  N_9
REMARK    4  A    between atoms: C_11  and  C_12
REMARK    5  A    between atoms: C_15  and  C_16
REMARK                            x       y       z     vdW  Elec       q    Type
REMARK                         _______ _______ _______ _____ _____    ______ ____
ROOT
ATOM      1  N   UNL     1      -0.778  12.077  20.027  0.00  0.00    +0.000 N 
ATOM      2  N   UNL     1      -0.167  10.833  20.090  0.00  0.00    +0.000 NA
ATOM      3  C   UNL     1       0.929  10.653  19.416  0.00  0.00    +0.000 A 
ATOM      4  C   UNL     1       1.650  11.728  18.717  0.00  0.00    +0.000 A 
ATOM      5  C   UNL     1       1.021  12.893  18.602  0.00  0.00    +0.000 A 
ATOM      6  C   UNL     1      -0.307  13.112  19.213  0.00  0.00    +0.000 A 
ATOM      7  O   UNL     1      -0.824  14.209  19.007  0.00  0.00    +0.000 OA
ENDROOT
BRANCH   1  11
ATOM      8  C   UNL     1      -4.146  12.685  22.550  0.00  0.00    +0.000 A 
ATOM      9  C   UNL     1      -4.286  12.838  21.173  0.00  0.00    +0.000 A 
ATOM     10  C   UNL     1      -3.189  12.596  20.339  0.00  0.00    +0.000 A 
ATOM     11  C   UNL     1      -1.943  12.207  20.857  0.00  0.00    +0.000 A 
ATOM     12  C   UNL     1      -1.848  12.000  22.247  0.00  0.00    +0.000 A 
ATOM     13  C   UNL     1      -2.935  12.253  23.094  0.00  0.00    +0.000 A 
BRANCH   8  14
ATOM     14  S   UNL     1      -5.517  13.032  23.609  0.00  0.00    +0.000 S 
ATOM     15  O   UNL     1      -6.689  12.367  23.095  0.00  0.00    +0.000 OA
ATOM     16  O   UNL     1      -5.509  14.433  23.962  0.00  0.00    +0.000 OA
BRANCH  14  17
ATOM     17  N   UNL     1      -5.084  12.219  25.014  0.00  0.00    +0.000 NA
ATOM     18  H   UNL     1      -5.784  12.392  25.736  0.00  0.00    +0.000 HD
ATOM     19  H   UNL     1      -4.134  12.469  25.286  0.00  0.00    +0.000 HD
ENDBRANCH  14  17
ENDBRANCH   8  14
ENDBRANCH   1  11
BRANCH   3  20
ATOM     20  C   UNL     1       1.521   9.281  19.329  0.00  0.00    +0.000 A 
ATOM     21  C   UNL     1       2.053   8.780  18.134  0.00  0.00    +0.000 A 
ATOM     22  C   UNL     1       2.563   7.481  18.076  0.00  0.00    +0.000 A 
ATOM     23  C   UNL     1       2.547   6.640  19.199  0.00  0.00    +0.000 A 
ATOM     24  C   UNL     1       1.952   7.134  20.369  0.00  0.00    +0.000 A 
ATOM     25  C   UNL     1       1.465   8.443  20.442  0.00  0.00    +0.000 A 
BRANCH  23  26
ATOM     26  C   UNL     1       3.142   5.240  19.075  0.00  0.00    +0.000 C 
ATOM     27  C   UNL     1       2.738   4.332  20.257  0.00  0.00    +0.000 C 
ATOM     28  C   UNL     1       1.288   3.865  20.166  0.00  0.00    +0.000 C 
ATOM     29  C   UNL     1       1.003   3.146  18.852  0.00  0.00    +0.000 C 
ATOM     30  C   UNL     1       1.449   3.938  17.628  0.00  0.00    +0.000 C 
ATOM     31  C   UNL     1       2.871   4.491  17.755  0.00  0.00    +0.000 C 
ENDBRANCH  23  26
ENDBRANCH   3  20
TORSDOF 5
ENDMDL
MODEL 5
REMARK VINA RESULT:      -8.7      0.927      1.149
REMARK  Name = 
REMARK  5 active torsions:
REMARK  status: ('A' for Active; 'I' for Inactive)
REMARK    1  A    between atoms: N_1  and  S_2
REMARK    2  A    between atoms: S_2  and  C_5
REMARK    3  A    between atoms: C_8  and  N_9
REMARK    4  A    between atoms: C_11  and  C_12
REMARK    5  A    between atoms: C_15  and  C_16
REMARK                            x       y       z     vdW  Elec       q    Type
REMARK                         _______ _______ _______ _____ _____    ______ ____
ROOT
ATOM      1  N   UNL     1      -1.006  12.106  19.086  0.00  0.00    +0.000 N 
ATOM      2  N   UNL     1      -0.498  10.836  19.316  0.00  0.00    +0.000 NA
ATOM      3  C   UNL     1       0.779  10.650  19.166  0.00  0.00    +0.000 A 
ATOM      4  C   UNL     1       1.745  11.733  18.923  0.00  0.00    +0.000 A 
ATOM      5  C   UNL     1       1.241  12.929  18.634  0.00  0.00    +0.000 A 
ATOM      6  C   UNL     1      -0.217  13.167  18.630  0.00  0.00    +0.000 A 
ATOM      7  O   UNL     1      -0.580  14.296  18.302  0.00  0.00    +0.000 OA
ENDROOT
BRANCH   1  11
ATOM      8  C   UNL     1      -5.172  12.256  19.924  0.00  0.00    +0.000 A 
ATOM      9  C   UNL     1      -4.273  12.835  20.816  0.00  0.00    +0.000 A 
ATOM     10  C   UNL     1      -2.906  12.825  20.520  0.00  0.00    +0.000 A 
ATOM     11  C   UNL     1      -2.413  12.236  19.343  0.00  0.00    +0.000 A 
ATOM     12  C   UNL     1      -3.350  11.713  18.432  0.00  0.00    +0.000 A 
ATOM     13  C   UNL     1      -4.720  11.705  18.724  0.00  0.00    +0.000 A 
BRANCH   8  14
ATOM     14  S   UNL     1      -6.894  12.229  20.317  0.00  0.00    +0.000 S 
ATOM     15  O   UNL     1      -7.106  11.356  21.445  0.00  0.00    +0.000 OA
ATOM     16  O   UNL     1      -7.664  12.128  19.099  0.00  0.00    +0.000 OA
BRANCH  14  17
ATOM     17  N   UNL     1      -7.147  13.795  20.872  0.00  0.00    +0.000 NA
ATOM     18  H   UNL     1      -7.955  14.198  20.397  0.00  0.00    +0.000 HD
ATOM     19  H   UNL     1      -6.293  14.343  20.778  0.00  0.00    +0.000 HD
ENDBRANCH  14  17
ENDBRANCH   8  14
ENDBRANCH   1  11
BRANCH   3  20
ATOM     20  C   UNL     1       1.334   9.262  19.242  0.00  0.00    +0.000 A 
ATOM     21  C   UNL     1       1.348   8.537  20.439  0.00  0.00    +0.000 A 
ATOM     22  C   UNL     1       1.909   7.257  20.486  0.00  0.00    +0.000 A 
ATOM     23  C   UNL     1       2.483   6.671  19.348  0.00  0.00    +0.000 A 
ATOM     24  C   UNL     1       2.519   7.437  18.174  0.00  0.00    +0.000 A 
ATOM     25  C   UNL     1       1.935   8.706  18.113  0.00  0.00    +0.000 A 
BRANCH  23  26
ATOM     26  C   UNL     1       3.057   5.261  19.461  0.00  0.00    +0.000 C 
ATOM     27  C   UNL     1       2.428   4.472  20.630  0.00  0.00    +0.000 C 
ATOM     28  C   UNL     1       1.006   4.009  20.324  0.00  0.00    +0.000 C 
ATOM     29  C   UNL     1       0.941   3.171  19.051  0.00  0.00    +0.000 C 
ATOM     30  C   UNL     1       1.617   3.841  17.860  0.00  0.00    +0.000 C 
ATOM     31  C   UNL     1       3.007   4.393  18.188  0.00  0.00    +0.000 C 
ENDBRANCH  23  26
ENDBRANCH   3  20
TORSDOF 5
ENDMDL
MODEL 6
REMARK VINA RESULT:      -8.7      0.365      1.315
REMARK  Name = 
REMARK  5 active torsions:
REMARK  status: ('A' for Active; 'I' for Inactive)
REMARK    1  A    between atoms: N_1  and  S_2
REMARK    2  A    between atoms: S_2  and  C_5
REMARK    3  A    between atoms: C_8  and  N_9
REMARK    4  A    between atoms: C_11  and  C_12
REMARK    5  A    between atoms: C_15  and  C_16
REMARK                            x       y       z     vdW  Elec       q    Type
REMARK                         _______ _______ _______ _____ _____    ______ ____
ROOT
ATOM      1  N   UNL     1      -1.086  11.939  18.958  0.00  0.00    +0.000 N 
ATOM      2  N   UNL     1      -0.526  10.691  19.187  0.00  0.00    +0.000 NA
ATOM      3  C   UNL     1       0.768  10.582  19.144  0.00  0.00    +0.000 A 
ATOM      4  C   UNL     1       1.686  11.726  19.026  0.00  0.00    +0.000 A 
ATOM      5  C   UNL     1       1.140  12.902  18.735  0.00  0.00    +0.000 A 
ATOM      6  C   UNL     1      -0.324  13.059  18.610  0.00  0.00    +0.000 A 
ATOM      7  O   UNL     1      -0.723  14.179  18.291  0.00  0.00    +0.000 OA
ENDROOT
BRANCH   1  11
ATOM      8  C   UNL     1      -5.311  12.294  19.277  0.00  0.00    +0.000 A 
ATOM      9  C   UNL     1      -4.761  11.606  18.198  0.00  0.00    +0.000 A 
ATOM     10  C   UNL     1      -3.373  11.451  18.116  0.00  0.00    +0.000 A 
ATOM     11  C   UNL     1      -2.515  11.981  19.094  0.00  0.00    +0.000 A 
ATOM     12  C   UNL     1      -3.102  12.617  20.204  0.00  0.00    +0.000 A 
ATOM     13  C   UNL     1      -4.490  12.790  20.290  0.00  0.00    +0.000 A 
BRANCH   8  14
ATOM     14  S   UNL     1      -7.060  12.528  19.361  0.00  0.00    +0.000 S 
ATOM     15  O   UNL     1      -7.531  13.019  18.089  0.00  0.00    +0.000 OA
ATOM     16  O   UNL     1      -7.401  13.161  20.614  0.00  0.00    +0.000 OA
BRANCH  14  17
ATOM     17  N   UNL     1      -7.615  10.948  19.497  0.00  0.00    +0.000 NA
ATOM     18  H   UNL     1      -8.111  10.837  20.383  0.00  0.00    +0.000 HD
ATOM     19  H   UNL     1      -6.845  10.293  19.366  0.00  0.00    +0.000 HD
ENDBRANCH  14  17
ENDBRANCH   8  14
ENDBRANCH   1  11
BRANCH   3  20
ATOM     20  C   UNL     1       1.394   9.225  19.221  0.00  0.00    +0.000 A 
ATOM     21  C   UNL     1       1.969   8.611  18.102  0.00  0.00    +0.000 A 
ATOM     22  C   UNL     1       2.511   7.327  18.198  0.00  0.00    +0.000 A 
ATOM     23  C   UNL     1       2.484   6.613  19.405  0.00  0.00    +0.000 A 
ATOM     24  C   UNL     1       1.847   7.216  20.500  0.00  0.00    +0.000 A 
ATOM     25  C   UNL     1       1.328   8.511  20.417  0.00  0.00    +0.000 A 
BRANCH  23  26
ATOM     26  C   UNL     1       3.115   5.223  19.449  0.00  0.00    +0.000 C 
ATOM     27  C   UNL     1       2.513   4.350  20.571  0.00  0.00    +0.000 C 
ATOM     28  C   UNL     1       1.113   3.845  20.232  0.00  0.00    +0.000 C 
ATOM     29  C   UNL     1       1.089   3.073  18.917  0.00  0.00    +0.000 C 
ATOM     30  C   UNL     1       1.742   3.831  17.767  0.00  0.00    +0.000 C 
ATOM     31  C   UNL     1       3.106   4.421  18.132  0.00  0.00    +0.000 C 
ENDBRANCH  23  26
ENDBRANCH   3  20
TORSDOF 5
ENDMDL
MODEL 7
REMARK VINA RESULT:      -8.6      2.194      2.768
REMARK  Name = 
REMARK  5 active torsions:
REMARK  status: ('A' for Active; 'I' for Inactive)
REMARK    1  A    between atoms: N_1  and  S_2
REMARK    2  A    between atoms: S_2  and  C_5
REMARK    3  A    between atoms: C_8  and  N_9
REMARK    4  A    between atoms: C_11  and  C_12
REMARK    5  A    between atoms: C_15  and  C_16
REMARK                            x       y       z     vdW  Elec       q    Type
REMARK                         _______ _______ _______ _____ _____    ______ ____
ROOT
ATOM      1  N   UNL     1      -0.610  12.105  19.985  0.00  0.00    +0.000 N 
ATOM      2  N   UNL     1      -0.044  10.849  20.150  0.00  0.00    +0.000 NA
ATOM      3  C   UNL     1       0.993  10.544  19.430  0.00  0.00    +0.000 A 
ATOM      4  C   UNL     1       1.705  11.500  18.566  0.00  0.00    +0.000 A 
ATOM      5  C   UNL     1       1.114  12.673  18.361  0.00  0.00    +0.000 A 
ATOM      6  C   UNL     1      -0.157  13.020  19.028  0.00  0.00    +0.000 A 
ATOM      7  O   UNL     1      -0.644  14.110  18.733  0.00  0.00    +0.000 OA
ENDROOT
BRANCH   1  11
ATOM      8  C   UNL     1      -3.939  12.691  22.563  0.00  0.00    +0.000 A 
ATOM      9  C   UNL     1      -2.684  12.445  23.112  0.00  0.00    +0.000 A 
ATOM     10  C   UNL     1      -1.580  12.295  22.266  0.00  0.00    +0.000 A 
ATOM     11  C   UNL     1      -1.707  12.381  20.869  0.00  0.00    +0.000 A 
ATOM     12  C   UNL     1      -2.977  12.692  20.346  0.00  0.00    +0.000 A 
ATOM     13  C   UNL     1      -4.092  12.830  21.183  0.00  0.00    +0.000 A 
BRANCH   8  14
ATOM     14  S   UNL     1      -5.342  12.838  23.627  0.00  0.00    +0.000 S 
ATOM     15  O   UNL     1      -5.159  11.975  24.769  0.00  0.00    +0.000 OA
ATOM     16  O   UNL     1      -6.550  12.833  22.834  0.00  0.00    +0.000 OA
BRANCH  14  17
ATOM     17  N   UNL     1      -5.187  14.413  24.189  0.00  0.00    +0.000 NA
ATOM     18  H   UNL     1      -6.105  14.770  24.458  0.00  0.00    +0.000 HD
ATOM     19  H   UNL     1      -4.703  14.987  23.499  0.00  0.00    +0.000 HD
ENDBRANCH  14  17
ENDBRANCH   8  14
ENDBRANCH   1  11
BRANCH   3  20
ATOM     20  C   UNL     1       1.525   9.145  19.461  0.00  0.00    +0.000 A 
ATOM     21  C   UNL     1       2.069   8.536  18.325  0.00  0.00    +0.000 A 
ATOM     22  C   UNL     1       2.521   7.215  18.377  0.00  0.00    +0.000 A 
ATOM     23  C   UNL     1       2.431   6.460  19.556  0.00  0.00    +0.000 A 
ATOM     24  C   UNL     1       1.824   7.063  20.666  0.00  0.00    +0.000 A 
ATOM     25  C   UNL     1       1.395   8.394  20.629  0.00  0.00    +0.000 A 
BRANCH  23  26
ATOM     26  C   UNL     1       2.966   5.030  19.553  0.00  0.00    +0.000 C 
ATOM     27  C   UNL     1       2.352   4.180  20.687  0.00  0.00    +0.000 C 
ATOM     28  C   UNL     1       0.907   3.779  20.400  0.00  0.00    +0.000 C 
ATOM     29  C   UNL     1       0.774   3.034  19.077  0.00  0.00    +0.000 C 
ATOM     30  C   UNL     1       1.430   3.764  17.911  0.00  0.00    +0.000 C 
ATOM     31  C   UNL     1       2.846   4.253  18.226  0.00  0.00    +0.000 C 
ENDBRANCH  23  26
ENDBRANCH   3  20
TORSDOF 5
ENDMDL
MODEL 8
REMARK VINA RESULT:      -8.6      2.092      2.601
REMARK  Name = 
REMARK  5 active torsions:
REMARK  status: ('A' for Active; 'I' for Inactive)
REMARK    1  A    between atoms: N_1  and  S_2
REMARK    2  A    between atoms: S_2  and  C_5
REMARK    3  A    between atoms: C_8  and  N_9
REMARK    4  A    between atoms: C_11  and  C_12
REMARK    5  A    between atoms: C_15  and  C_16
REMARK                            x       y       z     vdW  Elec       q    Type
REMARK                         _______ _______ _______ _____ _____    ______ ____
ROOT
ATOM      1  N   UNL     1      -0.941  12.161  20.036  0.00  0.00    +0.000 N 
ATOM      2  N   UNL     1      -0.367  10.902  20.133  0.00  0.00    +0.000 NA
ATOM      3  C   UNL     1       0.753  10.688  19.510  0.00  0.00    +0.000 A 
ATOM      4  C   UNL     1       1.533  11.739  18.838  0.00  0.00    +0.000 A 
ATOM      5  C   UNL     1       0.942  12.919  18.689  0.00  0.00    +0.000 A 
ATOM      6  C   UNL     1      -0.406  13.177  19.238  0.00  0.00    +0.000 A 
ATOM      7  O   UNL     1      -0.883  14.287  19.003  0.00  0.00    +0.000 OA
ENDROOT
BRANCH   1  11
ATOM      8  C   UNL     1      -4.418  12.888  22.371  0.00  0.00    +0.000 A 
ATOM      9  C   UNL     1      -4.520  12.860  20.983  0.00  0.00    +0.000 A 
ATOM     10  C   UNL     1      -3.385  12.578  20.215  0.00  0.00    +0.000 A 
ATOM     11  C   UNL     1      -2.138  12.327  20.812  0.00  0.00    +0.000 A 
ATOM     12  C   UNL     1      -2.079  12.300  22.218  0.00  0.00    +0.000 A 
ATOM     13  C   UNL     1      -3.205  12.596  22.997  0.00  0.00    +0.000 A 
BRANCH   8  14
ATOM     14  S   UNL     1      -5.840  13.286  23.341  0.00  0.00    +0.000 S 
ATOM     15  O   UNL     1      -6.131  12.184  24.225  0.00  0.00    +0.000 OA
ATOM     16  O   UNL     1      -6.844  13.893  22.498  0.00  0.00    +0.000 OA
BRANCH  14  17
ATOM     17  N   UNL     1      -5.261  14.533  24.308  0.00  0.00    +0.000 NA
ATOM     18  H   UNL     1      -4.290  14.345  24.560  0.00  0.00    +0.000 HD
ATOM     19  H   UNL     1      -5.879  14.674  25.107  0.00  0.00    +0.000 HD
ENDBRANCH  14  17
ENDBRANCH   8  14
ENDBRANCH   1  11
BRANCH   3  20
ATOM     20  C   UNL     1       1.311   9.300  19.457  0.00  0.00    +0.000 A 
ATOM     21  C   UNL     1       1.364   8.481  20.590  0.00  0.00    +0.000 A 
ATOM     22  C   UNL     1       1.928   7.204  20.516  0.00  0.00    +0.000 A 
ATOM     23  C   UNL     1       2.466   6.714  19.317  0.00  0.00    +0.000 A 
ATOM     24  C   UNL     1       2.464   7.572  18.208  0.00  0.00    +0.000 A 
ATOM     25  C   UNL     1       1.877   8.839  18.268  0.00  0.00    +0.000 A 
BRANCH  23  26
ATOM     26  C   UNL     1       3.045   5.301  19.298  0.00  0.00    +0.000 C 
ATOM     27  C   UNL     1       2.491   4.433  20.448  0.00  0.00    +0.000 C 
ATOM     28  C   UNL     1       1.052   3.987  20.202  0.00  0.00    +0.000 C 
ATOM     29  C   UNL     1       0.906   3.237  18.882  0.00  0.00    +0.000 C 
ATOM     30  C   UNL     1       1.505   3.987  17.699  0.00  0.00    +0.000 C 
ATOM     31  C   UNL     1       2.914   4.521  17.975  0.00  0.00    +0.000 C 
ENDBRANCH  23  26
ENDBRANCH   3  20
TORSDOF 5
ENDMDL
MODEL 9
REMARK VINA RESULT:      -8.5      0.778      1.351
REMARK  Name = 
REMARK  5 active torsions:
REMARK  status: ('A' for Active; 'I' for Inactive)
REMARK    1  A    between atoms: N_1  and  S_2
REMARK    2  A    between atoms: S_2  and  C_5
REMARK    3  A    between atoms: C_8  and  N_9
REMARK    4  A    between atoms: C_11  and  C_12
REMARK    5  A    between atoms: C_15  and  C_16
REMARK                            x       y       z     vdW  Elec       q    Type
REMARK                         _______ _______ _______ _____ _____    ______ ____
ROOT
ATOM      1  N   UNL     1      -1.068  11.862  18.830  0.00  0.00    +0.000 N 
ATOM      2  N   UNL     1      -0.550  10.600  19.081  0.00  0.00    +0.000 NA
ATOM      3  C   UNL     1       0.741  10.458  19.094  0.00  0.00    +0.000 A 
ATOM      4  C   UNL     1       1.692  11.578  19.016  0.00  0.00    +0.000 A 
ATOM      5  C   UNL     1       1.189  12.768  18.703  0.00  0.00    +0.000 A 
ATOM      6  C   UNL     1      -0.263  12.963  18.517  0.00  0.00    +0.000 A 
ATOM      7  O   UNL     1      -0.620  14.092  18.182  0.00  0.00    +0.000 OA
ENDROOT
BRANCH   1  11
ATOM      8  C   UNL     1      -5.291  12.328  18.981  0.00  0.00    +0.000 A 
ATOM      9  C   UNL     1      -4.713  11.675  17.896  0.00  0.00    +0.000 A 
ATOM     10  C   UNL     1      -3.328  11.483  17.866  0.00  0.00    +0.000 A 
ATOM     11  C   UNL     1      -2.500  11.940  18.905  0.00  0.00    +0.000 A 
ATOM     12  C   UNL     1      -3.119  12.540  20.018  0.00  0.00    +0.000 A 
ATOM     13  C   UNL     1      -4.503  12.751  20.052  0.00  0.00    +0.000 A 
BRANCH   8  14
ATOM     14  S   UNL     1      -7.035  12.610  19.000  0.00  0.00    +0.000 S 
ATOM     15  O   UNL     1      -7.659  11.645  19.872  0.00  0.00    +0.000 OA
ATOM     16  O   UNL     1      -7.498  12.855  17.654  0.00  0.00    +0.000 OA
BRANCH  14  17
ATOM     17  N   UNL     1      -7.137  14.094  19.780  0.00  0.00    +0.000 NA
ATOM     18  H   UNL     1      -7.252  13.944  20.783  0.00  0.00    +0.000 HD
ATOM     19  H   UNL     1      -7.871  14.663  19.358  0.00  0.00    +0.000 HD
ENDBRANCH  14  17
ENDBRANCH   8  14
ENDBRANCH   1  11
BRANCH   3  20
ATOM     20  C   UNL     1       1.329   9.086  19.196  0.00  0.00    +0.000 A 
ATOM     21  C   UNL     1       1.356   8.381  20.405  0.00  0.00    +0.000 A 
ATOM     22  C   UNL     1       1.947   7.116  20.475  0.00  0.00    +0.000 A 
ATOM     23  C   UNL     1       2.540   6.525  19.349  0.00  0.00    +0.000 A 
ATOM     24  C   UNL     1       2.562   7.272  18.163  0.00  0.00    +0.000 A 
ATOM     25  C   UNL     1       1.948   8.525  18.078  0.00  0.00    +0.000 A 
BRANCH  23  26
ATOM     26  C   UNL     1       3.147   5.132  19.488  0.00  0.00    +0.000 C 
ATOM     27  C   UNL     1       2.468   4.313  20.608  0.00  0.00    +0.000 C 
ATOM     28  C   UNL     1       1.083   3.812  20.208  0.00  0.00    +0.000 C 
ATOM     29  C   UNL     1       1.125   2.985  18.927  0.00  0.00    +0.000 C 
ATOM     30  C   UNL     1       1.855   3.685  17.787  0.00  0.00    +0.000 C 
ATOM     31  C   UNL     1       3.204   4.274  18.208  0.00  0.00    +0.000 C 
ENDBRANCH  23  26
ENDBRANCH   3  20
TORSDOF 5
ENDMDL
