MODEL 1
REMARK VINA RESULT:      -7.4      0.000      0.000
REMARK  Name = 
REMARK  9 active torsions:
REMARK  status: ('A' for Active; 'I' for Inactive)
REMARK    1  A    between atoms: C_1  and  O_2
REMARK    2  A    between atoms: O_2  and  C_3
REMARK    3  A    between atoms: C_3  and  C_5
REMARK    4  A    between atoms: C_8  and  C_9
REMARK    5  A    between atoms: C_9  and  S_10
REMARK    6  A    between atoms: S_10  and  C_11
REMARK    7  A    between atoms: C_16  and  C_18
REMARK    8  A    between atoms: C_18  and  C_19
REMARK    9  A    between atoms: C_18  and  C_20
REMARK                            x       y       z     vdW  Elec       q    Type
REMARK                         _______ _______ _______ _____ _____    ______ ____
ROOT
ATOM      1  C   UNL     1       6.665   6.484  17.160  0.00  0.00    +0.000 A 
ATOM      2  C   UNL     1       7.464   6.045  18.205  0.00  0.00    +0.000 A 
ATOM      3  C   UNL     1       8.300   6.947  18.873  0.00  0.00    +0.000 A 
ATOM      4  C   UNL     1       8.325   8.274  18.475  0.00  0.00    +0.000 A 
ATOM      5  N   UNL     1       9.148   9.164  19.199  0.00  0.00    +0.000 N 
ATOM      6  C   UNL     1       9.269  10.511  18.911  0.00  0.00    +0.000 C 
ATOM      7  O   UNL     1       8.712  11.087  17.981  0.00  0.00    +0.000 OA
ATOM      8  N   UNL     1       7.553   8.666  17.444  0.00  0.00    +0.000 NA
ATOM      9  N   UNL     1       6.712   7.769  16.779  0.00  0.00    +0.000 NA
ATOM     10  H   UNL     1       9.654   8.790  19.987  0.00  0.00    +0.000 HD
ENDROOT
BRANCH   6  11
ATOM     11  C   UNL     1      10.158  11.285  19.900  0.00  0.00    +0.000 C 
ATOM     12  C   UNL     1      11.513  11.654  19.298  0.00  0.00    +0.000 C 
ATOM     13  C   UNL     1       9.441  12.560  20.360  0.00  0.00    +0.000 C 
ENDBRANCH   6  11
BRANCH   1  14
ATOM     14  S   UNL     1       5.563   5.319  16.389  0.00  0.00    +0.000 S 
BRANCH  14  15
ATOM     15  C   UNL     1       5.384   4.021  17.665  0.00  0.00    +0.000 C 
BRANCH  15  19
ATOM     16  C   UNL     1       2.812   4.029  20.200  0.00  0.00    +0.000 A 
ATOM     17  C   UNL     1       2.786   5.388  19.959  0.00  0.00    +0.000 A 
ATOM     18  C   UNL     1       3.736   5.645  18.940  0.00  0.00    +0.000 A 
ATOM     19  C   UNL     1       4.305   4.429  18.616  0.00  0.00    +0.000 A 
ATOM     20  O   UNL     1       3.737   3.441  19.372  0.00  0.00    +0.000 OA
BRANCH  16  21
ATOM     21  C   UNL     1       2.052   3.228  21.135  0.00  0.00    +0.000 C 
ATOM     22  O   UNL     1       2.496   2.741  22.171  0.00  0.00    +0.000 OA
BRANCH  21  24
ATOM     23  C   UNL     1       0.622   2.532  19.403  0.00  0.00    +0.000 C 
ATOM     24  O   UNL     1       0.764   3.089  20.711  0.00  0.00    +0.000 OA
ENDBRANCH  21  24
ENDBRANCH  16  21
ENDBRANCH  15  19
ENDBRANCH  14  15
ENDBRANCH   1  14
TORSDOF 6
ENDMDL
MODEL 2
REMARK VINA RESULT:      -7.3      0.824      1.064
REMARK  Name = 
REMARK  9 active torsions:
REMARK  status: ('A' for Active; 'I' for Inactive)
REMARK    1  A    between atoms: C_1  and  O_2
REMARK    2  A    between atoms: O_2  and  C_3
REMARK    3  A    between atoms: C_3  and  C_5
REMARK    4  A    between atoms: C_8  and  C_9
REMARK    5  A    between atoms: C_9  and  S_10
REMARK    6  A    between atoms: S_10  and  C_11
REMARK    7  A    between atoms: C_16  and  C_18
REMARK    8  A    between atoms: C_18  and  C_19
REMARK    9  A    between atoms: C_18  and  C_20
REMARK                            x       y       z     vdW  Elec       q    Type
REMARK                         _______ _______ _______ _____ _____    ______ ____
ROOT
ATOM      1  C   UNL     1       6.704   6.268  17.152  0.00  0.00    +0.000 A 
ATOM      2  C   UNL     1       7.470   5.871  18.238  0.00  0.00    +0.000 A 
ATOM      3  C   UNL     1       8.270   6.803  18.907  0.00  0.00    +0.000 A 
ATOM      4  C   UNL     1       8.295   8.118  18.471  0.00  0.00    +0.000 A 
ATOM      5  N   UNL     1       9.080   9.040  19.195  0.00  0.00    +0.000 N 
ATOM      6  C   UNL     1       9.197  10.379  18.872  0.00  0.00    +0.000 C 
ATOM      7  O   UNL     1       8.667  10.919  17.904  0.00  0.00    +0.000 OA
ATOM      8  N   UNL     1       7.556   8.469  17.400  0.00  0.00    +0.000 NA
ATOM      9  N   UNL     1       6.750   7.542  16.734  0.00  0.00    +0.000 NA
ATOM     10  H   UNL     1       9.563   8.695  20.012  0.00  0.00    +0.000 HD
ENDROOT
BRANCH   6  11
ATOM     11  C   UNL     1      10.040  11.193  19.867  0.00  0.00    +0.000 C 
ATOM     12  C   UNL     1      10.544  12.504  19.266  0.00  0.00    +0.000 C 
ATOM     13  C   UNL     1       9.217  11.494  21.126  0.00  0.00    +0.000 C 
ENDBRANCH   6  11
BRANCH   1  14
ATOM     14  S   UNL     1       5.644   5.067  16.378  0.00  0.00    +0.000 S 
BRANCH  14  15
ATOM     15  C   UNL     1       4.051   5.310  17.244  0.00  0.00    +0.000 C 
BRANCH  15  19
ATOM     16  C   UNL     1       2.908   3.330  20.039  0.00  0.00    +0.000 A 
ATOM     17  C   UNL     1       4.143   2.722  19.922  0.00  0.00    +0.000 A 
ATOM     18  C   UNL     1       4.822   3.367  18.859  0.00  0.00    +0.000 A 
ATOM     19  C   UNL     1       3.962   4.331  18.370  0.00  0.00    +0.000 A 
ATOM     20  O   UNL     1       2.801   4.321  19.092  0.00  0.00    +0.000 OA
BRANCH  16  21
ATOM     21  C   UNL     1       1.818   3.069  20.954  0.00  0.00    +0.000 C 
ATOM     22  O   UNL     1       1.939   2.886  22.161  0.00  0.00    +0.000 OA
BRANCH  21  24
ATOM     23  C   UNL     1       0.613   2.258  19.104  0.00  0.00    +0.000 C 
ATOM     24  O   UNL     1       0.628   3.056  20.289  0.00  0.00    +0.000 OA
ENDBRANCH  21  24
ENDBRANCH  16  21
ENDBRANCH  15  19
ENDBRANCH  14  15
ENDBRANCH   1  14
TORSDOF 6
ENDMDL
MODEL 3
REMARK VINA RESULT:      -7.3      0.883      1.345
REMARK  Name = 
REMARK  9 active torsions:
REMARK  status: ('A' for Active; 'I' for Inactive)
REMARK    1  A    between atoms: C_1  and  O_2
REMARK    2  A    between atoms: O_2  and  C_3
REMARK    3  A    between atoms: C_3  and  C_5
REMARK    4  A    between atoms: C_8  and  C_9
REMARK    5  A    between atoms: C_9  and  S_10
REMARK    6  A    between atoms: S_10  and  C_11
REMARK    7  A    between atoms: C_16  and  C_18
REMARK    8  A    between atoms: C_18  and  C_19
REMARK    9  A    between atoms: C_18  and  C_20
REMARK                            x       y       z     vdW  Elec       q    Type
REMARK                         _______ _______ _______ _____ _____    ______ ____
ROOT
ATOM      1  C   UNL     1       6.914   6.378  17.120  0.00  0.00    +0.000 A 
ATOM      2  C   UNL     1       7.621   6.027  18.261  0.00  0.00    +0.000 A 
ATOM      3  C   UNL     1       8.369   6.992  18.944  0.00  0.00    +0.000 A 
ATOM      4  C   UNL     1       8.400   8.293  18.468  0.00  0.00    +0.000 A 
ATOM      5  N   UNL     1       9.130   9.249  19.206  0.00  0.00    +0.000 N 
ATOM      6  C   UNL     1       9.246  10.579  18.846  0.00  0.00    +0.000 C 
ATOM      7  O   UNL     1       8.765  11.080  17.834  0.00  0.00    +0.000 OA
ATOM      8  N   UNL     1       7.719   8.599  17.346  0.00  0.00    +0.000 NA
ATOM      9  N   UNL     1       6.966   7.639  16.665  0.00  0.00    +0.000 NA
ATOM     10  H   UNL     1       9.569   8.938  20.060  0.00  0.00    +0.000 HD
ENDROOT
BRANCH   6  11
ATOM     11  C   UNL     1      10.019  11.438  19.862  0.00  0.00    +0.000 C 
ATOM     12  C   UNL     1      10.037  12.917  19.479  0.00  0.00    +0.000 C 
ATOM     13  C   UNL     1       9.402  11.281  21.257  0.00  0.00    +0.000 C 
ENDBRANCH   6  11
BRANCH   1  14
ATOM     14  S   UNL     1       5.917   5.136  16.327  0.00  0.00    +0.000 S 
BRANCH  14  15
ATOM     15  C   UNL     1       5.464   4.030  17.711  0.00  0.00    +0.000 C 
BRANCH  15  19
ATOM     16  C   UNL     1       2.042   3.784  18.837  0.00  0.00    +0.000 A 
ATOM     17  C   UNL     1       2.086   5.164  18.796  0.00  0.00    +0.000 A 
ATOM     18  C   UNL     1       3.378   5.523  18.341  0.00  0.00    +0.000 A 
ATOM     19  C   UNL     1       4.066   4.343  18.139  0.00  0.00    +0.000 A 
ATOM     20  O   UNL     1       3.254   3.282  18.427  0.00  0.00    +0.000 OA
BRANCH  16  21
ATOM     21  C   UNL     1       0.972   2.891  19.227  0.00  0.00    +0.000 C 
ATOM     22  O   UNL     1       0.430   2.076  18.487  0.00  0.00    +0.000 OA
BRANCH  21  24
ATOM     23  C   UNL     1       1.622   2.602  21.468  0.00  0.00    +0.000 C 
ATOM     24  O   UNL     1       0.648   3.077  20.538  0.00  0.00    +0.000 OA
ENDBRANCH  21  24
ENDBRANCH  16  21
ENDBRANCH  15  19
ENDBRANCH  14  15
ENDBRANCH   1  14
TORSDOF 6
ENDMDL
MODEL 4
REMARK VINA RESULT:      -7.2      2.086      2.813
REMARK  Name = 
REMARK  9 active torsions:
REMARK  status: ('A' for Active; 'I' for Inactive)
REMARK    1  A    between atoms: C_1  and  O_2
REMARK    2  A    between atoms: O_2  and  C_3
REMARK    3  A    between atoms: C_3  and  C_5
REMARK    4  A    between atoms: C_8  and  C_9
REMARK    5  A    between atoms: C_9  and  S_10
REMARK    6  A    between atoms: S_10  and  C_11
REMARK    7  A    between atoms: C_16  and  C_18
REMARK    8  A    between atoms: C_18  and  C_19
REMARK    9  A    between atoms: C_18  and  C_20
REMARK                            x       y       z     vdW  Elec       q    Type
REMARK                         _______ _______ _______ _____ _____    ______ ____
ROOT
ATOM      1  C   UNL     1       5.801   5.324  17.348  0.00  0.00    +0.000 A 
ATOM      2  C   UNL     1       6.833   4.926  18.186  0.00  0.00    +0.000 A 
ATOM      3  C   UNL     1       7.781   5.859  18.620  0.00  0.00    +0.000 A 
ATOM      4  C   UNL     1       7.681   7.176  18.200  0.00  0.00    +0.000 A 
ATOM      5  N   UNL     1       8.630   8.098  18.692  0.00  0.00    +0.000 N 
ATOM      6  C   UNL     1       8.650   9.439  18.356  0.00  0.00    +0.000 C 
ATOM      7  O   UNL     1       7.877   9.981  17.570  0.00  0.00    +0.000 OA
ATOM      8  N   UNL     1       6.681   7.528  17.370  0.00  0.00    +0.000 NA
ATOM      9  N   UNL     1       5.728   6.599  16.940  0.00  0.00    +0.000 NA
ATOM     10  H   UNL     1       9.315   7.753  19.346  0.00  0.00    +0.000 HD
ENDROOT
BRANCH   6  11
ATOM     11  C   UNL     1       9.727  10.254  19.092  0.00  0.00    +0.000 C 
ATOM     12  C   UNL     1      10.216  11.446  18.272  0.00  0.00    +0.000 C 
ATOM     13  C   UNL     1       9.180  10.751  20.436  0.00  0.00    +0.000 C 
ENDBRANCH   6  11
BRANCH   1  14
ATOM     14  S   UNL     1       4.576   4.120  16.882  0.00  0.00    +0.000 S 
BRANCH  14  15
ATOM     15  C   UNL     1       4.207   3.280  18.464  0.00  0.00    +0.000 C 
BRANCH  15  19
ATOM     16  C   UNL     1       2.398   6.116  19.776  0.00  0.00    +0.000 A 
ATOM     17  C   UNL     1       1.914   5.197  20.687  0.00  0.00    +0.000 A 
ATOM     18  C   UNL     1       2.521   3.954  20.382  0.00  0.00    +0.000 A 
ATOM     19  C   UNL     1       3.338   4.172  19.290  0.00  0.00    +0.000 A 
ATOM     20  O   UNL     1       3.276   5.488  18.925  0.00  0.00    +0.000 OA
BRANCH  16  21
ATOM     21  C   UNL     1       2.114   7.527  19.627  0.00  0.00    +0.000 C 
ATOM     22  O   UNL     1       1.534   8.221  20.456  0.00  0.00    +0.000 OA
BRANCH  21  24
ATOM     23  C   UNL     1       1.805   9.027  17.843  0.00  0.00    +0.000 C 
ATOM     24  O   UNL     1       2.584   7.986  18.433  0.00  0.00    +0.000 OA
ENDBRANCH  21  24
ENDBRANCH  16  21
ENDBRANCH  15  19
ENDBRANCH  14  15
ENDBRANCH   1  14
TORSDOF 6
ENDMDL
MODEL 5
REMARK VINA RESULT:      -7.2      3.878      6.677
REMARK  Name = 
REMARK  9 active torsions:
REMARK  status: ('A' for Active; 'I' for Inactive)
REMARK    1  A    between atoms: C_1  and  O_2
REMARK    2  A    between atoms: O_2  and  C_3
REMARK    3  A    between atoms: C_3  and  C_5
REMARK    4  A    between atoms: C_8  and  C_9
REMARK    5  A    between atoms: C_9  and  S_10
REMARK    6  A    between atoms: S_10  and  C_11
REMARK    7  A    between atoms: C_16  and  C_18
REMARK    8  A    between atoms: C_18  and  C_19
REMARK    9  A    between atoms: C_18  and  C_20
REMARK                            x       y       z     vdW  Elec       q    Type
REMARK                         _______ _______ _______ _____ _____    ______ ____
ROOT
ATOM      1  C   UNL     1       6.766   5.955  16.477  0.00  0.00    +0.000 A 
ATOM      2  C   UNL     1       5.468   5.468  16.425  0.00  0.00    +0.000 A 
ATOM      3  C   UNL     1       5.036   4.749  15.304  0.00  0.00    +0.000 A 
ATOM      4  C   UNL     1       5.911   4.537  14.252  0.00  0.00    +0.000 A 
ATOM      5  N   UNL     1       5.454   3.772  13.157  0.00  0.00    +0.000 N 
ATOM      6  C   UNL     1       6.219   3.485  12.042  0.00  0.00    +0.000 C 
ATOM      7  O   UNL     1       7.365   3.884  11.851  0.00  0.00    +0.000 OA
ATOM      8  N   UNL     1       7.159   5.040  14.323  0.00  0.00    +0.000 NA
ATOM      9  N   UNL     1       7.596   5.752  15.443  0.00  0.00    +0.000 NA
ATOM     10  H   UNL     1       4.519   3.397  13.213  0.00  0.00    +0.000 HD
ENDROOT
BRANCH   6  11
ATOM     11  C   UNL     1       5.526   2.559  11.028  0.00  0.00    +0.000 C 
ATOM     12  C   UNL     1       5.875   1.088  11.251  0.00  0.00    +0.000 C 
ATOM     13  C   UNL     1       4.005   2.739  11.110  0.00  0.00    +0.000 C 
ENDBRANCH   6  11
BRANCH   1  14
ATOM     14  S   UNL     1       7.296   6.797  17.952  0.00  0.00    +0.000 S 
BRANCH  14  15
ATOM     15  C   UNL     1       7.089   5.522  19.247  0.00  0.00    +0.000 C 
BRANCH  15  19
ATOM     16  C   UNL     1       3.928   3.834  19.693  0.00  0.00    +0.000 A 
ATOM     17  C   UNL     1       3.405   5.109  19.620  0.00  0.00    +0.000 A 
ATOM     18  C   UNL     1       4.495   5.992  19.416  0.00  0.00    +0.000 A 
ATOM     19  C   UNL     1       5.633   5.210  19.385  0.00  0.00    +0.000 A 
ATOM     20  O   UNL     1       5.292   3.895  19.541  0.00  0.00    +0.000 OA
BRANCH  16  21
ATOM     21  C   UNL     1       3.270   2.560  19.892  0.00  0.00    +0.000 C 
ATOM     22  O   UNL     1       3.062   1.728  19.014  0.00  0.00    +0.000 OA
BRANCH  21  24
ATOM     23  C   UNL     1       1.525   2.621  21.468  0.00  0.00    +0.000 C 
ATOM     24  O   UNL     1       2.912   2.406  21.199  0.00  0.00    +0.000 OA
ENDBRANCH  21  24
ENDBRANCH  16  21
ENDBRANCH  15  19
ENDBRANCH  14  15
ENDBRANCH   1  14
TORSDOF 6
ENDMDL
MODEL 6
REMARK VINA RESULT:      -7.1      1.281      1.533
REMARK  Name = 
REMARK  9 active torsions:
REMARK  status: ('A' for Active; 'I' for Inactive)
REMARK    1  A    between atoms: C_1  and  O_2
REMARK    2  A    between atoms: O_2  and  C_3
REMARK    3  A    between atoms: C_3  and  C_5
REMARK    4  A    between atoms: C_8  and  C_9
REMARK    5  A    between atoms: C_9  and  S_10
REMARK    6  A    between atoms: S_10  and  C_11
REMARK    7  A    between atoms: C_16  and  C_18
REMARK    8  A    between atoms: C_18  and  C_19
REMARK    9  A    between atoms: C_18  and  C_20
REMARK                            x       y       z     vdW  Elec       q    Type
REMARK                         _______ _______ _______ _____ _____    ______ ____
ROOT
ATOM      1  C   UNL     1       7.176   5.913  17.335  0.00  0.00    +0.000 A 
ATOM      2  C   UNL     1       7.787   5.767  18.573  0.00  0.00    +0.000 A 
ATOM      3  C   UNL     1       8.395   6.868  19.185  0.00  0.00    +0.000 A 
ATOM      4  C   UNL     1       8.386   8.096  18.544  0.00  0.00    +0.000 A 
ATOM      5  N   UNL     1       8.972   9.193  19.211  0.00  0.00    +0.000 N 
ATOM      6  C   UNL     1       9.034  10.472  18.688  0.00  0.00    +0.000 C 
ATOM      7  O   UNL     1       8.626  10.800  17.578  0.00  0.00    +0.000 OA
ATOM      8  N   UNL     1       7.803   8.201  17.334  0.00  0.00    +0.000 NA
ATOM      9  N   UNL     1       7.189   7.105  16.722  0.00  0.00    +0.000 NA
ATOM     10  H   UNL     1       9.343   9.029  20.135  0.00  0.00    +0.000 HD
ENDROOT
BRANCH   6  11
ATOM     11  C   UNL     1       9.642  11.511  19.646  0.00  0.00    +0.000 C 
ATOM     12  C   UNL     1       9.237  11.268  21.099  0.00  0.00    +0.000 C 
ATOM     13  C   UNL     1      11.171  11.496  19.534  0.00  0.00    +0.000 C 
ENDBRANCH   6  11
BRANCH   1  14
ATOM     14  S   UNL     1       6.349   4.505  16.628  0.00  0.00    +0.000 S 
BRANCH  14  15
ATOM     15  C   UNL     1       4.802   5.226  15.972  0.00  0.00    +0.000 C 
BRANCH  15  19
ATOM     16  C   UNL     1       2.494   5.143  18.747  0.00  0.00    +0.000 A 
ATOM     17  C   UNL     1       2.776   6.492  18.831  0.00  0.00    +0.000 A 
ATOM     18  C   UNL     1       3.685   6.789  17.785  0.00  0.00    +0.000 A 
ATOM     19  C   UNL     1       3.923   5.602  17.121  0.00  0.00    +0.000 A 
ATOM     20  O   UNL     1       3.191   4.600  17.695  0.00  0.00    +0.000 OA
BRANCH  16  21
ATOM     21  C   UNL     1       1.633   4.313  19.562  0.00  0.00    +0.000 C 
ATOM     22  O   UNL     1       1.389   4.503  20.750  0.00  0.00    +0.000 OA
BRANCH  21  24
ATOM     23  C   UNL     1       1.544   1.986  19.241  0.00  0.00    +0.000 C 
ATOM     24  O   UNL     1       1.122   3.286  18.827  0.00  0.00    +0.000 OA
ENDBRANCH  21  24
ENDBRANCH  16  21
ENDBRANCH  15  19
ENDBRANCH  14  15
ENDBRANCH   1  14
TORSDOF 6
ENDMDL
MODEL 7
REMARK VINA RESULT:      -7.1      1.205      1.580
REMARK  Name = 
REMARK  9 active torsions:
REMARK  status: ('A' for Active; 'I' for Inactive)
REMARK    1  A    between atoms: C_1  and  O_2
REMARK    2  A    between atoms: O_2  and  C_3
REMARK    3  A    between atoms: C_3  and  C_5
REMARK    4  A    between atoms: C_8  and  C_9
REMARK    5  A    between atoms: C_9  and  S_10
REMARK    6  A    between atoms: S_10  and  C_11
REMARK    7  A    between atoms: C_16  and  C_18
REMARK    8  A    between atoms: C_18  and  C_19
REMARK    9  A    between atoms: C_18  and  C_20
REMARK                            x       y       z     vdW  Elec       q    Type
REMARK                         _______ _______ _______ _____ _____    ______ ____
ROOT
ATOM      1  C   UNL     1       6.912   5.764  17.252  0.00  0.00    +0.000 A 
ATOM      2  C   UNL     1       7.602   5.572  18.441  0.00  0.00    +0.000 A 
ATOM      3  C   UNL     1       8.279   6.642  19.036  0.00  0.00    +0.000 A 
ATOM      4  C   UNL     1       8.259   7.886  18.424  0.00  0.00    +0.000 A 
ATOM      5  N   UNL     1       8.917   8.951  19.075  0.00  0.00    +0.000 N 
ATOM      6  C   UNL     1       8.978  10.240  18.578  0.00  0.00    +0.000 C 
ATOM      7  O   UNL     1       8.504  10.606  17.506  0.00  0.00    +0.000 OA
ATOM      8  N   UNL     1       7.599   8.035  17.260  0.00  0.00    +0.000 NA
ATOM      9  N   UNL     1       6.915   6.970  16.667  0.00  0.00    +0.000 NA
ATOM     10  H   UNL     1       9.345   8.756  19.967  0.00  0.00    +0.000 HD
ENDROOT
BRANCH   6  11
ATOM     11  C   UNL     1       9.676  11.241  19.516  0.00  0.00    +0.000 C 
ATOM     12  C   UNL     1       9.399  12.692  19.127  0.00  0.00    +0.000 C 
ATOM     13  C   UNL     1       9.223  11.006  20.962  0.00  0.00    +0.000 C 
ENDBRANCH   6  11
BRANCH   1  14
ATOM     14  S   UNL     1       6.003   4.394  16.570  0.00  0.00    +0.000 S 
BRANCH  14  15
ATOM     15  C   UNL     1       4.269   4.966  16.669  0.00  0.00    +0.000 C 
BRANCH  15  19
ATOM     16  C   UNL     1       2.908   3.055  19.414  0.00  0.00    +0.000 A 
ATOM     17  C   UNL     1       2.118   2.488  18.433  0.00  0.00    +0.000 A 
ATOM     18  C   UNL     1       2.495   3.084  17.204  0.00  0.00    +0.000 A 
ATOM     19  C   UNL     1       3.490   3.996  17.497  0.00  0.00    +0.000 A 
ATOM     20  O   UNL     1       3.753   3.973  18.838  0.00  0.00    +0.000 OA
BRANCH  16  21
ATOM     21  C   UNL     1       2.945   2.819  20.841  0.00  0.00    +0.000 C 
ATOM     22  O   UNL     1       3.775   2.125  21.420  0.00  0.00    +0.000 OA
BRANCH  21  24
ATOM     23  C   UNL     1       1.722   4.820  21.013  0.00  0.00    +0.000 C 
ATOM     24  O   UNL     1       1.927   3.479  21.462  0.00  0.00    +0.000 OA
ENDBRANCH  21  24
ENDBRANCH  16  21
ENDBRANCH  15  19
ENDBRANCH  14  15
ENDBRANCH   1  14
TORSDOF 6
ENDMDL
MODEL 8
REMARK VINA RESULT:      -7.0      5.231      6.999
REMARK  Name = 
REMARK  9 active torsions:
REMARK  status: ('A' for Active; 'I' for Inactive)
REMARK    1  A    between atoms: C_1  and  O_2
REMARK    2  A    between atoms: O_2  and  C_3
REMARK    3  A    between atoms: C_3  and  C_5
REMARK    4  A    between atoms: C_8  and  C_9
REMARK    5  A    between atoms: C_9  and  S_10
REMARK    6  A    between atoms: S_10  and  C_11
REMARK    7  A    between atoms: C_16  and  C_18
REMARK    8  A    between atoms: C_18  and  C_19
REMARK    9  A    between atoms: C_18  and  C_20
REMARK                            x       y       z     vdW  Elec       q    Type
REMARK                         _______ _______ _______ _____ _____    ______ ____
ROOT
ATOM      1  C   UNL     1       2.218   7.325  19.394  0.00  0.00    +0.000 A 
ATOM      2  C   UNL     1       2.474   7.848  18.135  0.00  0.00    +0.000 A 
ATOM      3  C   UNL     1       2.064   9.149  17.822  0.00  0.00    +0.000 A 
ATOM      4  C   UNL     1       1.398   9.901  18.777  0.00  0.00    +0.000 A 
ATOM      5  N   UNL     1       1.037  11.224  18.441  0.00  0.00    +0.000 N 
ATOM      6  C   UNL     1       0.370  12.083  19.294  0.00  0.00    +0.000 C 
ATOM      7  O   UNL     1      -0.018  11.796  20.423  0.00  0.00    +0.000 OA
ATOM      8  N   UNL     1       1.146   9.358  19.984  0.00  0.00    +0.000 NA
ATOM      9  N   UNL     1       1.561   8.062  20.301  0.00  0.00    +0.000 NA
ATOM     10  H   UNL     1       1.309  11.561  17.529  0.00  0.00    +0.000 HD
ENDROOT
BRANCH   6  11
ATOM     11  C   UNL     1       0.171  13.500  18.727  0.00  0.00    +0.000 C 
ATOM     12  C   UNL     1      -0.758  14.347  19.594  0.00  0.00    +0.000 C 
ATOM     13  C   UNL     1       1.526  14.205  18.594  0.00  0.00    +0.000 C 
ENDBRANCH   6  11
BRANCH   1  14
ATOM     14  S   UNL     1       2.824   5.695  19.772  0.00  0.00    +0.000 S 
BRANCH  14  15
ATOM     15  C   UNL     1       2.472   4.763  18.239  0.00  0.00    +0.000 C 
BRANCH  15  19
ATOM     16  C   UNL     1       5.960   4.641  17.311  0.00  0.00    +0.000 A 
ATOM     17  C   UNL     1       5.505   3.844  16.279  0.00  0.00    +0.000 A 
ATOM     18  C   UNL     1       4.097   3.755  16.416  0.00  0.00    +0.000 A 
ATOM     19  C   UNL     1       3.763   4.492  17.535  0.00  0.00    +0.000 A 
ATOM     20  O   UNL     1       4.892   5.044  18.076  0.00  0.00    +0.000 OA
BRANCH  16  21
ATOM     21  C   UNL     1       7.303   5.059  17.649  0.00  0.00    +0.000 C 
ATOM     22  O   UNL     1       8.012   4.534  18.503  0.00  0.00    +0.000 OA
BRANCH  21  24
ATOM     23  C   UNL     1       7.413   7.400  17.462  0.00  0.00    +0.000 C 
ATOM     24  O   UNL     1       7.680   6.122  16.884  0.00  0.00    +0.000 OA
ENDBRANCH  21  24
ENDBRANCH  16  21
ENDBRANCH  15  19
ENDBRANCH  14  15
ENDBRANCH   1  14
TORSDOF 6
ENDMDL
MODEL 9
REMARK VINA RESULT:      -6.9      6.933      9.051
REMARK  Name = 
REMARK  9 active torsions:
REMARK  status: ('A' for Active; 'I' for Inactive)
REMARK    1  A    between atoms: C_1  and  O_2
REMARK    2  A    between atoms: O_2  and  C_3
REMARK    3  A    between atoms: C_3  and  C_5
REMARK    4  A    between atoms: C_8  and  C_9
REMARK    5  A    between atoms: C_9  and  S_10
REMARK    6  A    between atoms: S_10  and  C_11
REMARK    7  A    between atoms: C_16  and  C_18
REMARK    8  A    between atoms: C_18  and  C_19
REMARK    9  A    between atoms: C_18  and  C_20
REMARK                            x       y       z     vdW  Elec       q    Type
REMARK                         _______ _______ _______ _____ _____    ______ ____
ROOT
ATOM      1  C   UNL     1       1.144   9.471  19.538  0.00  0.00    +0.000 A 
ATOM      2  C   UNL     1       1.608   9.480  18.230  0.00  0.00    +0.000 A 
ATOM      3  C   UNL     1       2.345   8.394  17.743  0.00  0.00    +0.000 A 
ATOM      4  C   UNL     1       2.609   7.320  18.578  0.00  0.00    +0.000 A 
ATOM      5  N   UNL     1       3.318   6.225  18.040  0.00  0.00    +0.000 N 
ATOM      6  C   UNL     1       3.651   5.092  18.758  0.00  0.00    +0.000 C 
ATOM      7  O   UNL     1       3.406   4.914  19.949  0.00  0.00    +0.000 OA
ATOM      8  N   UNL     1       2.163   7.350  19.849  0.00  0.00    +0.000 NA
ATOM      9  N   UNL     1       1.420   8.430  20.336  0.00  0.00    +0.000 NA
ATOM     10  H   UNL     1       3.572   6.272  17.064  0.00  0.00    +0.000 HD
ENDROOT
BRANCH   6  11
ATOM     11  C   UNL     1       4.345   4.002  17.924  0.00  0.00    +0.000 C 
ATOM     12  C   UNL     1       3.413   2.835  17.601  0.00  0.00    +0.000 C 
ATOM     13  C   UNL     1       4.878   4.603  16.617  0.00  0.00    +0.000 C 
ENDBRANCH   6  11
BRANCH   1  14
ATOM     14  S   UNL     1       0.147  10.837  20.092  0.00  0.00    +0.000 S 
BRANCH  14  15
ATOM     15  C   UNL     1      -0.295  11.679  18.530  0.00  0.00    +0.000 C 
BRANCH  15  19
ATOM     16  C   UNL     1      -3.779  11.182  17.720  0.00  0.00    +0.000 A 
ATOM     17  C   UNL     1      -3.319  10.035  17.105  0.00  0.00    +0.000 A 
ATOM     18  C   UNL     1      -1.918   9.989  17.310  0.00  0.00    +0.000 A 
ATOM     19  C   UNL     1      -1.589  11.119  18.033  0.00  0.00    +0.000 A 
ATOM     20  O   UNL     1      -2.719  11.842  18.295  0.00  0.00    +0.000 OA
BRANCH  16  21
ATOM     21  C   UNL     1      -5.119  11.719  17.819  0.00  0.00    +0.000 C 
ATOM     22  O   UNL     1      -5.662  12.421  16.971  0.00  0.00    +0.000 OA
BRANCH  21  24
ATOM     23  C   UNL     1      -6.821  10.460  18.841  0.00  0.00    +0.000 C 
ATOM     24  O   UNL     1      -5.703  11.335  18.990  0.00  0.00    +0.000 OA
ENDBRANCH  21  24
ENDBRANCH  16  21
ENDBRANCH  15  19
ENDBRANCH  14  15
ENDBRANCH   1  14
TORSDOF 6
ENDMDL
