MODEL 1
REMARK VINA RESULT:      -8.2      0.000      0.000
REMARK  Name = 
REMARK  11 active torsions:
REMARK  status: ('A' for Active; 'I' for Inactive)
REMARK    1  A    between atoms: C_1  and  C_2
REMARK    2  A    between atoms: C_3  and  C_4
REMARK    3  A    between atoms: C_3  and  C_16
REMARK    4  A    between atoms: C_6  and  O_7
REMARK    5  A    between atoms: O_7  and  C_8
REMARK    6  A    between atoms: C_9  and  O_10
REMARK    7  A    between atoms: O_10  and  C_11
REMARK    8  A    between atoms: C_12  and  O_13
REMARK    9  A    between atoms: O_13  and  C_14
REMARK   10  A    between atoms: N_28  and  C_29
REMARK   11  A    between atoms: C_29  and  C_30
REMARK                            x       y       z     vdW  Elec       q    Type
REMARK                         _______ _______ _______ _____ _____    ______ ____
ROOT
ATOM      1  C   UNL     1       1.322   3.353  17.922  0.00  0.00    +0.000 C 
ATOM      2  C   UNL     1       2.672   3.663  17.357  0.00  0.00    +0.000 C 
ATOM      3  C   UNL     1       3.444   4.740  17.612  0.00  0.00    +0.000 C 
ENDROOT
BRANCH   3   4
ATOM      4  C   UNL     1       3.014   5.789  18.568  0.00  0.00    +0.000 A 
ATOM      5  C   UNL     1       2.778   5.508  19.917  0.00  0.00    +0.000 A 
ATOM      6  C   UNL     1       2.140   6.442  20.776  0.00  0.00    +0.000 A 
ATOM      7  C   UNL     1       1.688   7.628  20.173  0.00  0.00    +0.000 A 
ATOM      8  C   UNL     1       2.062   7.977  18.879  0.00  0.00    +0.000 A 
ATOM      9  C   UNL     1       2.758   7.072  18.066  0.00  0.00    +0.000 A 
ATOM     10  C   UNL     1       1.624   9.303  18.749  0.00  0.00    +0.000 A 
ATOM     11  C   UNL     1       2.088  10.548  18.285  0.00  0.00    +0.000 A 
ATOM     12  C   UNL     1       1.210  11.639  18.403  0.00  0.00    +0.000 A 
ATOM     13  C   UNL     1      -0.141  11.443  18.721  0.00  0.00    +0.000 A 
ATOM     14  C   UNL     1      -0.602  10.200  19.166  0.00  0.00    +0.000 A 
ATOM     15  C   UNL     1       0.394   9.255  19.389  0.00  0.00    +0.000 A 
ATOM     16  N   UNL     1       0.864   8.688  20.614  0.00  0.00    +0.000 N 
BRANCH  16  17
ATOM     17  C   UNL     1       1.194   9.685  21.639  0.00  0.00    +0.000 C 
ATOM     18  C   UNL     1       0.276   9.943  22.799  0.00  0.00    +0.000 C 
ENDBRANCH  16  17
ENDBRANCH   3   4
BRANCH   3  19
ATOM     19  C   UNL     1       4.671   4.850  16.800  0.00  0.00    +0.000 A 
ATOM     20  C   UNL     1       5.639   5.804  17.116  0.00  0.00    +0.000 A 
ATOM     21  C   UNL     1       6.785   5.939  16.325  0.00  0.00    +0.000 A 
ATOM     22  C   UNL     1       6.950   5.121  15.188  0.00  0.00    +0.000 A 
ATOM     23  C   UNL     1       5.960   4.176  14.843  0.00  0.00    +0.000 A 
ATOM     24  C   UNL     1       4.832   4.036  15.678  0.00  0.00    +0.000 A 
BRANCH  21  25
ATOM     25  O   UNL     1       7.770   6.862  16.581  0.00  0.00    +0.000 OA
ATOM     26  C   UNL     1       7.479   7.851  17.562  0.00  0.00    +0.000 C 
ENDBRANCH  21  25
BRANCH  22  27
ATOM     27  O   UNL     1       8.070   5.393  14.429  0.00  0.00    +0.000 OA
ATOM     28  C   UNL     1       7.855   5.669  13.052  0.00  0.00    +0.000 C 
ENDBRANCH  22  27
BRANCH  23  29
ATOM     29  O   UNL     1       6.123   3.439  13.706  0.00  0.00    +0.000 OA
ATOM     30  C   UNL     1       5.133   3.539  12.692  0.00  0.00    +0.000 C 
ENDBRANCH  23  29
ENDBRANCH   3  19
TORSDOF 6
ENDMDL
MODEL 2
REMARK VINA RESULT:      -8.1      0.218      2.351
REMARK  Name = 
REMARK  11 active torsions:
REMARK  status: ('A' for Active; 'I' for Inactive)
REMARK    1  A    between atoms: C_1  and  C_2
REMARK    2  A    between atoms: C_3  and  C_4
REMARK    3  A    between atoms: C_3  and  C_16
REMARK    4  A    between atoms: C_6  and  O_7
REMARK    5  A    between atoms: O_7  and  C_8
REMARK    6  A    between atoms: C_9  and  O_10
REMARK    7  A    between atoms: O_10  and  C_11
REMARK    8  A    between atoms: C_12  and  O_13
REMARK    9  A    between atoms: O_13  and  C_14
REMARK   10  A    between atoms: N_28  and  C_29
REMARK   11  A    between atoms: C_29  and  C_30
REMARK                            x       y       z     vdW  Elec       q    Type
REMARK                         _______ _______ _______ _____ _____    ______ ____
ROOT
ATOM      1  C   UNL     1       1.283   3.470  18.027  0.00  0.00    +0.000 C 
ATOM      2  C   UNL     1       2.610   3.806  17.424  0.00  0.00    +0.000 C 
ATOM      3  C   UNL     1       3.353   4.913  17.632  0.00  0.00    +0.000 C 
ENDROOT
BRANCH   3   4
ATOM      4  C   UNL     1       2.909   5.974  18.568  0.00  0.00    +0.000 A 
ATOM      5  C   UNL     1       2.642   5.709  19.915  0.00  0.00    +0.000 A 
ATOM      6  C   UNL     1       1.992   6.656  20.749  0.00  0.00    +0.000 A 
ATOM      7  C   UNL     1       1.561   7.838  20.126  0.00  0.00    +0.000 A 
ATOM      8  C   UNL     1       1.966   8.172  18.836  0.00  0.00    +0.000 A 
ATOM      9  C   UNL     1       2.673   7.254  18.048  0.00  0.00    +0.000 A 
ATOM     10  C   UNL     1       1.540   9.499  18.683  0.00  0.00    +0.000 A 
ATOM     11  C   UNL     1       2.022  10.737  18.217  0.00  0.00    +0.000 A 
ATOM     12  C   UNL     1       1.150  11.835  18.306  0.00  0.00    +0.000 A 
ATOM     13  C   UNL     1      -0.209  11.650  18.596  0.00  0.00    +0.000 A 
ATOM     14  C   UNL     1      -0.688  10.415  19.043  0.00  0.00    +0.000 A 
ATOM     15  C   UNL     1       0.296   9.466  19.297  0.00  0.00    +0.000 A 
ATOM     16  N   UNL     1       0.736   8.909  20.537  0.00  0.00    +0.000 N 
BRANCH  16  17
ATOM     17  C   UNL     1       1.050   9.913  21.560  0.00  0.00    +0.000 C 
ATOM     18  C   UNL     1       0.073  10.250  22.649  0.00  0.00    +0.000 C 
ENDBRANCH  16  17
ENDBRANCH   3   4
BRANCH   3  19
ATOM     19  C   UNL     1       4.558   5.038  16.791  0.00  0.00    +0.000 A 
ATOM     20  C   UNL     1       4.715   4.229  15.665  0.00  0.00    +0.000 A 
ATOM     21  C   UNL     1       5.875   4.317  14.887  0.00  0.00    +0.000 A 
ATOM     22  C   UNL     1       6.900   5.211  15.258  0.00  0.00    +0.000 A 
ATOM     23  C   UNL     1       6.763   6.009  16.414  0.00  0.00    +0.000 A 
ATOM     24  C   UNL     1       5.568   5.927  17.160  0.00  0.00    +0.000 A 
BRANCH  21  25
ATOM     25  O   UNL     1       6.091   3.544  13.772  0.00  0.00    +0.000 OA
ATOM     26  C   UNL     1       5.122   3.636  12.734  0.00  0.00    +0.000 C 
ENDBRANCH  21  25
BRANCH  22  27
ATOM     27  O   UNL     1       8.036   5.157  14.476  0.00  0.00    +0.000 OA
ATOM     28  C   UNL     1       7.944   5.729  13.178  0.00  0.00    +0.000 C 
ENDBRANCH  22  27
BRANCH  23  29
ATOM     29  O   UNL     1       7.796   6.823  16.777  0.00  0.00    +0.000 OA
ATOM     30  C   UNL     1       7.500   7.989  17.534  0.00  0.00    +0.000 C 
ENDBRANCH  23  29
ENDBRANCH   3  19
TORSDOF 6
ENDMDL
MODEL 3
REMARK VINA RESULT:      -7.8      4.438      8.790
REMARK  Name = 
REMARK  11 active torsions:
REMARK  status: ('A' for Active; 'I' for Inactive)
REMARK    1  A    between atoms: C_1  and  C_2
REMARK    2  A    between atoms: C_3  and  C_4
REMARK    3  A    between atoms: C_3  and  C_16
REMARK    4  A    between atoms: C_6  and  O_7
REMARK    5  A    between atoms: O_7  and  C_8
REMARK    6  A    between atoms: C_9  and  O_10
REMARK    7  A    between atoms: O_10  and  C_11
REMARK    8  A    between atoms: C_12  and  O_13
REMARK    9  A    between atoms: O_13  and  C_14
REMARK   10  A    between atoms: N_28  and  C_29
REMARK   11  A    between atoms: C_29  and  C_30
REMARK                            x       y       z     vdW  Elec       q    Type
REMARK                         _______ _______ _______ _____ _____    ______ ____
ROOT
ATOM      1  C   UNL     1       1.630   9.529  22.690  0.00  0.00    +0.000 C 
ATOM      2  C   UNL     1       0.534   9.930  21.755  0.00  0.00    +0.000 C 
ATOM      3  C   UNL     1       0.362   9.544  20.473  0.00  0.00    +0.000 C 
ENDROOT
BRANCH   3   4
ATOM      4  C   UNL     1       1.297   8.594  19.822  0.00  0.00    +0.000 A 
ATOM      5  C   UNL     1       2.007   8.929  18.665  0.00  0.00    +0.000 A 
ATOM      6  C   UNL     1       2.709   7.953  17.909  0.00  0.00    +0.000 A 
ATOM      7  C   UNL     1       2.583   6.625  18.344  0.00  0.00    +0.000 A 
ATOM      8  C   UNL     1       2.018   6.311  19.577  0.00  0.00    +0.000 A 
ATOM      9  C   UNL     1       1.392   7.299  20.350  0.00  0.00    +0.000 A 
ATOM     10  C   UNL     1       2.301   4.947  19.740  0.00  0.00    +0.000 A 
ATOM     11  C   UNL     1       2.786   4.058  20.717  0.00  0.00    +0.000 A 
ATOM     12  C   UNL     1       2.907   2.708  20.347  0.00  0.00    +0.000 A 
ATOM     13  C   UNL     1       2.327   2.234  19.162  0.00  0.00    +0.000 A 
ATOM     14  C   UNL     1       1.830   3.120  18.200  0.00  0.00    +0.000 A 
ATOM     15  C   UNL     1       2.084   4.462  18.458  0.00  0.00    +0.000 A 
ATOM     16  N   UNL     1       2.947   5.380  17.783  0.00  0.00    +0.000 N 
BRANCH  16  17
ATOM     17  C   UNL     1       4.310   4.874  17.585  0.00  0.00    +0.000 C 
ATOM     18  C   UNL     1       5.474   5.455  18.334  0.00  0.00    +0.000 C 
ENDBRANCH  16  17
ENDBRANCH   3   4
BRANCH   3  19
ATOM     19  C   UNL     1      -0.735  10.212  19.748  0.00  0.00    +0.000 A 
ATOM     20  C   UNL     1      -1.294  11.387  20.250  0.00  0.00    +0.000 A 
ATOM     21  C   UNL     1      -2.362  12.003  19.587  0.00  0.00    +0.000 A 
ATOM     22  C   UNL     1      -2.890  11.417  18.419  0.00  0.00    +0.000 A 
ATOM     23  C   UNL     1      -2.351  10.211  17.922  0.00  0.00    +0.000 A 
ATOM     24  C   UNL     1      -1.252   9.631  18.589  0.00  0.00    +0.000 A 
BRANCH  21  25
ATOM     25  O   UNL     1      -2.959  13.157  20.035  0.00  0.00    +0.000 OA
ATOM     26  C   UNL     1      -3.315  13.200  21.411  0.00  0.00    +0.000 C 
ENDBRANCH  21  25
BRANCH  22  27
ATOM     27  O   UNL     1      -3.995  12.055  17.892  0.00  0.00    +0.000 OA
ATOM     28  C   UNL     1      -5.264  11.502  18.214  0.00  0.00    +0.000 C 
ENDBRANCH  22  27
BRANCH  23  29
ATOM     29  O   UNL     1      -2.921   9.641  16.821  0.00  0.00    +0.000 OA
ATOM     30  C   UNL     1      -2.666  10.228  15.552  0.00  0.00    +0.000 C 
ENDBRANCH  23  29
ENDBRANCH   3  19
TORSDOF 6
ENDMDL
MODEL 4
REMARK VINA RESULT:      -7.6      4.725      9.230
REMARK  Name = 
REMARK  11 active torsions:
REMARK  status: ('A' for Active; 'I' for Inactive)
REMARK    1  A    between atoms: C_1  and  C_2
REMARK    2  A    between atoms: C_3  and  C_4
REMARK    3  A    between atoms: C_3  and  C_16
REMARK    4  A    between atoms: C_6  and  O_7
REMARK    5  A    between atoms: O_7  and  C_8
REMARK    6  A    between atoms: C_9  and  O_10
REMARK    7  A    between atoms: O_10  and  C_11
REMARK    8  A    between atoms: C_12  and  O_13
REMARK    9  A    between atoms: O_13  and  C_14
REMARK   10  A    between atoms: N_28  and  C_29
REMARK   11  A    between atoms: C_29  and  C_30
REMARK                            x       y       z     vdW  Elec       q    Type
REMARK                         _______ _______ _______ _____ _____    ______ ____
ROOT
ATOM      1  C   UNL     1       1.937  12.337  20.695  0.00  0.00    +0.000 C 
ATOM      2  C   UNL     1       0.568  12.006  20.192  0.00  0.00    +0.000 C 
ATOM      3  C   UNL     1       0.190  10.921  19.484  0.00  0.00    +0.000 C 
ENDROOT
BRANCH   3   4
ATOM      4  C   UNL     1       1.160   9.856  19.129  0.00  0.00    +0.000 A 
ATOM      5  C   UNL     1       2.020   9.974  18.033  0.00  0.00    +0.000 A 
ATOM      6  C   UNL     1       2.772   8.870  17.550  0.00  0.00    +0.000 A 
ATOM      7  C   UNL     1       2.540   7.639  18.183  0.00  0.00    +0.000 A 
ATOM      8  C   UNL     1       1.814   7.553  19.368  0.00  0.00    +0.000 A 
ATOM      9  C   UNL     1       1.136   8.670  19.875  0.00  0.00    +0.000 A 
ATOM     10  C   UNL     1       2.019   6.232  19.793  0.00  0.00    +0.000 A 
ATOM     11  C   UNL     1       2.344   5.516  20.961  0.00  0.00    +0.000 A 
ATOM     12  C   UNL     1       2.455   4.121  20.842  0.00  0.00    +0.000 A 
ATOM     13  C   UNL     1       2.008   3.460  19.689  0.00  0.00    +0.000 A 
ATOM     14  C   UNL     1       1.671   4.176  18.535  0.00  0.00    +0.000 A 
ATOM     15  C   UNL     1       1.944   5.538  18.594  0.00  0.00    +0.000 A 
ATOM     16  N   UNL     1       2.921   6.310  17.891  0.00  0.00    +0.000 N 
BRANCH  16  17
ATOM     17  C   UNL     1       4.277   5.753  17.959  0.00  0.00    +0.000 C 
ATOM     18  C   UNL     1       5.252   5.936  16.833  0.00  0.00    +0.000 C 
ENDBRANCH  16  17
ENDBRANCH   3   4
BRANCH   3  19
ATOM     19  C   UNL     1      -1.204  10.929  19.001  0.00  0.00    +0.000 A 
ATOM     20  C   UNL     1      -1.546  10.247  17.833  0.00  0.00    +0.000 A 
ATOM     21  C   UNL     1      -2.859  10.285  17.350  0.00  0.00    +0.000 A 
ATOM     22  C   UNL     1      -3.835  11.037  18.036  0.00  0.00    +0.000 A 
ATOM     23  C   UNL     1      -3.489  11.756  19.200  0.00  0.00    +0.000 A 
ATOM     24  C   UNL     1      -2.167  11.671  19.686  0.00  0.00    +0.000 A 
BRANCH  21  25
ATOM     25  O   UNL     1      -3.256   9.640  16.204  0.00  0.00    +0.000 OA
ATOM     26  C   UNL     1      -2.893  10.247  14.970  0.00  0.00    +0.000 C 
ENDBRANCH  21  25
BRANCH  22  27
ATOM     27  O   UNL     1      -5.075  11.079  17.431  0.00  0.00    +0.000 OA
ATOM     28  C   UNL     1      -5.496  12.340  16.929  0.00  0.00    +0.000 C 
ENDBRANCH  22  27
BRANCH  23  29
ATOM     29  O   UNL     1      -4.443  12.519  19.810  0.00  0.00    +0.000 OA
ATOM     30  C   UNL     1      -4.018  13.599  20.630  0.00  0.00    +0.000 C 
ENDBRANCH  23  29
ENDBRANCH   3  19
TORSDOF 6
ENDMDL
MODEL 5
REMARK VINA RESULT:      -7.4      4.506      8.736
REMARK  Name = 
REMARK  11 active torsions:
REMARK  status: ('A' for Active; 'I' for Inactive)
REMARK    1  A    between atoms: C_1  and  C_2
REMARK    2  A    between atoms: C_3  and  C_4
REMARK    3  A    between atoms: C_3  and  C_16
REMARK    4  A    between atoms: C_6  and  O_7
REMARK    5  A    between atoms: O_7  and  C_8
REMARK    6  A    between atoms: C_9  and  O_10
REMARK    7  A    between atoms: O_10  and  C_11
REMARK    8  A    between atoms: C_12  and  O_13
REMARK    9  A    between atoms: O_13  and  C_14
REMARK   10  A    between atoms: N_28  and  C_29
REMARK   11  A    between atoms: C_29  and  C_30
REMARK                            x       y       z     vdW  Elec       q    Type
REMARK                         _______ _______ _______ _____ _____    ______ ____
ROOT
ATOM      1  C   UNL     1      -1.067   9.288  17.147  0.00  0.00    +0.000 C 
ATOM      2  C   UNL     1      -0.521  10.321  18.081  0.00  0.00    +0.000 C 
ATOM      3  C   UNL     1       0.616  10.259  18.805  0.00  0.00    +0.000 C 
ENDROOT
BRANCH   3   4
ATOM      4  C   UNL     1       1.519   9.086  18.722  0.00  0.00    +0.000 A 
ATOM      5  C   UNL     1       2.501   8.976  17.733  0.00  0.00    +0.000 A 
ATOM      6  C   UNL     1       3.199   7.761  17.502  0.00  0.00    +0.000 A 
ATOM      7  C   UNL     1       2.790   6.658  18.269  0.00  0.00    +0.000 A 
ATOM      8  C   UNL     1       1.934   6.803  19.357  0.00  0.00    +0.000 A 
ATOM      9  C   UNL     1       1.308   8.029  19.618  0.00  0.00    +0.000 A 
ATOM     10  C   UNL     1       1.973   5.548  19.984  0.00  0.00    +0.000 A 
ATOM     11  C   UNL     1       2.103   4.993  21.271  0.00  0.00    +0.000 A 
ATOM     12  C   UNL     1       2.101   3.591  21.363  0.00  0.00    +0.000 A 
ATOM     13  C   UNL     1       1.725   2.800  20.268  0.00  0.00    +0.000 A 
ATOM     14  C   UNL     1       1.581   3.358  18.994  0.00  0.00    +0.000 A 
ATOM     15  C   UNL     1       1.967   4.690  18.894  0.00  0.00    +0.000 A 
ATOM     16  N   UNL     1       3.079   5.276  18.214  0.00  0.00    +0.000 N 
BRANCH  16  17
ATOM     17  C   UNL     1       4.364   4.638  18.522  0.00  0.00    +0.000 C 
ATOM     18  C   UNL     1       5.528   5.435  19.036  0.00  0.00    +0.000 C 
ENDBRANCH  16  17
ENDBRANCH   3   4
BRANCH   3  19
ATOM     19  C   UNL     1       0.831  11.372  19.750  0.00  0.00    +0.000 A 
ATOM     20  C   UNL     1       0.049  11.475  20.901  0.00  0.00    +0.000 A 
ATOM     21  C   UNL     1       0.223  12.551  21.780  0.00  0.00    +0.000 A 
ATOM     22  C   UNL     1       1.176  13.547  21.486  0.00  0.00    +0.000 A 
ATOM     23  C   UNL     1       1.947  13.467  20.307  0.00  0.00    +0.000 A 
ATOM     24  C   UNL     1       1.778  12.353  19.457  0.00  0.00    +0.000 A 
BRANCH  21  25
ATOM     25  O   UNL     1      -0.519  12.711  22.925  0.00  0.00    +0.000 OA
ATOM     26  C   UNL     1      -1.539  11.749  23.165  0.00  0.00    +0.000 C 
ENDBRANCH  21  25
BRANCH  22  27
ATOM     27  O   UNL     1       1.207  14.606  22.370  0.00  0.00    +0.000 OA
ATOM     28  C   UNL     1       0.468  15.764  22.004  0.00  0.00    +0.000 C 
ENDBRANCH  22  27
BRANCH  23  29
ATOM     29  O   UNL     1       2.822  14.475  20.023  0.00  0.00    +0.000 OA
ATOM     30  C   UNL     1       2.716  15.122  18.762  0.00  0.00    +0.000 C 
ENDBRANCH  23  29
ENDBRANCH   3  19
TORSDOF 6
ENDMDL
MODEL 6
REMARK VINA RESULT:      -7.4      4.377      9.032
REMARK  Name = 
REMARK  11 active torsions:
REMARK  status: ('A' for Active; 'I' for Inactive)
REMARK    1  A    between atoms: C_1  and  C_2
REMARK    2  A    between atoms: C_3  and  C_4
REMARK    3  A    between atoms: C_3  and  C_16
REMARK    4  A    between atoms: C_6  and  O_7
REMARK    5  A    between atoms: O_7  and  C_8
REMARK    6  A    between atoms: C_9  and  O_10
REMARK    7  A    between atoms: O_10  and  C_11
REMARK    8  A    between atoms: C_12  and  O_13
REMARK    9  A    between atoms: O_13  and  C_14
REMARK   10  A    between atoms: N_28  and  C_29
REMARK   11  A    between atoms: C_29  and  C_30
REMARK                            x       y       z     vdW  Elec       q    Type
REMARK                         _______ _______ _______ _____ _____    ______ ____
ROOT
ATOM      1  C   UNL     1       1.817   9.491  22.714  0.00  0.00    +0.000 C 
ATOM      2  C   UNL     1       0.680   9.877  21.823  0.00  0.00    +0.000 C 
ATOM      3  C   UNL     1       0.461   9.486  20.550  0.00  0.00    +0.000 C 
ENDROOT
BRANCH   3   4
ATOM      4  C   UNL     1       1.379   8.544  19.864  0.00  0.00    +0.000 A 
ATOM      5  C   UNL     1       2.082   8.905  18.710  0.00  0.00    +0.000 A 
ATOM      6  C   UNL     1       2.767   7.944  17.920  0.00  0.00    +0.000 A 
ATOM      7  C   UNL     1       2.630   6.605  18.319  0.00  0.00    +0.000 A 
ATOM      8  C   UNL     1       2.072   6.263  19.547  0.00  0.00    +0.000 A 
ATOM      9  C   UNL     1       1.464   7.234  20.353  0.00  0.00    +0.000 A 
ATOM     10  C   UNL     1       2.341   4.891  19.667  0.00  0.00    +0.000 A 
ATOM     11  C   UNL     1       2.825   3.969  20.615  0.00  0.00    +0.000 A 
ATOM     12  C   UNL     1       2.927   2.629  20.205  0.00  0.00    +0.000 A 
ATOM     13  C   UNL     1       2.332   2.196  19.012  0.00  0.00    +0.000 A 
ATOM     14  C   UNL     1       1.837   3.114  18.080  0.00  0.00    +0.000 A 
ATOM     15  C   UNL     1       2.108   4.446  18.374  0.00  0.00    +0.000 A 
ATOM     16  N   UNL     1       2.975   5.373  17.718  0.00  0.00    +0.000 N 
BRANCH  16  17
ATOM     17  C   UNL     1       4.331   4.858  17.493  0.00  0.00    +0.000 C 
ATOM     18  C   UNL     1       5.509   5.409  18.245  0.00  0.00    +0.000 C 
ENDBRANCH  16  17
ENDBRANCH   3   4
BRANCH   3  19
ATOM     19  C   UNL     1      -0.673  10.139  19.869  0.00  0.00    +0.000 A 
ATOM     20  C   UNL     1      -1.225   9.570  18.722  0.00  0.00    +0.000 A 
ATOM     21  C   UNL     1      -2.274  10.207  18.049  0.00  0.00    +0.000 A 
ATOM     22  C   UNL     1      -2.759  11.443  18.523  0.00  0.00    +0.000 A 
ATOM     23  C   UNL     1      -2.184  12.042  19.664  0.00  0.00    +0.000 A 
ATOM     24  C   UNL     1      -1.152  11.361  20.343  0.00  0.00    +0.000 A 
BRANCH  21  25
ATOM     25  O   UNL     1      -2.855   9.699  16.912  0.00  0.00    +0.000 OA
ATOM     26  C   UNL     1      -2.570  10.375  15.693  0.00  0.00    +0.000 C 
ENDBRANCH  21  25
BRANCH  22  27
ATOM     27  O   UNL     1      -3.733  12.029  17.740  0.00  0.00    +0.000 OA
ATOM     28  C   UNL     1      -5.078  11.864  18.167  0.00  0.00    +0.000 C 
ENDBRANCH  22  27
BRANCH  23  29
ATOM     29  O   UNL     1      -2.638  13.266  20.064  0.00  0.00    +0.000 OA
ATOM     30  C   UNL     1      -3.439  13.335  21.236  0.00  0.00    +0.000 C 
ENDBRANCH  23  29
ENDBRANCH   3  19
TORSDOF 6
ENDMDL
MODEL 7
REMARK VINA RESULT:      -7.4      4.465      8.641
REMARK  Name = 
REMARK  11 active torsions:
REMARK  status: ('A' for Active; 'I' for Inactive)
REMARK    1  A    between atoms: C_1  and  C_2
REMARK    2  A    between atoms: C_3  and  C_4
REMARK    3  A    between atoms: C_3  and  C_16
REMARK    4  A    between atoms: C_6  and  O_7
REMARK    5  A    between atoms: O_7  and  C_8
REMARK    6  A    between atoms: C_9  and  O_10
REMARK    7  A    between atoms: O_10  and  C_11
REMARK    8  A    between atoms: C_12  and  O_13
REMARK    9  A    between atoms: O_13  and  C_14
REMARK   10  A    between atoms: N_28  and  C_29
REMARK   11  A    between atoms: C_29  and  C_30
REMARK                            x       y       z     vdW  Elec       q    Type
REMARK                         _______ _______ _______ _____ _____    ______ ____
ROOT
ATOM      1  C   UNL     1      -1.151   9.334  17.165  0.00  0.00    +0.000 C 
ATOM      2  C   UNL     1      -0.572  10.393  18.049  0.00  0.00    +0.000 C 
ATOM      3  C   UNL     1       0.590  10.349  18.735  0.00  0.00    +0.000 C 
ENDROOT
BRANCH   3   4
ATOM      4  C   UNL     1       1.488   9.172  18.655  0.00  0.00    +0.000 A 
ATOM      5  C   UNL     1       2.454   9.045  17.651  0.00  0.00    +0.000 A 
ATOM      6  C   UNL     1       3.144   7.825  17.427  0.00  0.00    +0.000 A 
ATOM      7  C   UNL     1       2.745   6.734  18.216  0.00  0.00    +0.000 A 
ATOM      8  C   UNL     1       1.907   6.897  19.316  0.00  0.00    +0.000 A 
ATOM      9  C   UNL     1       1.289   8.129  19.569  0.00  0.00    +0.000 A 
ATOM     10  C   UNL     1       1.953   5.652  19.960  0.00  0.00    +0.000 A 
ATOM     11  C   UNL     1       2.102   5.115  21.253  0.00  0.00    +0.000 A 
ATOM     12  C   UNL     1       2.098   3.714  21.365  0.00  0.00    +0.000 A 
ATOM     13  C   UNL     1       1.703   2.909  20.288  0.00  0.00    +0.000 A 
ATOM     14  C   UNL     1       1.539   3.449  19.008  0.00  0.00    +0.000 A 
ATOM     15  C   UNL     1       1.927   4.778  18.883  0.00  0.00    +0.000 A 
ATOM     16  N   UNL     1       3.030   5.350  18.176  0.00  0.00    +0.000 N 
BRANCH  16  17
ATOM     17  C   UNL     1       4.318   4.713  18.473  0.00  0.00    +0.000 C 
ATOM     18  C   UNL     1       5.406   5.453  19.196  0.00  0.00    +0.000 C 
ENDBRANCH  16  17
ENDBRANCH   3   4
BRANCH   3  19
ATOM     19  C   UNL     1       0.838  11.488  19.639  0.00  0.00    +0.000 A 
ATOM     20  C   UNL     1       1.902  12.358  19.396  0.00  0.00    +0.000 A 
ATOM     21  C   UNL     1       2.165  13.416  20.274  0.00  0.00    +0.000 A 
ATOM     22  C   UNL     1       1.366  13.587  21.422  0.00  0.00    +0.000 A 
ATOM     23  C   UNL     1       0.309  12.692  21.692  0.00  0.00    +0.000 A 
ATOM     24  C   UNL     1       0.042  11.656  20.772  0.00  0.00    +0.000 A 
BRANCH  21  25
ATOM     25  O   UNL     1       3.200  14.302  20.091  0.00  0.00    +0.000 OA
ATOM     26  C   UNL     1       3.174  15.077  18.899  0.00  0.00    +0.000 C 
ENDBRANCH  21  25
BRANCH  22  27
ATOM     27  O   UNL     1       1.763  14.605  22.265  0.00  0.00    +0.000 OA
ATOM     28  C   UNL     1       1.041  15.826  22.175  0.00  0.00    +0.000 C 
ENDBRANCH  22  27
BRANCH  23  29
ATOM     29  O   UNL     1      -0.411  12.852  22.841  0.00  0.00    +0.000 OA
ATOM     30  C   UNL     1      -1.460  11.933  23.110  0.00  0.00    +0.000 C 
ENDBRANCH  23  29
ENDBRANCH   3  19
TORSDOF 6
ENDMDL
MODEL 8
REMARK VINA RESULT:      -7.3      3.989      8.255
REMARK  Name = 
REMARK  11 active torsions:
REMARK  status: ('A' for Active; 'I' for Inactive)
REMARK    1  A    between atoms: C_1  and  C_2
REMARK    2  A    between atoms: C_3  and  C_4
REMARK    3  A    between atoms: C_3  and  C_16
REMARK    4  A    between atoms: C_6  and  O_7
REMARK    5  A    between atoms: O_7  and  C_8
REMARK    6  A    between atoms: C_9  and  O_10
REMARK    7  A    between atoms: O_10  and  C_11
REMARK    8  A    between atoms: C_12  and  O_13
REMARK    9  A    between atoms: O_13  and  C_14
REMARK   10  A    between atoms: N_28  and  C_29
REMARK   11  A    between atoms: C_29  and  C_30
REMARK                            x       y       z     vdW  Elec       q    Type
REMARK                         _______ _______ _______ _____ _____    ______ ____
ROOT
ATOM      1  C   UNL     1      -1.535  10.233  17.750  0.00  0.00    +0.000 C 
ATOM      2  C   UNL     1      -0.483  11.182  18.229  0.00  0.00    +0.000 C 
ATOM      3  C   UNL     1       0.600  10.899  18.983  0.00  0.00    +0.000 C 
ENDROOT
BRANCH   3   4
ATOM      4  C   UNL     1       0.892   9.514  19.424  0.00  0.00    +0.000 A 
ATOM      5  C   UNL     1       0.613   9.076  20.722  0.00  0.00    +0.000 A 
ATOM      6  C   UNL     1       1.106   7.840  21.218  0.00  0.00    +0.000 A 
ATOM      7  C   UNL     1       1.954   7.123  20.358  0.00  0.00    +0.000 A 
ATOM      8  C   UNL     1       2.101   7.473  19.019  0.00  0.00    +0.000 A 
ATOM      9  C   UNL     1       1.545   8.661  18.524  0.00  0.00    +0.000 A 
ATOM     10  C   UNL     1       2.810   6.397  18.466  0.00  0.00    +0.000 A 
ATOM     11  C   UNL     1       2.779   5.553  17.340  0.00  0.00    +0.000 A 
ATOM     12  C   UNL     1       3.766   4.556  17.263  0.00  0.00    +0.000 A 
ATOM     13  C   UNL     1       4.872   4.573  18.124  0.00  0.00    +0.000 A 
ATOM     14  C   UNL     1       4.907   5.424  19.233  0.00  0.00    +0.000 A 
ATOM     15  C   UNL     1       3.728   6.121  19.470  0.00  0.00    +0.000 A 
ATOM     16  N   UNL     1       2.780   5.990  20.532  0.00  0.00    +0.000 N 
BRANCH  16  17
ATOM     17  C   UNL     1       2.337   4.610  20.762  0.00  0.00    +0.000 C 
ATOM     18  C   UNL     1       0.944   4.171  20.414  0.00  0.00    +0.000 C 
ENDBRANCH  16  17
ENDBRANCH   3   4
BRANCH   3  19
ATOM     19  C   UNL     1       1.392  12.064  19.422  0.00  0.00    +0.000 A 
ATOM     20  C   UNL     1       1.114  12.681  20.642  0.00  0.00    +0.000 A 
ATOM     21  C   UNL     1       1.837  13.811  21.043  0.00  0.00    +0.000 A 
ATOM     22  C   UNL     1       2.833  14.341  20.199  0.00  0.00    +0.000 A 
ATOM     23  C   UNL     1       3.097  13.741  18.949  0.00  0.00    +0.000 A 
ATOM     24  C   UNL     1       2.380  12.583  18.584  0.00  0.00    +0.000 A 
BRANCH  21  25
ATOM     25  O   UNL     1       1.607  14.466  22.229  0.00  0.00    +0.000 OA
ATOM     26  C   UNL     1       0.287  14.952  22.446  0.00  0.00    +0.000 C 
ENDBRANCH  21  25
BRANCH  22  27
ATOM     27  O   UNL     1       3.425  15.504  20.648  0.00  0.00    +0.000 OA
ATOM     28  C   UNL     1       2.791  16.723  20.286  0.00  0.00    +0.000 C 
ENDBRANCH  22  27
BRANCH  23  29
ATOM     29  O   UNL     1       4.029  14.311  18.130  0.00  0.00    +0.000 OA
ATOM     30  C   UNL     1       3.598  15.304  17.210  0.00  0.00    +0.000 C 
ENDBRANCH  23  29
ENDBRANCH   3  19
TORSDOF 6
ENDMDL
MODEL 9
REMARK VINA RESULT:      -7.3      3.935      8.214
REMARK  Name = 
REMARK  11 active torsions:
REMARK  status: ('A' for Active; 'I' for Inactive)
REMARK    1  A    between atoms: C_1  and  C_2
REMARK    2  A    between atoms: C_3  and  C_4
REMARK    3  A    between atoms: C_3  and  C_16
REMARK    4  A    between atoms: C_6  and  O_7
REMARK    5  A    between atoms: O_7  and  C_8
REMARK    6  A    between atoms: C_9  and  O_10
REMARK    7  A    between atoms: O_10  and  C_11
REMARK    8  A    between atoms: C_12  and  O_13
REMARK    9  A    between atoms: O_13  and  C_14
REMARK   10  A    between atoms: N_28  and  C_29
REMARK   11  A    between atoms: C_29  and  C_30
REMARK                            x       y       z     vdW  Elec       q    Type
REMARK                         _______ _______ _______ _____ _____    ______ ____
ROOT
ATOM      1  C   UNL     1      -1.581  10.142  17.670  0.00  0.00    +0.000 C 
ATOM      2  C   UNL     1      -0.532  11.112  18.110  0.00  0.00    +0.000 C 
ATOM      3  C   UNL     1       0.565  10.859  18.855  0.00  0.00    +0.000 C 
ENDROOT
BRANCH   3   4
ATOM      4  C   UNL     1       0.878   9.487  19.324  0.00  0.00    +0.000 A 
ATOM      5  C   UNL     1       0.608   9.074  20.633  0.00  0.00    +0.000 A 
ATOM      6  C   UNL     1       1.120   7.856  21.153  0.00  0.00    +0.000 A 
ATOM      7  C   UNL     1       1.976   7.133  20.307  0.00  0.00    +0.000 A 
ATOM      8  C   UNL     1       2.115   7.456  18.960  0.00  0.00    +0.000 A 
ATOM      9  C   UNL     1       1.542   8.625  18.442  0.00  0.00    +0.000 A 
ATOM     10  C   UNL     1       2.839   6.379  18.429  0.00  0.00    +0.000 A 
ATOM     11  C   UNL     1       2.818   5.511  17.321  0.00  0.00    +0.000 A 
ATOM     12  C   UNL     1       3.819   4.527  17.263  0.00  0.00    +0.000 A 
ATOM     13  C   UNL     1       4.926   4.578  18.121  0.00  0.00    +0.000 A 
ATOM     14  C   UNL     1       4.951   5.453  19.212  0.00  0.00    +0.000 A 
ATOM     15  C   UNL     1       3.762   6.138  19.437  0.00  0.00    +0.000 A 
ATOM     16  N   UNL     1       2.819   6.016  20.503  0.00  0.00    +0.000 N 
BRANCH  16  17
ATOM     17  C   UNL     1       2.396   4.635  20.764  0.00  0.00    +0.000 C 
ATOM     18  C   UNL     1       1.002   4.174  20.450  0.00  0.00    +0.000 C 
ENDBRANCH  16  17
ENDBRANCH   3   4
BRANCH   3  19
ATOM     19  C   UNL     1       1.351  12.042  19.253  0.00  0.00    +0.000 A 
ATOM     20  C   UNL     1       2.347  12.539  18.411  0.00  0.00    +0.000 A 
ATOM     21  C   UNL     1       3.122  13.636  18.803  0.00  0.00    +0.000 A 
ATOM     22  C   UNL     1       2.911  14.227  20.065  0.00  0.00    +0.000 A 
ATOM     23  C   UNL     1       1.928  13.710  20.936  0.00  0.00    +0.000 A 
ATOM     24  C   UNL     1       1.136  12.626  20.502  0.00  0.00    +0.000 A 
BRANCH  21  25
ATOM     25  O   UNL     1       4.121  14.167  18.022  0.00  0.00    +0.000 OA
ATOM     26  C   UNL     1       3.790  15.324  17.263  0.00  0.00    +0.000 C 
ENDBRANCH  21  25
BRANCH  22  27
ATOM     27  O   UNL     1       3.784  15.245  20.390  0.00  0.00    +0.000 OA
ATOM     28  C   UNL     1       4.919  14.889  21.167  0.00  0.00    +0.000 C 
ENDBRANCH  22  27
BRANCH  23  29
ATOM     29  O   UNL     1       1.785  14.269  22.173  0.00  0.00    +0.000 OA
ATOM     30  C   UNL     1       0.814  15.293  22.340  0.00  0.00    +0.000 C 
ENDBRANCH  23  29
ENDBRANCH   3  19
TORSDOF 6
ENDMDL
