MODEL 1
REMARK VINA RESULT:      -8.9      0.000      0.000
REMARK  Name = 
REMARK  9 active torsions:
REMARK  status: ('A' for Active; 'I' for Inactive)
REMARK    1  A    between atoms: C_1  and  C_2
REMARK    2  A    between atoms: N_6  and  S_7
REMARK    3  A    between atoms: S_7  and  C_10
REMARK    4  A    between atoms: C_15  and  O_16
REMARK    5  A    between atoms: C_18  and  C_19
REMARK    6  A    between atoms: N_21  and  C_22
REMARK    7  A    between atoms: C_22  and  C_23
REMARK    8  A    between atoms: C_23  and  C_24
REMARK    9  A    between atoms: C_24  and  N_25
REMARK                            x       y       z     vdW  Elec       q    Type
REMARK                         _______ _______ _______ _____ _____    ______ ____
ROOT
ATOM      1  C   UNL     1       5.149   4.666  16.883  0.00  0.00    +0.000 A 
ATOM      2  C   UNL     1       4.967   3.290  16.814  0.00  0.00    +0.000 A 
ATOM      3  C   UNL     1       3.945   2.691  17.569  0.00  0.00    +0.000 A 
ATOM      4  C   UNL     1       3.073   3.431  18.367  0.00  0.00    +0.000 A 
ATOM      5  N   UNL     1       2.103   2.790  19.046  0.00  0.00    +0.000 NA
ATOM      6  C   UNL     1       1.264   3.535  19.783  0.00  0.00    +0.000 A 
ATOM      7  C   UNL     1       1.300   4.903  19.899  0.00  0.00    +0.000 A 
ATOM      8  C   UNL     1       2.311   5.562  19.207  0.00  0.00    +0.000 A 
ATOM      9  C   UNL     1       3.244   4.832  18.425  0.00  0.00    +0.000 A 
ATOM     10  C   UNL     1       4.322   5.417  17.714  0.00  0.00    +0.000 A 
ENDROOT
BRANCH   8  11
ATOM     11  C   UNL     1       2.335   7.050  19.182  0.00  0.00    +0.000 C 
ATOM     12  O   UNL     1       2.713   7.678  20.166  0.00  0.00    +0.000 OA
ATOM     13  N   UNL     1       1.949   7.680  18.020  0.00  0.00    +0.000 N 
ATOM     14  H   UNL     1       1.742   7.169  17.172  0.00  0.00    +0.000 HD
BRANCH  13  15
ATOM     15  C   UNL     1       2.039   9.123  17.937  0.00  0.00    +0.000 C 
BRANCH  15  16
ATOM     16  C   UNL     1       0.661   9.778  18.022  0.00  0.00    +0.000 C 
BRANCH  16  17
ATOM     17  C   UNL     1       0.651  11.041  18.899  0.00  0.00    +0.000 C 
BRANCH  17  18
ATOM     18  N   UNL     1       0.035  10.844  20.225  0.00  0.00    +0.000 NA
ATOM     19  C   UNL     1       0.888  10.064  21.125  0.00  0.00    +0.000 C 
ATOM     20  C   UNL     1       0.059   9.215  22.090  0.00  0.00    +0.000 C 
ATOM     21  C   UNL     1      -0.510   9.958  23.289  0.00  0.00    +0.000 C 
ATOM     22  C   UNL     1      -1.399  11.141  22.931  0.00  0.00    +0.000 C 
ATOM     23  C   UNL     1      -0.606  12.268  22.283  0.00  0.00    +0.000 C 
ATOM     24  C   UNL     1      -0.434  12.131  20.767  0.00  0.00    +0.000 C 
ENDBRANCH  17  18
ENDBRANCH  16  17
ENDBRANCH  15  16
ENDBRANCH  13  15
ENDBRANCH   8  11
BRANCH   1  25
ATOM     25  S   UNL     1       6.544   5.460  16.109  0.00  0.00    +0.000 S 
ATOM     26  O   UNL     1       7.735   4.796  16.613  0.00  0.00    +0.000 OA
ATOM     27  O   UNL     1       6.388   6.891  16.259  0.00  0.00    +0.000 OA
BRANCH  25  33
ATOM     28  C   UNL     1       4.701   3.872  12.095  0.00  0.00    +0.000 C 
ATOM     29  C   UNL     1       5.946   3.257  12.740  0.00  0.00    +0.000 C 
ATOM     30  C   UNL     1       7.226   3.640  11.997  0.00  0.00    +0.000 C 
ATOM     31  C   UNL     1       7.521   5.123  12.165  0.00  0.00    +0.000 C 
ATOM     32  C   UNL     1       7.618   5.502  13.639  0.00  0.00    +0.000 C 
ATOM     33  N   UNL     1       6.401   5.093  14.416  0.00  0.00    +0.000 NA
ATOM     34  C   UNL     1       6.066   3.638  14.223  0.00  0.00    +0.000 C 
ENDBRANCH  25  33
ENDBRANCH   1  25
BRANCH   6  35
ATOM     35  O   UNL     1       0.303   2.827  20.426  0.00  0.00    +0.000 OA
ATOM     36  H   UNL     1       0.667   2.801  21.330  0.00  0.00    +0.000 HD
ENDBRANCH   6  35
TORSDOF 8
ENDMDL
MODEL 2
REMARK VINA RESULT:      -8.7      0.287      1.067
REMARK  Name = 
REMARK  9 active torsions:
REMARK  status: ('A' for Active; 'I' for Inactive)
REMARK    1  A    between atoms: C_1  and  C_2
REMARK    2  A    between atoms: N_6  and  S_7
REMARK    3  A    between atoms: S_7  and  C_10
REMARK    4  A    between atoms: C_15  and  O_16
REMARK    5  A    between atoms: C_18  and  C_19
REMARK    6  A    between atoms: N_21  and  C_22
REMARK    7  A    between atoms: C_22  and  C_23
REMARK    8  A    between atoms: C_23  and  C_24
REMARK    9  A    between atoms: C_24  and  N_25
REMARK                            x       y       z     vdW  Elec       q    Type
REMARK                         _______ _______ _______ _____ _____    ______ ____
ROOT
ATOM      1  C   UNL     1       5.206   4.627  16.842  0.00  0.00    +0.000 A 
ATOM      2  C   UNL     1       5.035   3.249  16.774  0.00  0.00    +0.000 A 
ATOM      3  C   UNL     1       4.017   2.643  17.531  0.00  0.00    +0.000 A 
ATOM      4  C   UNL     1       3.139   3.378  18.327  0.00  0.00    +0.000 A 
ATOM      5  N   UNL     1       2.174   2.731  19.007  0.00  0.00    +0.000 NA
ATOM      6  C   UNL     1       1.329   3.470  19.741  0.00  0.00    +0.000 A 
ATOM      7  C   UNL     1       1.354   4.838  19.855  0.00  0.00    +0.000 A 
ATOM      8  C   UNL     1       2.359   5.504  19.162  0.00  0.00    +0.000 A 
ATOM      9  C   UNL     1       3.298   4.780  18.382  0.00  0.00    +0.000 A 
ATOM     10  C   UNL     1       4.372   5.372  17.670  0.00  0.00    +0.000 A 
ENDROOT
BRANCH   8  11
ATOM     11  C   UNL     1       2.371   6.992  19.134  0.00  0.00    +0.000 C 
ATOM     12  O   UNL     1       2.539   7.628  20.171  0.00  0.00    +0.000 OA
ATOM     13  N   UNL     1       2.217   7.614  17.916  0.00  0.00    +0.000 N 
ATOM     14  H   UNL     1       2.188   7.098  17.046  0.00  0.00    +0.000 HD
BRANCH  13  15
ATOM     15  C   UNL     1       2.306   9.058  17.845  0.00  0.00    +0.000 C 
BRANCH  15  16
ATOM     16  C   UNL     1       0.982   9.721  18.224  0.00  0.00    +0.000 C 
BRANCH  16  17
ATOM     17  C   UNL     1       1.172  11.015  19.034  0.00  0.00    +0.000 C 
BRANCH  17  18
ATOM     18  N   UNL     1       0.593  10.962  20.390  0.00  0.00    +0.000 NA
ATOM     19  C   UNL     1      -0.578  11.832  20.531  0.00  0.00    +0.000 C 
ATOM     20  C   UNL     1      -0.692  12.398  21.947  0.00  0.00    +0.000 C 
ATOM     21  C   UNL     1      -1.282  11.451  22.982  0.00  0.00    +0.000 C 
ATOM     22  C   UNL     1      -0.529  10.137  23.134  0.00  0.00    +0.000 C 
ATOM     23  C   UNL     1      -0.653   9.267  21.890  0.00  0.00    +0.000 C 
ATOM     24  C   UNL     1       0.386   9.565  20.804  0.00  0.00    +0.000 C 
ENDBRANCH  17  18
ENDBRANCH  16  17
ENDBRANCH  15  16
ENDBRANCH  13  15
ENDBRANCH   8  11
BRANCH   1  25
ATOM     25  S   UNL     1       6.594   5.431  16.066  0.00  0.00    +0.000 S 
ATOM     26  O   UNL     1       7.789   4.755  16.546  0.00  0.00    +0.000 OA
ATOM     27  O   UNL     1       6.443   6.859  16.243  0.00  0.00    +0.000 OA
BRANCH  25  33
ATOM     28  C   UNL     1       4.736   3.854  12.055  0.00  0.00    +0.000 C 
ATOM     29  C   UNL     1       6.016   3.276  12.663  0.00  0.00    +0.000 C 
ATOM     30  C   UNL     1       7.266   3.725  11.904  0.00  0.00    +0.000 C 
ATOM     31  C   UNL     1       7.506   5.215  12.099  0.00  0.00    +0.000 C 
ATOM     32  C   UNL     1       7.617   5.566  13.577  0.00  0.00    +0.000 C 
ATOM     33  N   UNL     1       6.432   5.094  14.369  0.00  0.00    +0.000 NA
ATOM     34  C   UNL     1       6.151   3.631  14.150  0.00  0.00    +0.000 C 
ENDBRANCH  25  33
ENDBRANCH   1  25
BRANCH   6  35
ATOM     35  O   UNL     1       0.373   2.755  20.386  0.00  0.00    +0.000 OA
ATOM     36  H   UNL     1      -0.341   3.415  20.447  0.00  0.00    +0.000 HD
ENDBRANCH   6  35
TORSDOF 8
ENDMDL
MODEL 3
REMARK VINA RESULT:      -8.7      1.949      2.745
REMARK  Name = 
REMARK  9 active torsions:
REMARK  status: ('A' for Active; 'I' for Inactive)
REMARK    1  A    between atoms: C_1  and  C_2
REMARK    2  A    between atoms: N_6  and  S_7
REMARK    3  A    between atoms: S_7  and  C_10
REMARK    4  A    between atoms: C_15  and  O_16
REMARK    5  A    between atoms: C_18  and  C_19
REMARK    6  A    between atoms: N_21  and  C_22
REMARK    7  A    between atoms: C_22  and  C_23
REMARK    8  A    between atoms: C_23  and  C_24
REMARK    9  A    between atoms: C_24  and  N_25
REMARK                            x       y       z     vdW  Elec       q    Type
REMARK                         _______ _______ _______ _____ _____    ______ ____
ROOT
ATOM      1  C   UNL     1       5.296   4.629  16.839  0.00  0.00    +0.000 A 
ATOM      2  C   UNL     1       5.103   3.255  16.902  0.00  0.00    +0.000 A 
ATOM      3  C   UNL     1       4.057   2.740  17.686  0.00  0.00    +0.000 A 
ATOM      4  C   UNL     1       3.171   3.561  18.383  0.00  0.00    +0.000 A 
ATOM      5  N   UNL     1       2.178   2.998  19.096  0.00  0.00    +0.000 NA
ATOM      6  C   UNL     1       1.327   3.817  19.732  0.00  0.00    +0.000 A 
ATOM      7  C   UNL     1       1.372   5.189  19.713  0.00  0.00    +0.000 A 
ATOM      8  C   UNL     1       2.407   5.770  18.986  0.00  0.00    +0.000 A 
ATOM      9  C   UNL     1       3.353   4.960  18.306  0.00  0.00    +0.000 A 
ATOM     10  C   UNL     1       4.454   5.464  17.569  0.00  0.00    +0.000 A 
ENDROOT
BRANCH   8  11
ATOM     11  C   UNL     1       2.444   7.247  18.814  0.00  0.00    +0.000 C 
ATOM     12  O   UNL     1       3.113   7.747  17.914  0.00  0.00    +0.000 OA
ATOM     13  N   UNL     1       1.690   8.015  19.673  0.00  0.00    +0.000 N 
ATOM     14  H   UNL     1       1.053   7.606  20.344  0.00  0.00    +0.000 HD
BRANCH  13  15
ATOM     15  C   UNL     1       1.641   9.449  19.479  0.00  0.00    +0.000 C 
BRANCH  15  16
ATOM     16  C   UNL     1       0.486   9.854  18.564  0.00  0.00    +0.000 C 
BRANCH  16  17
ATOM     17  C   UNL     1      -0.758  10.319  19.340  0.00  0.00    +0.000 C 
BRANCH  17  18
ATOM     18  N   UNL     1      -1.965  10.466  18.504  0.00  0.00    +0.000 NA
ATOM     19  C   UNL     1      -2.576  11.791  18.635  0.00  0.00    +0.000 C 
ATOM     20  C   UNL     1      -4.096  11.729  18.477  0.00  0.00    +0.000 C 
ATOM     21  C   UNL     1      -4.599  11.649  17.044  0.00  0.00    +0.000 C 
ATOM     22  C   UNL     1      -4.065  10.462  16.254  0.00  0.00    +0.000 C 
ATOM     23  C   UNL     1      -2.569  10.583  15.995  0.00  0.00    +0.000 C 
ATOM     24  C   UNL     1      -1.684  10.041  17.123  0.00  0.00    +0.000 C 
ENDBRANCH  17  18
ENDBRANCH  16  17
ENDBRANCH  15  16
ENDBRANCH  13  15
ENDBRANCH   8  11
BRANCH   1  25
ATOM     25  S   UNL     1       6.717   5.334  16.028  0.00  0.00    +0.000 S 
ATOM     26  O   UNL     1       7.873   4.574  16.476  0.00  0.00    +0.000 OA
ATOM     27  O   UNL     1       6.672   6.769  16.207  0.00  0.00    +0.000 OA
BRANCH  25  33
ATOM     28  C   UNL     1       4.680   3.828  12.076  0.00  0.00    +0.000 C 
ATOM     29  C   UNL     1       5.967   3.215  12.635  0.00  0.00    +0.000 C 
ATOM     30  C   UNL     1       7.199   3.639  11.834  0.00  0.00    +0.000 C 
ATOM     31  C   UNL     1       7.481   5.122  12.028  0.00  0.00    +0.000 C 
ATOM     32  C   UNL     1       7.654   5.461  13.504  0.00  0.00    +0.000 C 
ATOM     33  N   UNL     1       6.487   5.012  14.335  0.00  0.00    +0.000 NA
ATOM     34  C   UNL     1       6.163   3.557  14.119  0.00  0.00    +0.000 C 
ENDBRANCH  25  33
ENDBRANCH   1  25
BRANCH   6  35
ATOM     35  O   UNL     1       0.344   3.182  20.417  0.00  0.00    +0.000 OA
ATOM     36  H   UNL     1      -0.107   3.937  20.836  0.00  0.00    +0.000 HD
ENDBRANCH   6  35
TORSDOF 8
ENDMDL
MODEL 4
REMARK VINA RESULT:      -8.7      4.906      8.641
REMARK  Name = 
REMARK  9 active torsions:
REMARK  status: ('A' for Active; 'I' for Inactive)
REMARK    1  A    between atoms: C_1  and  C_2
REMARK    2  A    between atoms: N_6  and  S_7
REMARK    3  A    between atoms: S_7  and  C_10
REMARK    4  A    between atoms: C_15  and  O_16
REMARK    5  A    between atoms: C_18  and  C_19
REMARK    6  A    between atoms: N_21  and  C_22
REMARK    7  A    between atoms: C_22  and  C_23
REMARK    8  A    between atoms: C_23  and  C_24
REMARK    9  A    between atoms: C_24  and  N_25
REMARK                            x       y       z     vdW  Elec       q    Type
REMARK                         _______ _______ _______ _____ _____    ______ ____
ROOT
ATOM      1  C   UNL     1       2.189   7.949  18.803  0.00  0.00    +0.000 A 
ATOM      2  C   UNL     1       1.484   7.132  19.679  0.00  0.00    +0.000 A 
ATOM      3  C   UNL     1       1.979   5.851  19.977  0.00  0.00    +0.000 A 
ATOM      4  C   UNL     1       3.180   5.373  19.453  0.00  0.00    +0.000 A 
ATOM      5  N   UNL     1       3.602   4.143  19.800  0.00  0.00    +0.000 NA
ATOM      6  C   UNL     1       4.775   3.724  19.300  0.00  0.00    +0.000 A 
ATOM      7  C   UNL     1       5.593   4.447  18.468  0.00  0.00    +0.000 A 
ATOM      8  C   UNL     1       5.149   5.713  18.099  0.00  0.00    +0.000 A 
ATOM      9  C   UNL     1       3.908   6.208  18.578  0.00  0.00    +0.000 A 
ATOM     10  C   UNL     1       3.364   7.471  18.229  0.00  0.00    +0.000 A 
ENDROOT
BRANCH   8  11
ATOM     11  C   UNL     1       6.040   6.602  17.306  0.00  0.00    +0.000 C 
ATOM     12  O   UNL     1       5.801   6.817  16.121  0.00  0.00    +0.000 OA
ATOM     13  N   UNL     1       7.108   7.184  17.951  0.00  0.00    +0.000 N 
ATOM     14  H   UNL     1       7.248   7.099  18.949  0.00  0.00    +0.000 HD
BRANCH  13  15
ATOM     15  C   UNL     1       7.945   8.118  17.227  0.00  0.00    +0.000 C 
BRANCH  15  16
ATOM     16  C   UNL     1       7.906   9.511  17.854  0.00  0.00    +0.000 C 
BRANCH  16  17
ATOM     17  C   UNL     1       8.943   9.693  18.975  0.00  0.00    +0.000 C 
BRANCH  17  18
ATOM     18  N   UNL     1       9.807  10.877  18.805  0.00  0.00    +0.000 NA
ATOM     19  C   UNL     1       9.089  12.010  18.215  0.00  0.00    +0.000 C 
ATOM     20  C   UNL     1      10.009  12.867  17.344  0.00  0.00    +0.000 C 
ATOM     21  C   UNL     1      10.903  13.839  18.099  0.00  0.00    +0.000 C 
ATOM     22  C   UNL     1      11.818  13.184  19.125  0.00  0.00    +0.000 C 
ATOM     23  C   UNL     1      11.032  12.599  20.291  0.00  0.00    +0.000 C 
ATOM     24  C   UNL     1      10.521  11.173  20.058  0.00  0.00    +0.000 C 
ENDBRANCH  17  18
ENDBRANCH  16  17
ENDBRANCH  15  16
ENDBRANCH  13  15
ENDBRANCH   8  11
BRANCH   1  25
ATOM     25  S   UNL     1       1.520   9.498  18.233  0.00  0.00    +0.000 S 
ATOM     26  O   UNL     1       0.308   9.182  17.494  0.00  0.00    +0.000 OA
ATOM     27  O   UNL     1       2.587  10.244  17.601  0.00  0.00    +0.000 OA
BRANCH  25  33
ATOM     28  C   UNL     1      -0.273  10.294  22.497  0.00  0.00    +0.000 C 
ATOM     29  C   UNL     1      -0.861  10.901  21.221  0.00  0.00    +0.000 C 
ATOM     30  C   UNL     1      -0.529  12.388  21.086  0.00  0.00    +0.000 C 
ATOM     31  C   UNL     1       0.958  12.585  20.836  0.00  0.00    +0.000 C 
ATOM     32  C   UNL     1       1.417  11.816  19.602  0.00  0.00    +0.000 C 
ATOM     33  N   UNL     1       1.062  10.360  19.672  0.00  0.00    +0.000 NA
ATOM     34  C   UNL     1      -0.400  10.145  19.966  0.00  0.00    +0.000 C 
ENDBRANCH  25  33
ENDBRANCH   1  25
BRANCH   6  35
ATOM     35  O   UNL     1       5.145   2.484  19.704  0.00  0.00    +0.000 OA
ATOM     36  H   UNL     1       5.737   2.222  18.976  0.00  0.00    +0.000 HD
ENDBRANCH   6  35
TORSDOF 8
ENDMDL
MODEL 5
REMARK VINA RESULT:      -8.6      4.817      8.413
REMARK  Name = 
REMARK  9 active torsions:
REMARK  status: ('A' for Active; 'I' for Inactive)
REMARK    1  A    between atoms: C_1  and  C_2
REMARK    2  A    between atoms: N_6  and  S_7
REMARK    3  A    between atoms: S_7  and  C_10
REMARK    4  A    between atoms: C_15  and  O_16
REMARK    5  A    between atoms: C_18  and  C_19
REMARK    6  A    between atoms: N_21  and  C_22
REMARK    7  A    between atoms: C_22  and  C_23
REMARK    8  A    between atoms: C_23  and  C_24
REMARK    9  A    between atoms: C_24  and  N_25
REMARK                            x       y       z     vdW  Elec       q    Type
REMARK                         _______ _______ _______ _____ _____    ______ ____
ROOT
ATOM      1  C   UNL     1       2.199   7.892  18.840  0.00  0.00    +0.000 A 
ATOM      2  C   UNL     1       1.487   7.080  19.714  0.00  0.00    +0.000 A 
ATOM      3  C   UNL     1       1.968   5.793  20.005  0.00  0.00    +0.000 A 
ATOM      4  C   UNL     1       3.163   5.304  19.477  0.00  0.00    +0.000 A 
ATOM      5  N   UNL     1       3.572   4.067  19.818  0.00  0.00    +0.000 NA
ATOM      6  C   UNL     1       4.739   3.638  19.314  0.00  0.00    +0.000 A 
ATOM      7  C   UNL     1       5.564   4.355  18.483  0.00  0.00    +0.000 A 
ATOM      8  C   UNL     1       5.133   5.627  18.120  0.00  0.00    +0.000 A 
ATOM      9  C   UNL     1       3.898   6.134  18.603  0.00  0.00    +0.000 A 
ATOM     10  C   UNL     1       3.367   7.404  18.262  0.00  0.00    +0.000 A 
ENDROOT
BRANCH   8  11
ATOM     11  C   UNL     1       6.032   6.510  17.329  0.00  0.00    +0.000 C 
ATOM     12  O   UNL     1       5.816   6.701  16.136  0.00  0.00    +0.000 OA
ATOM     13  N   UNL     1       7.081   7.114  17.984  0.00  0.00    +0.000 N 
ATOM     14  H   UNL     1       7.200   7.049  18.986  0.00  0.00    +0.000 HD
BRANCH  13  15
ATOM     15  C   UNL     1       7.924   8.043  17.260  0.00  0.00    +0.000 C 
BRANCH  15  16
ATOM     16  C   UNL     1       7.886   9.438  17.882  0.00  0.00    +0.000 C 
BRANCH  16  17
ATOM     17  C   UNL     1       9.089   9.719  18.798  0.00  0.00    +0.000 C 
BRANCH  17  18
ATOM     18  N   UNL     1       9.260  11.144  19.142  0.00  0.00    +0.000 NA
ATOM     19  C   UNL     1      10.463  11.383  19.943  0.00  0.00    +0.000 C 
ATOM     20  C   UNL     1      10.268  12.544  20.919  0.00  0.00    +0.000 C 
ATOM     21  C   UNL     1      10.405  13.933  20.315  0.00  0.00    +0.000 C 
ATOM     22  C   UNL     1       9.453  14.215  19.161  0.00  0.00    +0.000 C 
ATOM     23  C   UNL     1       9.782  13.369  17.938  0.00  0.00    +0.000 C 
ATOM     24  C   UNL     1       9.136  11.979  17.936  0.00  0.00    +0.000 C 
ENDBRANCH  17  18
ENDBRANCH  16  17
ENDBRANCH  15  16
ENDBRANCH  13  15
ENDBRANCH   8  11
BRANCH   1  25
ATOM     25  S   UNL     1       1.545   9.452  18.277  0.00  0.00    +0.000 S 
ATOM     26  O   UNL     1       0.332   9.152  17.534  0.00  0.00    +0.000 OA
ATOM     27  O   UNL     1       2.620  10.191  17.651  0.00  0.00    +0.000 OA
BRANCH  25  33
ATOM     28  C   UNL     1      -0.231  10.237  22.550  0.00  0.00    +0.000 C 
ATOM     29  C   UNL     1      -0.824  10.847  21.277  0.00  0.00    +0.000 C 
ATOM     30  C   UNL     1      -0.491  12.335  21.146  0.00  0.00    +0.000 C 
ATOM     31  C   UNL     1       0.996  12.532  20.891  0.00  0.00    +0.000 C 
ATOM     32  C   UNL     1       1.449  11.766  19.654  0.00  0.00    +0.000 C 
ATOM     33  N   UNL     1       1.093  10.309  19.720  0.00  0.00    +0.000 NA
ATOM     34  C   UNL     1      -0.367  10.095  20.019  0.00  0.00    +0.000 C 
ENDBRANCH  25  33
ENDBRANCH   1  25
BRANCH   6  35
ATOM     35  O   UNL     1       5.097   2.392  19.712  0.00  0.00    +0.000 OA
ATOM     36  H   UNL     1       4.828   1.866  18.937  0.00  0.00    +0.000 HD
ENDBRANCH   6  35
TORSDOF 8
ENDMDL
MODEL 6
REMARK VINA RESULT:      -8.4      1.301      2.083
REMARK  Name = 
REMARK  9 active torsions:
REMARK  status: ('A' for Active; 'I' for Inactive)
REMARK    1  A    between atoms: C_1  and  C_2
REMARK    2  A    between atoms: N_6  and  S_7
REMARK    3  A    between atoms: S_7  and  C_10
REMARK    4  A    between atoms: C_15  and  O_16
REMARK    5  A    between atoms: C_18  and  C_19
REMARK    6  A    between atoms: N_21  and  C_22
REMARK    7  A    between atoms: C_22  and  C_23
REMARK    8  A    between atoms: C_23  and  C_24
REMARK    9  A    between atoms: C_24  and  N_25
REMARK                            x       y       z     vdW  Elec       q    Type
REMARK                         _______ _______ _______ _____ _____    ______ ____
ROOT
ATOM      1  C   UNL     1       5.116   4.714  16.932  0.00  0.00    +0.000 A 
ATOM      2  C   UNL     1       4.969   3.334  16.866  0.00  0.00    +0.000 A 
ATOM      3  C   UNL     1       3.968   2.709  17.629  0.00  0.00    +0.000 A 
ATOM      4  C   UNL     1       3.083   3.428  18.432  0.00  0.00    +0.000 A 
ATOM      5  N   UNL     1       2.134   2.763  19.118  0.00  0.00    +0.000 NA
ATOM      6  C   UNL     1       1.281   3.487  19.859  0.00  0.00    +0.000 A 
ATOM      7  C   UNL     1       1.281   4.855  19.972  0.00  0.00    +0.000 A 
ATOM      8  C   UNL     1       2.270   5.540  19.273  0.00  0.00    +0.000 A 
ATOM      9  C   UNL     1       3.217   4.833  18.486  0.00  0.00    +0.000 A 
ATOM     10  C   UNL     1       4.275   5.445  17.767  0.00  0.00    +0.000 A 
ENDROOT
BRANCH   8  11
ATOM     11  C   UNL     1       2.254   7.027  19.245  0.00  0.00    +0.000 C 
ATOM     12  O   UNL     1       2.333   7.665  20.291  0.00  0.00    +0.000 OA
ATOM     13  N   UNL     1       2.178   7.647  18.018  0.00  0.00    +0.000 N 
ATOM     14  H   UNL     1       2.224   7.132  17.149  0.00  0.00    +0.000 HD
BRANCH  13  15
ATOM     15  C   UNL     1       2.244   9.093  17.953  0.00  0.00    +0.000 C 
BRANCH  15  16
ATOM     16  C   UNL     1       0.851   9.714  17.857  0.00  0.00    +0.000 C 
BRANCH  16  17
ATOM     17  C   UNL     1       0.461  10.509  19.115  0.00  0.00    +0.000 C 
BRANCH  17  18
ATOM     18  N   UNL     1       1.370  11.631  19.420  0.00  0.00    +0.000 NA
ATOM     19  C   UNL     1       1.380  12.643  18.360  0.00  0.00    +0.000 C 
ATOM     20  C   UNL     1       2.749  13.313  18.235  0.00  0.00    +0.000 C 
ATOM     21  C   UNL     1       3.040  14.398  19.261  0.00  0.00    +0.000 C 
ATOM     22  C   UNL     1       2.951  13.935  20.709  0.00  0.00    +0.000 C 
ATOM     23  C   UNL     1       1.522  13.585  21.103  0.00  0.00    +0.000 C 
ATOM     24  C   UNL     1       1.108  12.147  20.774  0.00  0.00    +0.000 C 
ENDBRANCH  17  18
ENDBRANCH  16  17
ENDBRANCH  15  16
ENDBRANCH  13  15
ENDBRANCH   8  11
BRANCH   1  25
ATOM     25  S   UNL     1       6.484   5.544  16.148  0.00  0.00    +0.000 S 
ATOM     26  O   UNL     1       7.696   4.934  16.670  0.00  0.00    +0.000 OA
ATOM     27  O   UNL     1       6.274   6.970  16.267  0.00  0.00    +0.000 OA
BRANCH  25  33
ATOM     28  C   UNL     1       4.708   3.831  12.155  0.00  0.00    +0.000 C 
ATOM     29  C   UNL     1       5.959   3.256  12.823  0.00  0.00    +0.000 C 
ATOM     30  C   UNL     1       7.238   3.649  12.082  0.00  0.00    +0.000 C 
ATOM     31  C   UNL     1       7.501   5.141  12.220  0.00  0.00    +0.000 C 
ATOM     32  C   UNL     1       7.578   5.554  13.686  0.00  0.00    +0.000 C 
ATOM     33  N   UNL     1       6.363   5.137  14.462  0.00  0.00    +0.000 NA
ATOM     34  C   UNL     1       6.060   3.672  14.298  0.00  0.00    +0.000 C 
ENDBRANCH  25  33
ENDBRANCH   1  25
BRANCH   6  35
ATOM     35  O   UNL     1       0.343   2.755  20.509  0.00  0.00    +0.000 OA
ATOM     36  H   UNL     1      -0.192   3.460  20.916  0.00  0.00    +0.000 HD
ENDBRANCH   6  35
TORSDOF 8
ENDMDL
MODEL 7
REMARK VINA RESULT:      -8.2      1.026      1.306
REMARK  Name = 
REMARK  9 active torsions:
REMARK  status: ('A' for Active; 'I' for Inactive)
REMARK    1  A    between atoms: C_1  and  C_2
REMARK    2  A    between atoms: N_6  and  S_7
REMARK    3  A    between atoms: S_7  and  C_10
REMARK    4  A    between atoms: C_15  and  O_16
REMARK    5  A    between atoms: C_18  and  C_19
REMARK    6  A    between atoms: N_21  and  C_22
REMARK    7  A    between atoms: C_22  and  C_23
REMARK    8  A    between atoms: C_23  and  C_24
REMARK    9  A    between atoms: C_24  and  N_25
REMARK                            x       y       z     vdW  Elec       q    Type
REMARK                         _______ _______ _______ _____ _____    ______ ____
ROOT
ATOM      1  C   UNL     1       5.213   4.690  16.913  0.00  0.00    +0.000 A 
ATOM      2  C   UNL     1       5.038   3.312  16.889  0.00  0.00    +0.000 A 
ATOM      3  C   UNL     1       4.015   2.733  17.659  0.00  0.00    +0.000 A 
ATOM      4  C   UNL     1       3.135   3.495  18.426  0.00  0.00    +0.000 A 
ATOM      5  N   UNL     1       2.164   2.873  19.121  0.00  0.00    +0.000 NA
ATOM      6  C   UNL     1       1.317   3.637  19.827  0.00  0.00    +0.000 A 
ATOM      7  C   UNL     1       1.346   5.008  19.898  0.00  0.00    +0.000 A 
ATOM      8  C   UNL     1       2.357   5.649  19.189  0.00  0.00    +0.000 A 
ATOM      9  C   UNL     1       3.298   4.898  18.438  0.00  0.00    +0.000 A 
ATOM     10  C   UNL     1       4.378   5.464  17.713  0.00  0.00    +0.000 A 
ENDROOT
BRANCH   8  11
ATOM     11  C   UNL     1       2.374   7.135  19.114  0.00  0.00    +0.000 C 
ATOM     12  O   UNL     1       2.883   7.699  18.150  0.00  0.00    +0.000 OA
ATOM     13  N   UNL     1       1.781   7.838  20.139  0.00  0.00    +0.000 N 
ATOM     14  H   UNL     1       1.265   7.381  20.879  0.00  0.00    +0.000 HD
BRANCH  13  15
ATOM     15  C   UNL     1       1.708   9.282  20.054  0.00  0.00    +0.000 C 
BRANCH  15  16
ATOM     16  C   UNL     1       0.385   9.743  19.445  0.00  0.00    +0.000 C 
BRANCH  16  17
ATOM     17  C   UNL     1       0.129  11.247  19.639  0.00  0.00    +0.000 C 
BRANCH  17  18
ATOM     18  N   UNL     1      -0.962  11.552  20.585  0.00  0.00    +0.000 NA
ATOM     19  C   UNL     1      -0.472  11.768  21.949  0.00  0.00    +0.000 C 
ATOM     20  C   UNL     1      -1.490  11.306  22.993  0.00  0.00    +0.000 C 
ATOM     21  C   UNL     1      -2.634  12.273  23.260  0.00  0.00    +0.000 C 
ATOM     22  C   UNL     1      -3.455  12.631  22.030  0.00  0.00    +0.000 C 
ATOM     23  C   UNL     1      -2.650  13.455  21.033  0.00  0.00    +0.000 C 
ATOM     24  C   UNL     1      -1.817  12.624  20.051  0.00  0.00    +0.000 C 
ENDBRANCH  17  18
ENDBRANCH  16  17
ENDBRANCH  15  16
ENDBRANCH  13  15
ENDBRANCH   8  11
BRANCH   1  25
ATOM     25  S   UNL     1       6.609   5.465  16.121  0.00  0.00    +0.000 S 
ATOM     26  O   UNL     1       7.797   4.783  16.607  0.00  0.00    +0.000 OA
ATOM     27  O   UNL     1       6.475   6.897  16.274  0.00  0.00    +0.000 OA
BRANCH  25  33
ATOM     28  C   UNL     1       4.714   3.852  12.140  0.00  0.00    +0.000 C 
ATOM     29  C   UNL     1       5.987   3.263  12.755  0.00  0.00    +0.000 C 
ATOM     30  C   UNL     1       7.241   3.679  11.986  0.00  0.00    +0.000 C 
ATOM     31  C   UNL     1       7.506   5.168  12.155  0.00  0.00    +0.000 C 
ATOM     32  C   UNL     1       7.627   5.542  13.627  0.00  0.00    +0.000 C 
ATOM     33  N   UNL     1       6.437   5.102  14.429  0.00  0.00    +0.000 NA
ATOM     34  C   UNL     1       6.131   3.640  14.236  0.00  0.00    +0.000 C 
ENDBRANCH  25  33
ENDBRANCH   1  25
BRANCH   6  35
ATOM     35  O   UNL     1       0.356   2.946  20.489  0.00  0.00    +0.000 OA
ATOM     36  H   UNL     1       0.049   2.341  19.790  0.00  0.00    +0.000 HD
ENDBRANCH   6  35
TORSDOF 8
ENDMDL
MODEL 8
REMARK VINA RESULT:      -8.1      4.886     10.610
REMARK  Name = 
REMARK  9 active torsions:
REMARK  status: ('A' for Active; 'I' for Inactive)
REMARK    1  A    between atoms: C_1  and  C_2
REMARK    2  A    between atoms: N_6  and  S_7
REMARK    3  A    between atoms: S_7  and  C_10
REMARK    4  A    between atoms: C_15  and  O_16
REMARK    5  A    between atoms: C_18  and  C_19
REMARK    6  A    between atoms: N_21  and  C_22
REMARK    7  A    between atoms: C_22  and  C_23
REMARK    8  A    between atoms: C_23  and  C_24
REMARK    9  A    between atoms: C_24  and  N_25
REMARK                            x       y       z     vdW  Elec       q    Type
REMARK                         _______ _______ _______ _____ _____    ______ ____
ROOT
ATOM      1  C   UNL     1      -2.785  12.488  20.808  0.00  0.00    +0.000 A 
ATOM      2  C   UNL     1      -4.068  12.753  20.345  0.00  0.00    +0.000 A 
ATOM      3  C   UNL     1      -4.451  12.293  19.074  0.00  0.00    +0.000 A 
ATOM      4  C   UNL     1      -3.600  11.542  18.263  0.00  0.00    +0.000 A 
ATOM      5  N   UNL     1      -4.044  11.116  17.066  0.00  0.00    +0.000 NA
ATOM      6  C   UNL     1      -3.210  10.372  16.322  0.00  0.00    +0.000 A 
ATOM      7  C   UNL     1      -1.939   9.995  16.681  0.00  0.00    +0.000 A 
ATOM      8  C   UNL     1      -1.477  10.447  17.913  0.00  0.00    +0.000 A 
ATOM      9  C   UNL     1      -2.302  11.254  18.739  0.00  0.00    +0.000 A 
ATOM     10  C   UNL     1      -1.903  11.784  19.993  0.00  0.00    +0.000 A 
ENDROOT
BRANCH   8  11
ATOM     11  C   UNL     1      -0.162   9.973  18.423  0.00  0.00    +0.000 C 
ATOM     12  O   UNL     1      -0.046   9.619  19.593  0.00  0.00    +0.000 OA
ATOM     13  N   UNL     1       0.891   9.924  17.539  0.00  0.00    +0.000 N 
ATOM     14  H   UNL     1       0.776  10.109  16.551  0.00  0.00    +0.000 HD
BRANCH  13  15
ATOM     15  C   UNL     1       2.162   9.391  17.984  0.00  0.00    +0.000 C 
BRANCH  15  16
ATOM     16  C   UNL     1       2.307   7.912  17.628  0.00  0.00    +0.000 C 
BRANCH  16  17
ATOM     17  C   UNL     1       2.877   7.070  18.782  0.00  0.00    +0.000 C 
BRANCH  17  18
ATOM     18  N   UNL     1       2.172   5.792  18.995  0.00  0.00    +0.000 NA
ATOM     19  C   UNL     1       2.747   4.700  18.205  0.00  0.00    +0.000 C 
ATOM     20  C   UNL     1       1.681   3.686  17.785  0.00  0.00    +0.000 C 
ATOM     21  C   UNL     1       1.275   2.685  18.856  0.00  0.00    +0.000 C 
ATOM     22  C   UNL     1       0.748   3.315  20.138  0.00  0.00    +0.000 C 
ATOM     23  C   UNL     1       1.839   4.066  20.889  0.00  0.00    +0.000 C 
ATOM     24  C   UNL     1       2.037   5.517  20.435  0.00  0.00    +0.000 C 
ENDBRANCH  17  18
ENDBRANCH  16  17
ENDBRANCH  15  16
ENDBRANCH  13  15
ENDBRANCH   8  11
BRANCH   1  25
ATOM     25  S   UNL     1      -2.173  13.209  22.319  0.00  0.00    +0.000 S 
ATOM     26  O   UNL     1      -1.413  12.172  22.998  0.00  0.00    +0.000 OA
ATOM     27  O   UNL     1      -3.279  13.859  22.987  0.00  0.00    +0.000 OA
BRANCH  25  33
ATOM     28  C   UNL     1       1.338  15.295  20.005  0.00  0.00    +0.000 C 
ATOM     29  C   UNL     1       1.381  15.019  21.510  0.00  0.00    +0.000 C 
ATOM     30  C   UNL     1       1.171  16.291  22.333  0.00  0.00    +0.000 C 
ATOM     31  C   UNL     1      -0.253  16.802  22.178  0.00  0.00    +0.000 C 
ATOM     32  C   UNL     1      -1.267  15.734  22.568  0.00  0.00    +0.000 C 
ATOM     33  N   UNL     1      -1.062  14.449  21.820  0.00  0.00    +0.000 NA
ATOM     34  C   UNL     1       0.356  13.953  21.924  0.00  0.00    +0.000 C 
ENDBRANCH  25  33
ENDBRANCH   1  25
BRANCH   6  35
ATOM     35  O   UNL     1      -3.728   9.965  15.137  0.00  0.00    +0.000 OA
ATOM     36  H   UNL     1      -3.525   9.012  15.165  0.00  0.00    +0.000 HD
ENDBRANCH   6  35
TORSDOF 8
ENDMDL
MODEL 9
REMARK VINA RESULT:      -8.1      5.004     11.041
REMARK  Name = 
REMARK  9 active torsions:
REMARK  status: ('A' for Active; 'I' for Inactive)
REMARK    1  A    between atoms: C_1  and  C_2
REMARK    2  A    between atoms: N_6  and  S_7
REMARK    3  A    between atoms: S_7  and  C_10
REMARK    4  A    between atoms: C_15  and  O_16
REMARK    5  A    between atoms: C_18  and  C_19
REMARK    6  A    between atoms: N_21  and  C_22
REMARK    7  A    between atoms: C_22  and  C_23
REMARK    8  A    between atoms: C_23  and  C_24
REMARK    9  A    between atoms: C_24  and  N_25
REMARK                            x       y       z     vdW  Elec       q    Type
REMARK                         _______ _______ _______ _____ _____    ______ ____
ROOT
ATOM      1  C   UNL     1      -1.683  13.854  20.316  0.00  0.00    +0.000 A 
ATOM      2  C   UNL     1      -1.498  15.207  20.062  0.00  0.00    +0.000 A 
ATOM      3  C   UNL     1      -0.308  15.637  19.450  0.00  0.00    +0.000 A 
ATOM      4  C   UNL     1       0.690  14.749  19.049  0.00  0.00    +0.000 A 
ATOM      5  N   UNL     1       1.794  15.232  18.449  0.00  0.00    +0.000 NA
ATOM      6  C   UNL     1       2.722  14.349  18.050  0.00  0.00    +0.000 A 
ATOM      7  C   UNL     1       2.642  12.985  18.193  0.00  0.00    +0.000 A 
ATOM      8  C   UNL     1       1.506  12.488  18.826  0.00  0.00    +0.000 A 
ATOM      9  C   UNL     1       0.496  13.371  19.289  0.00  0.00    +0.000 A 
ATOM     10  C   UNL     1      -0.677  12.956  19.970  0.00  0.00    +0.000 A 
ENDROOT
BRANCH   8  11
ATOM     11  C   UNL     1       1.291  11.018  18.900  0.00  0.00    +0.000 C 
ATOM     12  O   UNL     1       0.905  10.503  19.946  0.00  0.00    +0.000 OA
ATOM     13  N   UNL     1       1.510  10.277  17.762  0.00  0.00    +0.000 N 
ATOM     14  H   UNL     1       1.721  10.706  16.870  0.00  0.00    +0.000 HD
BRANCH  13  15
ATOM     15  C   UNL     1       1.230   8.856  17.780  0.00  0.00    +0.000 C 
BRANCH  15  16
ATOM     16  C   UNL     1       2.505   8.035  17.969  0.00  0.00    +0.000 C 
BRANCH  16  17
ATOM     17  C   UNL     1       2.561   7.320  19.330  0.00  0.00    +0.000 C 
BRANCH  17  18
ATOM     18  N   UNL     1       1.996   5.957  19.314  0.00  0.00    +0.000 NA
ATOM     19  C   UNL     1       2.657   5.091  18.335  0.00  0.00    +0.000 C 
ATOM     20  C   UNL     1       1.688   4.064  17.748  0.00  0.00    +0.000 C 
ATOM     21  C   UNL     1       1.416   2.850  18.624  0.00  0.00    +0.000 C 
ATOM     22  C   UNL     1       0.863   3.180  20.003  0.00  0.00    +0.000 C 
ATOM     23  C   UNL     1       1.893   3.895  20.868  0.00  0.00    +0.000 C 
ATOM     24  C   UNL     1       1.929   5.416  20.682  0.00  0.00    +0.000 C 
ENDBRANCH  17  18
ENDBRANCH  16  17
ENDBRANCH  15  16
ENDBRANCH  13  15
ENDBRANCH   8  11
BRANCH   1  25
ATOM     25  S   UNL     1      -3.073  13.267  21.263  0.00  0.00    +0.000 S 
ATOM     26  O   UNL     1      -3.551  14.395  22.046  0.00  0.00    +0.000 OA
ATOM     27  O   UNL     1      -2.685  12.036  21.918  0.00  0.00    +0.000 OA
BRANCH  25  33
ATOM     28  C   UNL     1      -7.249  13.188  19.120  0.00  0.00    +0.000 C 
ATOM     29  C   UNL     1      -6.630  11.955  19.783  0.00  0.00    +0.000 C 
ATOM     30  C   UNL     1      -6.087  10.962  18.754  0.00  0.00    +0.000 C 
ATOM     31  C   UNL     1      -4.874  11.539  18.039  0.00  0.00    +0.000 C 
ATOM     32  C   UNL     1      -3.788  11.937  19.031  0.00  0.00    +0.000 C 
ATOM     33  N   UNL     1      -4.295  12.871  20.091  0.00  0.00    +0.000 NA
ATOM     34  C   UNL     1      -5.524  12.337  20.777  0.00  0.00    +0.000 C 
ENDBRANCH  25  33
ENDBRANCH   1  25
BRANCH   6  35
ATOM     35  O   UNL     1       3.798  14.903  17.439  0.00  0.00    +0.000 OA
ATOM     36  H   UNL     1       3.744  14.488  16.559  0.00  0.00    +0.000 HD
ENDBRANCH   6  35
TORSDOF 8
ENDMDL
