MODEL 1
REMARK VINA RESULT:      -7.7      0.000      0.000
REMARK  Name = 
REMARK  5 active torsions:
REMARK  status: ('A' for Active; 'I' for Inactive)
REMARK    1  A    between atoms: C_1  and  C_2
REMARK    2  A    between atoms: C_2  and  C_4
REMARK    3  A    between atoms: C_7  and  N_8
REMARK    4  A    between atoms: C_9  and  C_11
REMARK    5  A    between atoms: C_14  and  N_15
REMARK                            x       y       z     vdW  Elec       q    Type
REMARK                         _______ _______ _______ _____ _____    ______ ____
ROOT
ATOM      1  C   UNL     1       8.319   9.283  18.152  0.00  0.00    +0.000 A 
ATOM      2  C   UNL     1       7.710  10.260  17.358  0.00  0.00    +0.000 A 
ATOM      3  C   UNL     1       8.178  11.573  17.357  0.00  0.00    +0.000 A 
ATOM      4  C   UNL     1       9.272  11.952  18.141  0.00  0.00    +0.000 A 
ATOM      5  C   UNL     1       9.880  10.965  18.937  0.00  0.00    +0.000 A 
ATOM      6  C   UNL     1       9.403   9.642  18.956  0.00  0.00    +0.000 A 
ENDROOT
BRANCH   4   7
ATOM      7  N   UNL     1       9.739  13.294  18.116  0.00  0.00    +0.000 N 
ATOM      8  C   UNL     1      10.788  13.736  17.335  0.00  0.00    +0.000 C 
ATOM      9  O   UNL     1      11.480  13.174  16.503  0.00  0.00    +0.000 OA
ATOM     10  C   UNL     1      10.978  15.141  17.622  0.00  0.00    +0.000 A 
ATOM     11  C   UNL     1      11.878  16.061  17.127  0.00  0.00    +0.000 A 
ATOM     12  C   UNL     1      11.798  17.351  17.646  0.00  0.00    +0.000 A 
ATOM     13  C   UNL     1      10.832  17.636  18.620  0.00  0.00    +0.000 A 
ATOM     14  N   UNL     1       9.935  16.736  19.098  0.00  0.00    +0.000 NA
ATOM     15  C   UNL     1      10.052  15.509  18.560  0.00  0.00    +0.000 A 
ATOM     16  C   UNL     1       9.231  14.332  18.876  0.00  0.00    +0.000 C 
ATOM     17  O   UNL     1       8.323  14.337  19.690  0.00  0.00    +0.000 OA
ENDBRANCH   4   7
BRANCH   1  19
ATOM     18  N   UNL     1       6.561   7.761  17.359  0.00  0.00    +0.000 N 
ATOM     19  C   UNL     1       7.732   7.921  18.083  0.00  0.00    +0.000 C 
ATOM     20  O   UNL     1       8.324   7.029  18.687  0.00  0.00    +0.000 OA
ATOM     21  H   UNL     1       6.237   8.518  16.776  0.00  0.00    +0.000 HD
BRANCH  18  25
ATOM     22  C   UNL     1       4.206   4.247  17.338  0.00  0.00    +0.000 A 
ATOM     23  C   UNL     1       4.925   4.605  16.201  0.00  0.00    +0.000 A 
ATOM     24  C   UNL     1       5.711   5.758  16.204  0.00  0.00    +0.000 A 
ATOM     25  C   UNL     1       5.794   6.574  17.336  0.00  0.00    +0.000 A 
ATOM     26  C   UNL     1       5.108   6.192  18.493  0.00  0.00    +0.000 A 
ATOM     27  C   UNL     1       4.307   5.041  18.488  0.00  0.00    +0.000 A 
BRANCH  22  29
ATOM     28  C   UNL     1       3.813   1.815  18.099  0.00  0.00    +0.000 C 
ATOM     29  C   UNL     1       3.338   3.035  17.351  0.00  0.00    +0.000 C 
ATOM     30  O   UNL     1       2.259   3.049  16.766  0.00  0.00    +0.000 OA
ENDBRANCH  22  29
ENDBRANCH  18  25
ENDBRANCH   1  19
TORSDOF 4
ENDMDL
MODEL 2
REMARK VINA RESULT:      -7.7      9.611     11.277
REMARK  Name = 
REMARK  5 active torsions:
REMARK  status: ('A' for Active; 'I' for Inactive)
REMARK    1  A    between atoms: C_1  and  C_2
REMARK    2  A    between atoms: C_2  and  C_4
REMARK    3  A    between atoms: C_7  and  N_8
REMARK    4  A    between atoms: C_9  and  C_11
REMARK    5  A    between atoms: C_14  and  N_15
REMARK                            x       y       z     vdW  Elec       q    Type
REMARK                         _______ _______ _______ _____ _____    ______ ____
ROOT
ATOM      1  C   UNL     1       0.140  10.231  21.750  0.00  0.00    +0.000 A 
ATOM      2  C   UNL     1      -0.576  10.124  22.946  0.00  0.00    +0.000 A 
ATOM      3  C   UNL     1      -1.520  11.085  23.302  0.00  0.00    +0.000 A 
ATOM      4  C   UNL     1      -1.787  12.179  22.472  0.00  0.00    +0.000 A 
ATOM      5  C   UNL     1      -1.063  12.280  21.271  0.00  0.00    +0.000 A 
ATOM      6  C   UNL     1      -0.096  11.323  20.914  0.00  0.00    +0.000 A 
ENDROOT
BRANCH   4   7
ATOM      7  N   UNL     1      -2.763  13.142  22.848  0.00  0.00    +0.000 N 
ATOM      8  C   UNL     1      -2.497  14.254  23.620  0.00  0.00    +0.000 C 
ATOM      9  O   UNL     1      -1.461  14.698  24.084  0.00  0.00    +0.000 OA
ATOM     10  C   UNL     1      -3.749  14.954  23.813  0.00  0.00    +0.000 A 
ATOM     11  C   UNL     1      -4.050  16.113  24.497  0.00  0.00    +0.000 A 
ATOM     12  C   UNL     1      -5.388  16.503  24.501  0.00  0.00    +0.000 A 
ATOM     13  C   UNL     1      -6.330  15.715  23.826  0.00  0.00    +0.000 A 
ATOM     14  N   UNL     1      -6.032  14.582  23.140  0.00  0.00    +0.000 NA
ATOM     15  C   UNL     1      -4.728  14.254  23.164  0.00  0.00    +0.000 A 
ATOM     16  C   UNL     1      -4.106  13.090  22.518  0.00  0.00    +0.000 C 
ATOM     17  O   UNL     1      -4.723  12.264  21.870  0.00  0.00    +0.000 OA
ENDBRANCH   4   7
BRANCH   1  19
ATOM     18  N   UNL     1       1.110   8.569  20.223  0.00  0.00    +0.000 N 
ATOM     19  C   UNL     1       1.129   9.157  21.478  0.00  0.00    +0.000 C 
ATOM     20  O   UNL     1       1.891   8.857  22.394  0.00  0.00    +0.000 OA
ATOM     21  H   UNL     1       0.552   8.986  19.493  0.00  0.00    +0.000 HD
BRANCH  18  25
ATOM     22  C   UNL     1       3.438   5.209  19.132  0.00  0.00    +0.000 A 
ATOM     23  C   UNL     1       2.565   5.126  20.214  0.00  0.00    +0.000 A 
ATOM     24  C   UNL     1       1.789   6.227  20.573  0.00  0.00    +0.000 A 
ATOM     25  C   UNL     1       1.867   7.430  19.865  0.00  0.00    +0.000 A 
ATOM     26  C   UNL     1       2.708   7.501  18.751  0.00  0.00    +0.000 A 
ATOM     27  C   UNL     1       3.500   6.400  18.395  0.00  0.00    +0.000 A 
BRANCH  22  29
ATOM     28  C   UNL     1       3.761   3.054  17.752  0.00  0.00    +0.000 C 
ATOM     29  C   UNL     1       4.298   4.055  18.744  0.00  0.00    +0.000 C 
ATOM     30  O   UNL     1       5.421   3.940  19.227  0.00  0.00    +0.000 OA
ENDBRANCH  22  29
ENDBRANCH  18  25
ENDBRANCH   1  19
TORSDOF 4
ENDMDL
MODEL 3
REMARK VINA RESULT:      -7.6      9.624     11.300
REMARK  Name = 
REMARK  5 active torsions:
REMARK  status: ('A' for Active; 'I' for Inactive)
REMARK    1  A    between atoms: C_1  and  C_2
REMARK    2  A    between atoms: C_2  and  C_4
REMARK    3  A    between atoms: C_7  and  N_8
REMARK    4  A    between atoms: C_9  and  C_11
REMARK    5  A    between atoms: C_14  and  N_15
REMARK                            x       y       z     vdW  Elec       q    Type
REMARK                         _______ _______ _______ _____ _____    ______ ____
ROOT
ATOM      1  C   UNL     1       0.129  10.305  21.698  0.00  0.00    +0.000 A 
ATOM      2  C   UNL     1      -0.566  10.153  22.901  0.00  0.00    +0.000 A 
ATOM      3  C   UNL     1      -1.517  11.091  23.299  0.00  0.00    +0.000 A 
ATOM      4  C   UNL     1      -1.810  12.206  22.506  0.00  0.00    +0.000 A 
ATOM      5  C   UNL     1      -1.107  12.351  21.297  0.00  0.00    +0.000 A 
ATOM      6  C   UNL     1      -0.134  11.418  20.897  0.00  0.00    +0.000 A 
ENDROOT
BRANCH   4   7
ATOM      7  N   UNL     1      -2.792  13.144  22.925  0.00  0.00    +0.000 N 
ATOM      8  C   UNL     1      -4.117  13.103  22.543  0.00  0.00    +0.000 C 
ATOM      9  O   UNL     1      -4.749  12.307  21.869  0.00  0.00    +0.000 OA
ATOM     10  C   UNL     1      -4.776  14.243  23.144  0.00  0.00    +0.000 A 
ATOM     11  C   UNL     1      -6.084  14.675  23.089  0.00  0.00    +0.000 A 
ATOM     12  C   UNL     1      -6.381  15.848  23.781  0.00  0.00    +0.000 A 
ATOM     13  C   UNL     1      -5.358  16.507  24.476  0.00  0.00    +0.000 A 
ATOM     14  N   UNL     1      -4.074  16.075  24.543  0.00  0.00    +0.000 NA
ATOM     15  C   UNL     1      -3.842  14.937  23.864  0.00  0.00    +0.000 A 
ATOM     16  C   UNL     1      -2.559  14.231  23.750  0.00  0.00    +0.000 C 
ATOM     17  O   UNL     1      -1.527  14.610  24.273  0.00  0.00    +0.000 OA
ENDBRANCH   4   7
BRANCH   1  19
ATOM     18  N   UNL     1       1.145   8.753  20.086  0.00  0.00    +0.000 N 
ATOM     19  C   UNL     1       1.128   9.252  21.379  0.00  0.00    +0.000 C 
ATOM     20  O   UNL     1       1.864   8.889  22.292  0.00  0.00    +0.000 OA
ATOM     21  H   UNL     1       0.606   9.220  19.371  0.00  0.00    +0.000 HD
BRANCH  18  25
ATOM     22  C   UNL     1       3.503   5.478  18.817  0.00  0.00    +0.000 A 
ATOM     23  C   UNL     1       2.730   5.370  19.970  0.00  0.00    +0.000 A 
ATOM     24  C   UNL     1       1.943   6.443  20.389  0.00  0.00    +0.000 A 
ATOM     25  C   UNL     1       1.913   7.642  19.670  0.00  0.00    +0.000 A 
ATOM     26  C   UNL     1       2.653   7.736  18.488  0.00  0.00    +0.000 A 
ATOM     27  C   UNL     1       3.455   6.664  18.072  0.00  0.00    +0.000 A 
BRANCH  22  29
ATOM     28  C   UNL     1       4.266   3.891  16.933  0.00  0.00    +0.000 C 
ATOM     29  C   UNL     1       4.373   4.356  18.364  0.00  0.00    +0.000 C 
ATOM     30  O   UNL     1       5.160   3.836  19.149  0.00  0.00    +0.000 OA
ENDBRANCH  22  29
ENDBRANCH  18  25
ENDBRANCH   1  19
TORSDOF 4
ENDMDL
MODEL 4
REMARK VINA RESULT:      -7.6      9.262     10.969
REMARK  Name = 
REMARK  5 active torsions:
REMARK  status: ('A' for Active; 'I' for Inactive)
REMARK    1  A    between atoms: C_1  and  C_2
REMARK    2  A    between atoms: C_2  and  C_4
REMARK    3  A    between atoms: C_7  and  N_8
REMARK    4  A    between atoms: C_9  and  C_11
REMARK    5  A    between atoms: C_14  and  N_15
REMARK                            x       y       z     vdW  Elec       q    Type
REMARK                         _______ _______ _______ _____ _____    ______ ____
ROOT
ATOM      1  C   UNL     1       0.125   9.914  21.291  0.00  0.00    +0.000 A 
ATOM      2  C   UNL     1      -0.313   9.887  22.618  0.00  0.00    +0.000 A 
ATOM      3  C   UNL     1      -1.160  10.879  23.110  0.00  0.00    +0.000 A 
ATOM      4  C   UNL     1      -1.604  11.923  22.292  0.00  0.00    +0.000 A 
ATOM      5  C   UNL     1      -1.158  11.944  20.959  0.00  0.00    +0.000 A 
ATOM      6  C   UNL     1      -0.290  10.956  20.461  0.00  0.00    +0.000 A 
ENDROOT
BRANCH   4   7
ATOM      7  N   UNL     1      -2.477  12.917  22.812  0.00  0.00    +0.000 N 
ATOM      8  C   UNL     1      -3.830  12.973  22.552  0.00  0.00    +0.000 C 
ATOM      9  O   UNL     1      -4.573  12.235  21.928  0.00  0.00    +0.000 OA
ATOM     10  C   UNL     1      -4.352  14.143  23.225  0.00  0.00    +0.000 A 
ATOM     11  C   UNL     1      -5.626  14.664  23.296  0.00  0.00    +0.000 A 
ATOM     12  C   UNL     1      -5.778  15.841  24.026  0.00  0.00    +0.000 A 
ATOM     13  C   UNL     1      -4.654  16.416  24.634  0.00  0.00    +0.000 A 
ATOM     14  N   UNL     1      -3.402  15.897  24.578  0.00  0.00    +0.000 NA
ATOM     15  C   UNL     1      -3.311  14.759  23.866  0.00  0.00    +0.000 A 
ATOM     16  C   UNL     1      -2.096  13.970  23.626  0.00  0.00    +0.000 C 
ATOM     17  O   UNL     1      -0.996  14.269  24.058  0.00  0.00    +0.000 OA
ENDBRANCH   4   7
BRANCH   1  19
ATOM     18  N   UNL     1       1.510   8.830  19.576  0.00  0.00    +0.000 N 
ATOM     19  C   UNL     1       1.034   8.814  20.877  0.00  0.00    +0.000 C 
ATOM     20  O   UNL     1       1.293   7.959  21.721  0.00  0.00    +0.000 OA
ATOM     21  H   UNL     1       1.364   9.652  19.008  0.00  0.00    +0.000 HD
BRANCH  18  25
ATOM     22  C   UNL     1       3.637   5.624  17.816  0.00  0.00    +0.000 A 
ATOM     23  C   UNL     1       3.732   6.902  17.269  0.00  0.00    +0.000 A 
ATOM     24  C   UNL     1       3.041   7.965  17.851  0.00  0.00    +0.000 A 
ATOM     25  C   UNL     1       2.242   7.776  18.982  0.00  0.00    +0.000 A 
ATOM     26  C   UNL     1       2.181   6.504  19.558  0.00  0.00    +0.000 A 
ATOM     27  C   UNL     1       2.864   5.431  18.969  0.00  0.00    +0.000 A 
BRANCH  22  29
ATOM     28  C   UNL     1       5.179   4.706  15.964  0.00  0.00    +0.000 C 
ATOM     29  C   UNL     1       4.345   4.467  17.198  0.00  0.00    +0.000 C 
ATOM     30  O   UNL     1       4.246   3.351  17.699  0.00  0.00    +0.000 OA
ENDBRANCH  22  29
ENDBRANCH  18  25
ENDBRANCH   1  19
TORSDOF 4
ENDMDL
MODEL 5
REMARK VINA RESULT:      -7.6      8.010     10.108
REMARK  Name = 
REMARK  5 active torsions:
REMARK  status: ('A' for Active; 'I' for Inactive)
REMARK    1  A    between atoms: C_1  and  C_2
REMARK    2  A    between atoms: C_2  and  C_4
REMARK    3  A    between atoms: C_7  and  N_8
REMARK    4  A    between atoms: C_9  and  C_11
REMARK    5  A    between atoms: C_14  and  N_15
REMARK                            x       y       z     vdW  Elec       q    Type
REMARK                         _______ _______ _______ _____ _____    ______ ____
ROOT
ATOM      1  C   UNL     1       1.083   9.486  19.009  0.00  0.00    +0.000 A 
ATOM      2  C   UNL     1       0.487  10.622  18.453  0.00  0.00    +0.000 A 
ATOM      3  C   UNL     1      -0.422  11.382  19.187  0.00  0.00    +0.000 A 
ATOM      4  C   UNL     1      -0.759  11.039  20.501  0.00  0.00    +0.000 A 
ATOM      5  C   UNL     1      -0.156   9.896  21.053  0.00  0.00    +0.000 A 
ATOM      6  C   UNL     1       0.750   9.114  20.313  0.00  0.00    +0.000 A 
ENDROOT
BRANCH   4   7
ATOM      7  N   UNL     1      -1.680  11.836  21.234  0.00  0.00    +0.000 N 
ATOM      8  C   UNL     1      -2.855  12.340  20.714  0.00  0.00    +0.000 C 
ATOM      9  O   UNL     1      -3.393  12.203  19.629  0.00  0.00    +0.000 OA
ATOM     10  C   UNL     1      -3.485  13.124  21.754  0.00  0.00    +0.000 A 
ATOM     11  C   UNL     1      -4.664  13.839  21.770  0.00  0.00    +0.000 A 
ATOM     12  C   UNL     1      -4.968  14.511  22.952  0.00  0.00    +0.000 A 
ATOM     13  C   UNL     1      -4.080  14.426  24.033  0.00  0.00    +0.000 A 
ATOM     14  N   UNL     1      -2.926  13.711  24.023  0.00  0.00    +0.000 NA
ATOM     15  C   UNL     1      -2.684  13.077  22.862  0.00  0.00    +0.000 A 
ATOM     16  C   UNL     1      -1.523  12.233  22.550  0.00  0.00    +0.000 C 
ATOM     17  O   UNL     1      -0.618  12.007  23.334  0.00  0.00    +0.000 OA
ENDBRANCH   4   7
BRANCH   1  19
ATOM     18  N   UNL     1       2.506   7.527  18.592  0.00  0.00    +0.000 N 
ATOM     19  C   UNL     1       2.028   8.745  18.135  0.00  0.00    +0.000 C 
ATOM     20  O   UNL     1       2.327   9.272  17.066  0.00  0.00    +0.000 OA
ATOM     21  H   UNL     1       2.086   7.109  19.409  0.00  0.00    +0.000 HD
BRANCH  18  25
ATOM     22  C   UNL     1       5.514   5.265  16.661  0.00  0.00    +0.000 A 
ATOM     23  C   UNL     1       5.727   6.615  16.928  0.00  0.00    +0.000 A 
ATOM     24  C   UNL     1       4.742   7.364  17.573  0.00  0.00    +0.000 A 
ATOM     25  C   UNL     1       3.531   6.785  17.961  0.00  0.00    +0.000 A 
ATOM     26  C   UNL     1       3.334   5.420  17.734  0.00  0.00    +0.000 A 
ATOM     27  C   UNL     1       4.316   4.667  17.074  0.00  0.00    +0.000 A 
BRANCH  22  29
ATOM     28  C   UNL     1       6.181   3.838  14.618  0.00  0.00    +0.000 C 
ATOM     29  C   UNL     1       6.540   4.449  15.950  0.00  0.00    +0.000 C 
ATOM     30  O   UNL     1       7.651   4.293  16.448  0.00  0.00    +0.000 OA
ENDBRANCH  22  29
ENDBRANCH  18  25
ENDBRANCH   1  19
TORSDOF 4
ENDMDL
MODEL 6
REMARK VINA RESULT:      -7.5      8.171     10.101
REMARK  Name = 
REMARK  5 active torsions:
REMARK  status: ('A' for Active; 'I' for Inactive)
REMARK    1  A    between atoms: C_1  and  C_2
REMARK    2  A    between atoms: C_2  and  C_4
REMARK    3  A    between atoms: C_7  and  N_8
REMARK    4  A    between atoms: C_9  and  C_11
REMARK    5  A    between atoms: C_14  and  N_15
REMARK                            x       y       z     vdW  Elec       q    Type
REMARK                         _______ _______ _______ _____ _____    ______ ____
ROOT
ATOM      1  C   UNL     1       0.932   9.712  19.113  0.00  0.00    +0.000 A 
ATOM      2  C   UNL     1       0.541  10.962  18.623  0.00  0.00    +0.000 A 
ATOM      3  C   UNL     1      -0.311  11.783  19.361  0.00  0.00    +0.000 A 
ATOM      4  C   UNL     1      -0.792  11.388  20.613  0.00  0.00    +0.000 A 
ATOM      5  C   UNL     1      -0.394  10.130  21.099  0.00  0.00    +0.000 A 
ATOM      6  C   UNL     1       0.451   9.289  20.353  0.00  0.00    +0.000 A 
ENDROOT
BRANCH   4   7
ATOM      7  N   UNL     1      -1.650  12.246  21.353  0.00  0.00    +0.000 N 
ATOM      8  C   UNL     1      -1.314  12.826  22.559  0.00  0.00    +0.000 C 
ATOM      9  O   UNL     1      -0.286  12.813  23.214  0.00  0.00    +0.000 OA
ATOM     10  C   UNL     1      -2.460  13.589  23.005  0.00  0.00    +0.000 A 
ATOM     11  C   UNL     1      -2.663  14.356  24.133  0.00  0.00    +0.000 A 
ATOM     12  C   UNL     1      -3.918  14.948  24.264  0.00  0.00    +0.000 A 
ATOM     13  C   UNL     1      -4.880  14.737  23.268  0.00  0.00    +0.000 A 
ATOM     14  N   UNL     1      -4.676  13.995  22.150  0.00  0.00    +0.000 NA
ATOM     15  C   UNL     1      -3.449  13.451  22.069  0.00  0.00    +0.000 A 
ATOM     16  C   UNL     1      -2.936  12.602  20.986  0.00  0.00    +0.000 C 
ATOM     17  O   UNL     1      -3.588  12.283  20.007  0.00  0.00    +0.000 OA
ENDBRANCH   4   7
BRANCH   1  19
ATOM     18  N   UNL     1       2.256   7.683  18.708  0.00  0.00    +0.000 N 
ATOM     19  C   UNL     1       1.832   8.916  18.239  0.00  0.00    +0.000 C 
ATOM     20  O   UNL     1       2.145   9.416  17.162  0.00  0.00    +0.000 OA
ATOM     21  H   UNL     1       1.824   7.295  19.533  0.00  0.00    +0.000 HD
BRANCH  18  25
ATOM     22  C   UNL     1       5.254   5.342  16.856  0.00  0.00    +0.000 A 
ATOM     23  C   UNL     1       4.075   4.741  17.289  0.00  0.00    +0.000 A 
ATOM     24  C   UNL     1       3.078   5.509  17.893  0.00  0.00    +0.000 A 
ATOM     25  C   UNL     1       3.238   6.885  18.077  0.00  0.00    +0.000 A 
ATOM     26  C   UNL     1       4.401   7.497  17.601  0.00  0.00    +0.000 A 
ATOM     27  C   UNL     1       5.410   6.726  17.007  0.00  0.00    +0.000 A 
BRANCH  22  29
ATOM     28  C   UNL     1       6.069   3.837  14.927  0.00  0.00    +0.000 C 
ATOM     29  C   UNL     1       6.344   4.539  16.232  0.00  0.00    +0.000 C 
ATOM     30  O   UNL     1       7.441   4.467  16.780  0.00  0.00    +0.000 OA
ENDBRANCH  22  29
ENDBRANCH  18  25
ENDBRANCH   1  19
TORSDOF 4
ENDMDL
MODEL 7
REMARK VINA RESULT:      -7.5      9.605     11.320
REMARK  Name = 
REMARK  5 active torsions:
REMARK  status: ('A' for Active; 'I' for Inactive)
REMARK    1  A    between atoms: C_1  and  C_2
REMARK    2  A    between atoms: C_2  and  C_4
REMARK    3  A    between atoms: C_7  and  N_8
REMARK    4  A    between atoms: C_9  and  C_11
REMARK    5  A    between atoms: C_14  and  N_15
REMARK                            x       y       z     vdW  Elec       q    Type
REMARK                         _______ _______ _______ _____ _____    ______ ____
ROOT
ATOM      1  C   UNL     1      -0.035  10.098  21.666  0.00  0.00    +0.000 A 
ATOM      2  C   UNL     1      -0.450  11.081  20.762  0.00  0.00    +0.000 A 
ATOM      3  C   UNL     1      -1.395  12.037  21.131  0.00  0.00    +0.000 A 
ATOM      4  C   UNL     1      -1.950  12.049  22.415  0.00  0.00    +0.000 A 
ATOM      5  C   UNL     1      -1.528  11.057  23.318  0.00  0.00    +0.000 A 
ATOM      6  C   UNL     1      -0.588  10.079  22.948  0.00  0.00    +0.000 A 
ENDROOT
BRANCH   4   7
ATOM      7  N   UNL     1      -2.903  13.040  22.773  0.00  0.00    +0.000 N 
ATOM      8  C   UNL     1      -2.622  14.138  23.560  0.00  0.00    +0.000 C 
ATOM      9  O   UNL     1      -1.584  14.544  24.054  0.00  0.00    +0.000 OA
ATOM     10  C   UNL     1      -3.854  14.878  23.725  0.00  0.00    +0.000 A 
ATOM     11  C   UNL     1      -4.136  16.042  24.409  0.00  0.00    +0.000 A 
ATOM     12  C   UNL     1      -5.460  16.476  24.380  0.00  0.00    +0.000 A 
ATOM     13  C   UNL     1      -6.408  15.724  23.674  0.00  0.00    +0.000 A 
ATOM     14  N   UNL     1      -6.130  14.587  22.988  0.00  0.00    +0.000 NA
ATOM     15  C   UNL     1      -4.839  14.215  23.044  0.00  0.00    +0.000 A 
ATOM     16  C   UNL     1      -4.237  13.036  22.407  0.00  0.00    +0.000 C 
ATOM     17  O   UNL     1      -4.864  12.234  21.736  0.00  0.00    +0.000 OA
ENDBRANCH   4   7
BRANCH   1  19
ATOM     18  N   UNL     1       1.213   9.102  19.800  0.00  0.00    +0.000 N 
ATOM     19  C   UNL     1       0.967   9.124  21.163  0.00  0.00    +0.000 C 
ATOM     20  O   UNL     1       1.501   8.396  21.997  0.00  0.00    +0.000 OA
ATOM     21  H   UNL     1       0.839   9.838  19.220  0.00  0.00    +0.000 HD
BRANCH  18  25
ATOM     22  C   UNL     1       3.637   6.250  17.827  0.00  0.00    +0.000 A 
ATOM     23  C   UNL     1       3.047   5.932  19.048  0.00  0.00    +0.000 A 
ATOM     24  C   UNL     1       2.239   6.865  19.699  0.00  0.00    +0.000 A 
ATOM     25  C   UNL     1       2.006   8.128  19.149  0.00  0.00    +0.000 A 
ATOM     26  C   UNL     1       2.561   8.433  17.903  0.00  0.00    +0.000 A 
ATOM     27  C   UNL     1       3.384   7.503  17.252  0.00  0.00    +0.000 A 
BRANCH  22  29
ATOM     28  C   UNL     1       5.298   5.752  15.918  0.00  0.00    +0.000 C 
ATOM     29  C   UNL     1       4.525   5.281  17.124  0.00  0.00    +0.000 C 
ATOM     30  O   UNL     1       4.621   4.128  17.536  0.00  0.00    +0.000 OA
ENDBRANCH  22  29
ENDBRANCH  18  25
ENDBRANCH   1  19
TORSDOF 4
ENDMDL
MODEL 8
REMARK VINA RESULT:      -7.5      9.174     10.838
REMARK  Name = 
REMARK  5 active torsions:
REMARK  status: ('A' for Active; 'I' for Inactive)
REMARK    1  A    between atoms: C_1  and  C_2
REMARK    2  A    between atoms: C_2  and  C_4
REMARK    3  A    between atoms: C_7  and  N_8
REMARK    4  A    between atoms: C_9  and  C_11
REMARK    5  A    between atoms: C_14  and  N_15
REMARK                            x       y       z     vdW  Elec       q    Type
REMARK                         _______ _______ _______ _____ _____    ______ ____
ROOT
ATOM      1  C   UNL     1       0.040   9.743  21.275  0.00  0.00    +0.000 A 
ATOM      2  C   UNL     1      -0.334   9.789  22.621  0.00  0.00    +0.000 A 
ATOM      3  C   UNL     1      -1.107  10.840  23.112  0.00  0.00    +0.000 A 
ATOM      4  C   UNL     1      -1.538  11.873  22.274  0.00  0.00    +0.000 A 
ATOM      5  C   UNL     1      -1.158  11.820  20.922  0.00  0.00    +0.000 A 
ATOM      6  C   UNL     1      -0.364  10.772  20.423  0.00  0.00    +0.000 A 
ENDROOT
BRANCH   4   7
ATOM      7  N   UNL     1      -2.336  12.929  22.794  0.00  0.00    +0.000 N 
ATOM      8  C   UNL     1      -1.841  13.982  23.536  0.00  0.00    +0.000 C 
ATOM      9  O   UNL     1      -0.707  14.292  23.858  0.00  0.00    +0.000 OA
ATOM     10  C   UNL     1      -2.965  14.814  23.908  0.00  0.00    +0.000 A 
ATOM     11  C   UNL     1      -3.034  15.979  24.642  0.00  0.00    +0.000 A 
ATOM     12  C   UNL     1      -4.305  16.518  24.834  0.00  0.00    +0.000 A 
ATOM     13  C   UNL     1      -5.414  15.862  24.285  0.00  0.00    +0.000 A 
ATOM     14  N   UNL     1      -5.346  14.723  23.550  0.00  0.00    +0.000 NA
ATOM     15  C   UNL     1      -4.098  14.248  23.390  0.00  0.00    +0.000 A 
ATOM     16  C   UNL     1      -3.707  13.040  22.650  0.00  0.00    +0.000 C 
ATOM     17  O   UNL     1      -4.498  12.308  22.082  0.00  0.00    +0.000 OA
ENDBRANCH   4   7
BRANCH   1  19
ATOM     18  N   UNL     1       1.611   8.705  19.696  0.00  0.00    +0.000 N 
ATOM     19  C   UNL     1       0.873   8.584  20.864  0.00  0.00    +0.000 C 
ATOM     20  O   UNL     1       0.841   7.591  21.587  0.00  0.00    +0.000 OA
ATOM     21  H   UNL     1       1.690   9.609  19.256  0.00  0.00    +0.000 HD
BRANCH  18  25
ATOM     22  C   UNL     1       3.659   5.474  17.891  0.00  0.00    +0.000 A 
ATOM     23  C   UNL     1       3.692   6.733  17.297  0.00  0.00    +0.000 A 
ATOM     24  C   UNL     1       3.026   7.805  17.893  0.00  0.00    +0.000 A 
ATOM     25  C   UNL     1       2.315   7.642  19.085  0.00  0.00    +0.000 A 
ATOM     26  C   UNL     1       2.319   6.390  19.705  0.00  0.00    +0.000 A 
ATOM     27  C   UNL     1       2.976   5.307  19.103  0.00  0.00    +0.000 A 
BRANCH  22  29
ATOM     28  C   UNL     1       5.298   4.558  16.123  0.00  0.00    +0.000 C 
ATOM     29  C   UNL     1       4.340   4.307  17.260  0.00  0.00    +0.000 C 
ATOM     30  O   UNL     1       4.120   3.173  17.676  0.00  0.00    +0.000 OA
ENDBRANCH  22  29
ENDBRANCH  18  25
ENDBRANCH   1  19
TORSDOF 4
ENDMDL
MODEL 9
REMARK VINA RESULT:      -7.5      9.317     10.956
REMARK  Name = 
REMARK  5 active torsions:
REMARK  status: ('A' for Active; 'I' for Inactive)
REMARK    1  A    between atoms: C_1  and  C_2
REMARK    2  A    between atoms: C_2  and  C_4
REMARK    3  A    between atoms: C_7  and  N_8
REMARK    4  A    between atoms: C_9  and  C_11
REMARK    5  A    between atoms: C_14  and  N_15
REMARK                            x       y       z     vdW  Elec       q    Type
REMARK                         _______ _______ _______ _____ _____    ______ ____
ROOT
ATOM      1  C   UNL     1      -0.071   9.910  21.115  0.00  0.00    +0.000 A 
ATOM      2  C   UNL     1      -0.577  10.968  20.356  0.00  0.00    +0.000 A 
ATOM      3  C   UNL     1      -1.341  11.972  20.950  0.00  0.00    +0.000 A 
ATOM      4  C   UNL     1      -1.616  11.955  22.322  0.00  0.00    +0.000 A 
ATOM      5  C   UNL     1      -1.104  10.887  23.079  0.00  0.00    +0.000 A 
ATOM      6  C   UNL     1      -0.347   9.862  22.483  0.00  0.00    +0.000 A 
ENDROOT
BRANCH   4   7
ATOM      7  N   UNL     1      -2.388  12.995  22.909  0.00  0.00    +0.000 N 
ATOM      8  C   UNL     1      -3.761  13.090  22.813  0.00  0.00    +0.000 C 
ATOM      9  O   UNL     1      -4.597  12.359  22.311  0.00  0.00    +0.000 OA
ATOM     10  C   UNL     1      -4.159  14.299  23.503  0.00  0.00    +0.000 A 
ATOM     11  C   UNL     1      -5.398  14.866  23.710  0.00  0.00    +0.000 A 
ATOM     12  C   UNL     1      -5.422  16.069  24.412  0.00  0.00    +0.000 A 
ATOM     13  C   UNL     1      -4.215  16.624  24.857  0.00  0.00    +0.000 A 
ATOM     14  N   UNL     1      -2.996  16.059  24.668  0.00  0.00    +0.000 NA
ATOM     15  C   UNL     1      -3.029  14.897  23.990  0.00  0.00    +0.000 A 
ATOM     16  C   UNL     1      -1.877  14.058  23.632  0.00  0.00    +0.000 C 
ATOM     17  O   UNL     1      -0.724  14.332  23.916  0.00  0.00    +0.000 OA
ENDBRANCH   4   7
BRANCH   1  19
ATOM     18  N   UNL     1       0.903   7.658  20.983  0.00  0.00    +0.000 N 
ATOM     19  C   UNL     1       0.720   8.891  20.377  0.00  0.00    +0.000 C 
ATOM     20  O   UNL     1       1.166   9.221  19.281  0.00  0.00    +0.000 OA
ATOM     21  H   UNL     1       0.372   7.432  21.811  0.00  0.00    +0.000 HD
BRANCH  18  25
ATOM     22  C   UNL     1       3.411   4.586  19.509  0.00  0.00    +0.000 A 
ATOM     23  C   UNL     1       3.618   5.903  19.106  0.00  0.00    +0.000 A 
ATOM     24  C   UNL     1       2.800   6.921  19.595  0.00  0.00    +0.000 A 
ATOM     25  C   UNL     1       1.762   6.649  20.491  0.00  0.00    +0.000 A 
ATOM     26  C   UNL     1       1.582   5.335  20.931  0.00  0.00    +0.000 A 
ATOM     27  C   UNL     1       2.393   4.306  20.431  0.00  0.00    +0.000 A 
BRANCH  22  29
ATOM     28  C   UNL     1       3.648   2.522  17.981  0.00  0.00    +0.000 C 
ATOM     29  C   UNL     1       4.254   3.476  18.980  0.00  0.00    +0.000 C 
ATOM     30  O   UNL     1       5.417   3.359  19.355  0.00  0.00    +0.000 OA
ENDBRANCH  22  29
ENDBRANCH  18  25
ENDBRANCH   1  19
TORSDOF 4
ENDMDL
