MODEL 1
REMARK VINA RESULT:      -8.9      0.000      0.000
REMARK  Name = 
REMARK  5 active torsions:
REMARK  status: ('A' for Active; 'I' for Inactive)
REMARK    1  A    between atoms: C_1  and  C_2
REMARK    2  A    between atoms: C_2  and  C_3
REMARK    3  A    between atoms: C_2  and  N_4
REMARK    4  A    between atoms: C_8  and  C_10
REMARK    5  A    between atoms: C_20  and  C_21
REMARK                            x       y       z     vdW  Elec       q    Type
REMARK                         _______ _______ _______ _____ _____    ______ ____
ROOT
ATOM      1  C   UNL     1       1.519   8.697  19.270  0.00  0.00    +0.000 A 
ATOM      2  C   UNL     1       0.798   9.818  18.887  0.00  0.00    +0.000 A 
ATOM      3  C   UNL     1       0.151  10.574  19.856  0.00  0.00    +0.000 A 
ATOM      4  C   UNL     1       0.126  10.140  21.178  0.00  0.00    +0.000 A 
ATOM      5  N   UNL     1      -0.458  10.899  22.183  0.00  0.00    +0.000 N 
ATOM      6  C   UNL     1      -0.525  12.281  22.312  0.00  0.00    +0.000 A 
ATOM      7  N   UNL     1      -1.148  12.759  23.399  0.00  0.00    +0.000 NA
ATOM      8  C   UNL     1      -1.255  14.101  23.502  0.00  0.00    +0.000 A 
ATOM      9  C   UNL     1      -0.741  14.980  22.582  0.00  0.00    +0.000 A 
ATOM     10  F   UNL     1      -0.888  16.301  22.751  0.00  0.00    +0.000 F 
ATOM     11  C   UNL     1      -0.090  14.424  21.499  0.00  0.00    +0.000 A 
ATOM     12  N   UNL     1       0.021  13.080  21.375  0.00  0.00    +0.000 NA
ATOM     13  N   UNL     1       0.663   8.949  21.528  0.00  0.00    +0.000 NA
ATOM     14  C   UNL     1       1.359   8.261  20.578  0.00  0.00    +0.000 A 
ATOM     15  H   UNL     1      -0.513  10.429  23.073  0.00  0.00    +0.000 HD
ENDROOT
BRANCH  11  16
ATOM     16  C   UNL     1       0.485  15.205  20.382  0.00  0.00    +0.000 A 
ATOM     17  C   UNL     1       1.860  15.226  20.119  0.00  0.00    +0.000 A 
ATOM     18  C   UNL     1       2.390  15.997  19.081  0.00  0.00    +0.000 A 
ATOM     19  C   UNL     1       1.579  16.780  18.277  0.00  0.00    +0.000 A 
ATOM     20  N   UNL     1       2.142  17.508  17.293  0.00  0.00    +0.000 NA
ATOM     21  C   UNL     1       1.302  18.252  16.545  0.00  0.00    +0.000 A 
ATOM     22  C   UNL     1      -0.059  18.268  16.770  0.00  0.00    +0.000 A 
ATOM     23  N   UNL     1      -0.641  17.547  17.755  0.00  0.00    +0.000 NA
ATOM     24  C   UNL     1       0.180  16.790  18.516  0.00  0.00    +0.000 A 
ATOM     25  C   UNL     1      -0.331  16.007  19.550  0.00  0.00    +0.000 A 
ENDBRANCH  11  16
BRANCH   1  30
ATOM     26  N   UNL     1       3.609   3.953  19.361  0.00  0.00    +0.000 NA
ATOM     27  C   UNL     1       4.390   4.819  18.428  0.00  0.00    +0.000 C 
ATOM     28  C   UNL     1       3.591   5.900  17.641  0.00  0.00    +0.000 C 
ATOM     29  N   UNL     1       2.627   6.612  18.494  0.00  0.00    +0.000 N 
ATOM     30  C   UNL     1       2.452   7.993  18.358  0.00  0.00    +0.000 C 
ATOM     31  O   UNL     1       3.017   8.656  17.492  0.00  0.00    +0.000 OA
ATOM     32  C   UNL     1       1.827   5.708  19.329  0.00  0.00    +0.000 C 
ATOM     33  C   UNL     1       2.787   4.872  20.192  0.00  0.00    +0.000 C 
BRANCH  26  35
ATOM     34  C   UNL     1       3.590   1.808  18.024  0.00  0.00    +0.000 C 
ATOM     35  C   UNL     1       2.775   2.923  18.688  0.00  0.00    +0.000 C 
ATOM     36  C   UNL     1       1.803   2.248  19.677  0.00  0.00    +0.000 C 
ENDBRANCH  26  35
ENDBRANCH   1  30
TORSDOF 3
ENDMDL
MODEL 2
REMARK VINA RESULT:      -8.4      0.862      1.481
REMARK  Name = 
REMARK  5 active torsions:
REMARK  status: ('A' for Active; 'I' for Inactive)
REMARK    1  A    between atoms: C_1  and  C_2
REMARK    2  A    between atoms: C_2  and  C_3
REMARK    3  A    between atoms: C_2  and  N_4
REMARK    4  A    between atoms: C_8  and  C_10
REMARK    5  A    between atoms: C_20  and  C_21
REMARK                            x       y       z     vdW  Elec       q    Type
REMARK                         _______ _______ _______ _____ _____    ______ ____
ROOT
ATOM      1  C   UNL     1       1.541   8.546  19.454  0.00  0.00    +0.000 A 
ATOM      2  C   UNL     1       0.837   9.674  19.056  0.00  0.00    +0.000 A 
ATOM      3  C   UNL     1       0.134  10.406  20.003  0.00  0.00    +0.000 A 
ATOM      4  C   UNL     1       0.037   9.942  21.312  0.00  0.00    +0.000 A 
ATOM      5  N   UNL     1      -0.605  10.677  22.300  0.00  0.00    +0.000 N 
ATOM      6  C   UNL     1      -0.686  12.056  22.455  0.00  0.00    +0.000 A 
ATOM      7  N   UNL     1      -1.371  12.507  23.516  0.00  0.00    +0.000 NA
ATOM      8  C   UNL     1      -1.489  13.846  23.642  0.00  0.00    +0.000 A 
ATOM      9  C   UNL     1      -0.928  14.747  22.772  0.00  0.00    +0.000 A 
ATOM     10  F   UNL     1      -1.090  16.063  22.962  0.00  0.00    +0.000 F 
ATOM     11  C   UNL     1      -0.215  14.218  21.716  0.00  0.00    +0.000 A 
ATOM     12  N   UNL     1      -0.092  12.877  21.568  0.00  0.00    +0.000 NA
ATOM     13  N   UNL     1       0.558   8.745  21.665  0.00  0.00    +0.000 NA
ATOM     14  C   UNL     1       1.310   8.082  20.741  0.00  0.00    +0.000 A 
ATOM     15  H   UNL     1      -0.708  10.187  23.174  0.00  0.00    +0.000 HD
ENDROOT
BRANCH  11  16
ATOM     16  C   UNL     1       0.418  15.025  20.650  0.00  0.00    +0.000 A 
ATOM     17  C   UNL     1      -0.141  16.225  20.194  0.00  0.00    +0.000 A 
ATOM     18  C   UNL     1       0.451  16.957  19.162  0.00  0.00    +0.000 A 
ATOM     19  C   UNL     1       1.609  16.522  18.540  0.00  0.00    +0.000 A 
ATOM     20  N   UNL     1       2.136  17.263  17.547  0.00  0.00    +0.000 NA
ATOM     21  C   UNL     1       3.261  16.786  16.978  0.00  0.00    +0.000 A 
ATOM     22  C   UNL     1       3.846  15.606  17.389  0.00  0.00    +0.000 A 
ATOM     23  N   UNL     1       3.330  14.847  18.382  0.00  0.00    +0.000 NA
ATOM     24  C   UNL     1       2.203  15.307  18.970  0.00  0.00    +0.000 A 
ATOM     25  C   UNL     1       1.602  14.595  20.008  0.00  0.00    +0.000 A 
ENDBRANCH  11  16
BRANCH   1  30
ATOM     26  N   UNL     1       3.562   3.773  19.493  0.00  0.00    +0.000 NA
ATOM     27  C   UNL     1       4.417   4.663  18.653  0.00  0.00    +0.000 C 
ATOM     28  C   UNL     1       3.687   5.787  17.859  0.00  0.00    +0.000 C 
ATOM     29  N   UNL     1       2.675   6.478  18.672  0.00  0.00    +0.000 N 
ATOM     30  C   UNL     1       2.527   7.866  18.580  0.00  0.00    +0.000 C 
ATOM     31  O   UNL     1       3.159   8.555  17.784  0.00  0.00    +0.000 OA
ATOM     32  C   UNL     1       1.808   5.554  19.411  0.00  0.00    +0.000 C 
ATOM     33  C   UNL     1       2.696   4.669  20.304  0.00  0.00    +0.000 C 
BRANCH  26  35
ATOM     34  C   UNL     1       3.605   1.658  18.110  0.00  0.00    +0.000 C 
ATOM     35  C   UNL     1       2.764   2.783  18.723  0.00  0.00    +0.000 C 
ATOM     36  C   UNL     1       1.686   2.117  19.602  0.00  0.00    +0.000 C 
ENDBRANCH  26  35
ENDBRANCH   1  30
TORSDOF 3
ENDMDL
MODEL 3
REMARK VINA RESULT:      -8.2      1.392      2.152
REMARK  Name = 
REMARK  5 active torsions:
REMARK  status: ('A' for Active; 'I' for Inactive)
REMARK    1  A    between atoms: C_1  and  C_2
REMARK    2  A    between atoms: C_2  and  C_3
REMARK    3  A    between atoms: C_2  and  N_4
REMARK    4  A    between atoms: C_8  and  C_10
REMARK    5  A    between atoms: C_20  and  C_21
REMARK                            x       y       z     vdW  Elec       q    Type
REMARK                         _______ _______ _______ _____ _____    ______ ____
ROOT
ATOM      1  C   UNL     1       1.939   8.191  19.200  0.00  0.00    +0.000 A 
ATOM      2  C   UNL     1       1.438   9.423  18.805  0.00  0.00    +0.000 A 
ATOM      3  C   UNL     1       0.671  10.163  19.695  0.00  0.00    +0.000 A 
ATOM      4  C   UNL     1       0.308   9.617  20.923  0.00  0.00    +0.000 A 
ATOM      5  N   UNL     1      -0.405  10.349  21.863  0.00  0.00    +0.000 N 
ATOM      6  C   UNL     1      -0.360  11.711  22.132  0.00  0.00    +0.000 A 
ATOM      7  N   UNL     1      -1.159  12.162  23.110  0.00  0.00    +0.000 NA
ATOM      8  C   UNL     1      -1.150  13.493  23.342  0.00  0.00    +0.000 A 
ATOM      9  C   UNL     1      -0.358  14.381  22.658  0.00  0.00    +0.000 A 
ATOM     10  F   UNL     1      -0.405  15.689  22.943  0.00  0.00    +0.000 F 
ATOM     11  C   UNL     1       0.459  13.849  21.682  0.00  0.00    +0.000 A 
ATOM     12  N   UNL     1       0.459  12.518  21.429  0.00  0.00    +0.000 NA
ATOM     13  N   UNL     1       0.631   8.342  21.239  0.00  0.00    +0.000 NA
ATOM     14  C   UNL     1       1.449   7.663  20.385  0.00  0.00    +0.000 A 
ATOM     15  H   UNL     1      -0.705   9.811  22.660  0.00  0.00    +0.000 HD
ENDROOT
BRANCH  11  16
ATOM     16  C   UNL     1       1.344  14.650  20.809  0.00  0.00    +0.000 A 
ATOM     17  C   UNL     1       0.856  15.360  19.705  0.00  0.00    +0.000 A 
ATOM     18  C   UNL     1       1.711  16.083  18.869  0.00  0.00    +0.000 A 
ATOM     19  C   UNL     1       3.077  16.120  19.091  0.00  0.00    +0.000 A 
ATOM     20  N   UNL     1       3.857  16.829  18.253  0.00  0.00    +0.000 NA
ATOM     21  C   UNL     1       5.179  16.824  18.519  0.00  0.00    +0.000 A 
ATOM     22  C   UNL     1       5.708  16.135  19.591  0.00  0.00    +0.000 A 
ATOM     23  N   UNL     1       4.941  15.416  20.441  0.00  0.00    +0.000 NA
ATOM     24  C   UNL     1       3.611  15.408  20.197  0.00  0.00    +0.000 A 
ATOM     25  C   UNL     1       2.741  14.700  21.025  0.00  0.00    +0.000 A 
ENDBRANCH  11  16
BRANCH   1  30
ATOM     26  N   UNL     1       3.812   3.368  19.526  0.00  0.00    +0.000 NA
ATOM     27  C   UNL     1       4.761   4.214  18.742  0.00  0.00    +0.000 C 
ATOM     28  C   UNL     1       4.135   5.336  17.861  0.00  0.00    +0.000 C 
ATOM     29  N   UNL     1       3.077   6.074  18.567  0.00  0.00    +0.000 N 
ATOM     30  C   UNL     1       2.977   7.462  18.431  0.00  0.00    +0.000 C 
ATOM     31  O   UNL     1       3.695   8.114  17.676  0.00  0.00    +0.000 OA
ATOM     32  C   UNL     1       2.124   5.192  19.250  0.00  0.00    +0.000 C 
ATOM     33  C   UNL     1       2.906   4.307  20.237  0.00  0.00    +0.000 C 
BRANCH  26  35
ATOM     34  C   UNL     1       3.870   1.136  18.341  0.00  0.00    +0.000 C 
ATOM     35  C   UNL     1       3.056   2.381  18.712  0.00  0.00    +0.000 C 
ATOM     36  C   UNL     1       1.790   1.892  19.447  0.00  0.00    +0.000 C 
ENDBRANCH  26  35
ENDBRANCH   1  30
TORSDOF 3
ENDMDL
MODEL 4
REMARK VINA RESULT:      -8.1      5.601      8.061
REMARK  Name = 
REMARK  5 active torsions:
REMARK  status: ('A' for Active; 'I' for Inactive)
REMARK    1  A    between atoms: C_1  and  C_2
REMARK    2  A    between atoms: C_2  and  C_3
REMARK    3  A    between atoms: C_2  and  N_4
REMARK    4  A    between atoms: C_8  and  C_10
REMARK    5  A    between atoms: C_20  and  C_21
REMARK                            x       y       z     vdW  Elec       q    Type
REMARK                         _______ _______ _______ _____ _____    ______ ____
ROOT
ATOM      1  C   UNL     1       1.398  12.298  19.489  0.00  0.00    +0.000 A 
ATOM      2  C   UNL     1       2.408  13.116  19.006  0.00  0.00    +0.000 A 
ATOM      3  C   UNL     1       3.039  14.000  19.871  0.00  0.00    +0.000 A 
ATOM      4  C   UNL     1       2.577  14.148  21.176  0.00  0.00    +0.000 A 
ATOM      5  N   UNL     1       3.220  14.976  22.086  0.00  0.00    +0.000 N 
ATOM      6  C   UNL     1       4.574  15.267  22.204  0.00  0.00    +0.000 A 
ATOM      7  N   UNL     1       4.930  16.104  23.190  0.00  0.00    +0.000 NA
ATOM      8  C   UNL     1       6.239  16.424  23.277  0.00  0.00    +0.000 A 
ATOM      9  C   UNL     1       7.204  15.921  22.440  0.00  0.00    +0.000 A 
ATOM     10  F   UNL     1       8.485  16.286  22.587  0.00  0.00    +0.000 F 
ATOM     11  C   UNL     1       6.775  15.046  21.463  0.00  0.00    +0.000 A 
ATOM     12  N   UNL     1       5.465  14.719  21.355  0.00  0.00    +0.000 NA
ATOM     13  N   UNL     1       1.471  13.495  21.599  0.00  0.00    +0.000 NA
ATOM     14  C   UNL     1       0.916  12.575  20.759  0.00  0.00    +0.000 A 
ATOM     15  H   UNL     1       2.728  15.087  22.958  0.00  0.00    +0.000 HD
ENDROOT
BRANCH  11  16
ATOM     16  C   UNL     1       7.656  14.441  20.441  0.00  0.00    +0.000 A 
ATOM     17  C   UNL     1       7.499  14.704  19.074  0.00  0.00    +0.000 A 
ATOM     18  C   UNL     1       8.318  14.096  18.119  0.00  0.00    +0.000 A 
ATOM     19  C   UNL     1       9.310  13.202  18.482  0.00  0.00    +0.000 A 
ATOM     20  N   UNL     1      10.069  12.641  17.520  0.00  0.00    +0.000 NA
ATOM     21  C   UNL     1      11.016  11.776  17.935  0.00  0.00    +0.000 A 
ATOM     22  C   UNL     1      11.205  11.481  19.269  0.00  0.00    +0.000 A 
ATOM     23  N   UNL     1      10.451  12.032  20.248  0.00  0.00    +0.000 NA
ATOM     24  C   UNL     1       9.497  12.905  19.857  0.00  0.00    +0.000 A 
ATOM     25  C   UNL     1       8.676  13.528  20.797  0.00  0.00    +0.000 A 
ENDBRANCH  11  16
BRANCH   1  30
ATOM     26  N   UNL     1      -3.416  10.911  18.155  0.00  0.00    +0.000 NA
ATOM     27  C   UNL     1      -2.507   9.735  18.012  0.00  0.00    +0.000 C 
ATOM     28  C   UNL     1      -1.042  10.032  17.571  0.00  0.00    +0.000 C 
ATOM     29  N   UNL     1      -0.468  11.184  18.283  0.00  0.00    +0.000 N 
ATOM     30  C   UNL     1       0.860  11.149  18.720  0.00  0.00    +0.000 C 
ATOM     31  O   UNL     1       1.621  10.217  18.473  0.00  0.00    +0.000 OA
ATOM     32  C   UNL     1      -1.370  12.340  18.321  0.00  0.00    +0.000 C 
ATOM     33  C   UNL     1      -2.687  11.903  18.987  0.00  0.00    +0.000 C 
BRANCH  26  35
ATOM     34  C   UNL     1      -3.837  10.508  15.696  0.00  0.00    +0.000 C 
ATOM     35  C   UNL     1      -3.868  11.497  16.867  0.00  0.00    +0.000 C 
ATOM     36  C   UNL     1      -5.309  12.038  16.965  0.00  0.00    +0.000 C 
ENDBRANCH  26  35
ENDBRANCH   1  30
TORSDOF 3
ENDMDL
MODEL 5
REMARK VINA RESULT:      -7.9      5.232      8.870
REMARK  Name = 
REMARK  5 active torsions:
REMARK  status: ('A' for Active; 'I' for Inactive)
REMARK    1  A    between atoms: C_1  and  C_2
REMARK    2  A    between atoms: C_2  and  C_3
REMARK    3  A    between atoms: C_2  and  N_4
REMARK    4  A    between atoms: C_8  and  C_10
REMARK    5  A    between atoms: C_20  and  C_21
REMARK                            x       y       z     vdW  Elec       q    Type
REMARK                         _______ _______ _______ _____ _____    ______ ____
ROOT
ATOM      1  C   UNL     1       6.144  14.617  21.689  0.00  0.00    +0.000 A 
ATOM      2  C   UNL     1       5.044  13.862  22.070  0.00  0.00    +0.000 A 
ATOM      3  C   UNL     1       3.813  14.106  21.478  0.00  0.00    +0.000 A 
ATOM      4  C   UNL     1       3.660  15.178  20.603  0.00  0.00    +0.000 A 
ATOM      5  N   UNL     1       2.461  15.417  19.945  0.00  0.00    +0.000 N 
ATOM      6  C   UNL     1       1.517  14.507  19.484  0.00  0.00    +0.000 A 
ATOM      7  N   UNL     1       0.439  15.013  18.868  0.00  0.00    +0.000 NA
ATOM      8  C   UNL     1      -0.501  14.132  18.461  0.00  0.00    +0.000 A 
ATOM      9  C   UNL     1      -0.392  12.773  18.619  0.00  0.00    +0.000 A 
ATOM     10  F   UNL     1      -1.368  11.962  18.190  0.00  0.00    +0.000 F 
ATOM     11  C   UNL     1       0.753  12.316  19.238  0.00  0.00    +0.000 A 
ATOM     12  N   UNL     1       1.703  13.184  19.660  0.00  0.00    +0.000 NA
ATOM     13  N   UNL     1       4.679  16.037  20.373  0.00  0.00    +0.000 NA
ATOM     14  C   UNL     1       5.899  15.733  20.903  0.00  0.00    +0.000 A 
ATOM     15  H   UNL     1       2.441  16.283  19.430  0.00  0.00    +0.000 HD
ENDROOT
BRANCH  11  16
ATOM     16  C   UNL     1       1.026  10.895  19.540  0.00  0.00    +0.000 A 
ATOM     17  C   UNL     1       0.782  10.343  20.804  0.00  0.00    +0.000 A 
ATOM     18  C   UNL     1       1.079   9.007  21.083  0.00  0.00    +0.000 A 
ATOM     19  C   UNL     1       1.636   8.175  20.127  0.00  0.00    +0.000 A 
ATOM     20  N   UNL     1       1.907   6.896  20.450  0.00  0.00    +0.000 NA
ATOM     21  C   UNL     1       2.452   6.137  19.477  0.00  0.00    +0.000 A 
ATOM     22  C   UNL     1       2.716   6.637  18.219  0.00  0.00    +0.000 A 
ATOM     23  N   UNL     1       2.454   7.919  17.878  0.00  0.00    +0.000 NA
ATOM     24  C   UNL     1       1.904   8.699  18.835  0.00  0.00    +0.000 A 
ATOM     25  C   UNL     1       1.592  10.033  18.572  0.00  0.00    +0.000 A 
ENDBRANCH  11  16
BRANCH   1  30
ATOM     26  N   UNL     1      10.121  12.710  18.965  0.00  0.00    +0.000 NA
ATOM     27  C   UNL     1      10.378  12.507  20.422  0.00  0.00    +0.000 C 
ATOM     28  C   UNL     1       9.838  13.603  21.388  0.00  0.00    +0.000 C 
ATOM     29  N   UNL     1       8.469  14.021  21.047  0.00  0.00    +0.000 N 
ATOM     30  C   UNL     1       7.533  14.255  22.060  0.00  0.00    +0.000 C 
ATOM     31  O   UNL     1       7.813  14.204  23.255  0.00  0.00    +0.000 OA
ATOM     32  C   UNL     1       8.293  14.289  19.616  0.00  0.00    +0.000 C 
ATOM     33  C   UNL     1       8.672  13.017  18.836  0.00  0.00    +0.000 C 
BRANCH  26  35
ATOM     34  C   UNL     1      12.333  13.932  19.002  0.00  0.00    +0.000 C 
ATOM     35  C   UNL     1      10.965  13.758  18.333  0.00  0.00    +0.000 C 
ATOM     36  C   UNL     1      11.223  13.455  16.843  0.00  0.00    +0.000 C 
ENDBRANCH  26  35
ENDBRANCH   1  30
TORSDOF 3
ENDMDL
MODEL 6
REMARK VINA RESULT:      -7.8      3.549     10.427
REMARK  Name = 
REMARK  5 active torsions:
REMARK  status: ('A' for Active; 'I' for Inactive)
REMARK    1  A    between atoms: C_1  and  C_2
REMARK    2  A    between atoms: C_2  and  C_3
REMARK    3  A    between atoms: C_2  and  N_4
REMARK    4  A    between atoms: C_8  and  C_10
REMARK    5  A    between atoms: C_20  and  C_21
REMARK                            x       y       z     vdW  Elec       q    Type
REMARK                         _______ _______ _______ _____ _____    ______ ____
ROOT
ATOM      1  C   UNL     1       0.353  10.140  19.751  0.00  0.00    +0.000 A 
ATOM      2  C   UNL     1       1.648   9.649  19.669  0.00  0.00    +0.000 A 
ATOM      3  C   UNL     1       1.935   8.394  20.189  0.00  0.00    +0.000 A 
ATOM      4  C   UNL     1       0.960   7.692  20.893  0.00  0.00    +0.000 A 
ATOM      5  N   UNL     1       1.191   6.410  21.374  0.00  0.00    +0.000 N 
ATOM      6  C   UNL     1       1.967   5.395  20.829  0.00  0.00    +0.000 A 
ATOM      7  N   UNL     1       2.011   4.237  21.504  0.00  0.00    +0.000 NA
ATOM      8  C   UNL     1       2.802   3.265  21.000  0.00  0.00    +0.000 A 
ATOM      9  C   UNL     1       3.524   3.395  19.840  0.00  0.00    +0.000 A 
ATOM     10  F   UNL     1       4.289   2.386  19.403  0.00  0.00    +0.000 F 
ATOM     11  C   UNL     1       3.416   4.602  19.181  0.00  0.00    +0.000 A 
ATOM     12  N   UNL     1       2.634   5.592  19.675  0.00  0.00    +0.000 NA
ATOM     13  N   UNL     1      -0.248   8.245  21.145  0.00  0.00    +0.000 NA
ATOM     14  C   UNL     1      -0.534   9.443  20.559  0.00  0.00    +0.000 A 
ATOM     15  H   UNL     1       0.454   6.054  21.963  0.00  0.00    +0.000 HD
ENDROOT
BRANCH  11  16
ATOM     16  C   UNL     1       4.154   4.947  17.947  0.00  0.00    +0.000 A 
ATOM     17  C   UNL     1       4.337   6.273  17.535  0.00  0.00    +0.000 A 
ATOM     18  C   UNL     1       5.007   6.579  16.348  0.00  0.00    +0.000 A 
ATOM     19  C   UNL     1       5.507   5.586  15.523  0.00  0.00    +0.000 A 
ATOM     20  N   UNL     1       6.140   5.936  14.387  0.00  0.00    +0.000 NA
ATOM     21  C   UNL     1       6.602   4.925  13.625  0.00  0.00    +0.000 A 
ATOM     22  C   UNL     1       6.440   3.603  13.985  0.00  0.00    +0.000 A 
ATOM     23  N   UNL     1       5.805   3.232  15.120  0.00  0.00    +0.000 NA
ATOM     24  C   UNL     1       5.336   4.229  15.903  0.00  0.00    +0.000 A 
ATOM     25  C   UNL     1       4.673   3.943  17.096  0.00  0.00    +0.000 A 
ENDBRANCH  11  16
BRANCH   1  30
ATOM     26  N   UNL     1       0.642  15.226  20.710  0.00  0.00    +0.000 NA
ATOM     27  C   UNL     1      -0.390  14.980  19.659  0.00  0.00    +0.000 C 
ATOM     28  C   UNL     1      -0.123  13.799  18.679  0.00  0.00    +0.000 C 
ATOM     29  N   UNL     1       0.360  12.596  19.374  0.00  0.00    +0.000 N 
ATOM     30  C   UNL     1      -0.103  11.332  18.996  0.00  0.00    +0.000 C 
ATOM     31  O   UNL     1      -0.855  11.152  18.042  0.00  0.00    +0.000 OA
ATOM     32  C   UNL     1       1.431  12.883  20.334  0.00  0.00    +0.000 C 
ATOM     33  C   UNL     1       0.906  13.911  21.351  0.00  0.00    +0.000 C 
BRANCH  26  35
ATOM     34  C   UNL     1       1.648  17.052  19.281  0.00  0.00    +0.000 C 
ATOM     35  C   UNL     1       1.891  15.856  20.208  0.00  0.00    +0.000 C 
ATOM     36  C   UNL     1       2.781  16.352  21.366  0.00  0.00    +0.000 C 
ENDBRANCH  26  35
ENDBRANCH   1  30
TORSDOF 3
ENDMDL
MODEL 7
REMARK VINA RESULT:      -7.7      5.550      7.912
REMARK  Name = 
REMARK  5 active torsions:
REMARK  status: ('A' for Active; 'I' for Inactive)
REMARK    1  A    between atoms: C_1  and  C_2
REMARK    2  A    between atoms: C_2  and  C_3
REMARK    3  A    between atoms: C_2  and  N_4
REMARK    4  A    between atoms: C_8  and  C_10
REMARK    5  A    between atoms: C_20  and  C_21
REMARK                            x       y       z     vdW  Elec       q    Type
REMARK                         _______ _______ _______ _____ _____    ______ ____
ROOT
ATOM      1  C   UNL     1       1.404  12.339  19.546  0.00  0.00    +0.000 A 
ATOM      2  C   UNL     1       2.570  13.002  19.191  0.00  0.00    +0.000 A 
ATOM      3  C   UNL     1       3.142  13.896  20.086  0.00  0.00    +0.000 A 
ATOM      4  C   UNL     1       2.486  14.213  21.271  0.00  0.00    +0.000 A 
ATOM      5  N   UNL     1       3.056  15.055  22.217  0.00  0.00    +0.000 N 
ATOM      6  C   UNL     1       4.394  15.218  22.554  0.00  0.00    +0.000 A 
ATOM      7  N   UNL     1       4.672  16.104  23.521  0.00  0.00    +0.000 NA
ATOM      8  C   UNL     1       5.975  16.297  23.817  0.00  0.00    +0.000 A 
ATOM      9  C   UNL     1       7.004  15.622  23.208  0.00  0.00    +0.000 A 
ATOM     10  F   UNL     1       8.274  15.868  23.554  0.00  0.00    +0.000 F 
ATOM     11  C   UNL     1       6.648  14.706  22.239  0.00  0.00    +0.000 A 
ATOM     12  N   UNL     1       5.347  14.504  21.923  0.00  0.00    +0.000 NA
ATOM     13  N   UNL     1       1.256  13.718  21.538  0.00  0.00    +0.000 NA
ATOM     14  C   UNL     1       0.748  12.783  20.684  0.00  0.00    +0.000 A 
ATOM     15  H   UNL     1       2.438  15.297  22.976  0.00  0.00    +0.000 HD
ENDROOT
BRANCH  11  16
ATOM     16  C   UNL     1       7.614  13.921  21.440  0.00  0.00    +0.000 A 
ATOM     17  C   UNL     1       8.254  12.785  21.953  0.00  0.00    +0.000 A 
ATOM     18  C   UNL     1       9.190  12.076  21.196  0.00  0.00    +0.000 A 
ATOM     19  C   UNL     1       9.533  12.471  19.915  0.00  0.00    +0.000 A 
ATOM     20  N   UNL     1      10.445  11.754  19.231  0.00  0.00    +0.000 NA
ATOM     21  C   UNL     1      10.740  12.190  17.990  0.00  0.00    +0.000 A 
ATOM     22  C   UNL     1      10.141  13.306  17.444  0.00  0.00    +0.000 A 
ATOM     23  N   UNL     1       9.225  14.041  18.117  0.00  0.00    +0.000 NA
ATOM     24  C   UNL     1       8.911  13.621  19.363  0.00  0.00    +0.000 A 
ATOM     25  C   UNL     1       7.972  14.311  20.129  0.00  0.00    +0.000 A 
ENDBRANCH  11  16
BRANCH   1  30
ATOM     26  N   UNL     1      -3.393  10.943  18.162  0.00  0.00    +0.000 NA
ATOM     27  C   UNL     1      -2.484   9.765  18.045  0.00  0.00    +0.000 C 
ATOM     28  C   UNL     1      -1.013  10.056  17.620  0.00  0.00    +0.000 C 
ATOM     29  N   UNL     1      -0.447  11.214  18.327  0.00  0.00    +0.000 N 
ATOM     30  C   UNL     1       0.875  11.182  18.783  0.00  0.00    +0.000 C 
ATOM     31  O   UNL     1       1.638  10.247  18.557  0.00  0.00    +0.000 OA
ATOM     32  C   UNL     1      -1.348  12.371  18.340  0.00  0.00    +0.000 C 
ATOM     33  C   UNL     1      -2.674  11.944  18.993  0.00  0.00    +0.000 C 
BRANCH  26  35
ATOM     34  C   UNL     1      -3.761  10.520  15.697  0.00  0.00    +0.000 C 
ATOM     35  C   UNL     1      -3.827  11.516  16.861  0.00  0.00    +0.000 C 
ATOM     36  C   UNL     1      -5.276  12.041  16.927  0.00  0.00    +0.000 C 
ENDBRANCH  26  35
ENDBRANCH   1  30
TORSDOF 3
ENDMDL
MODEL 8
REMARK VINA RESULT:      -7.7      5.460      8.194
REMARK  Name = 
REMARK  5 active torsions:
REMARK  status: ('A' for Active; 'I' for Inactive)
REMARK    1  A    between atoms: C_1  and  C_2
REMARK    2  A    between atoms: C_2  and  C_3
REMARK    3  A    between atoms: C_2  and  N_4
REMARK    4  A    between atoms: C_8  and  C_10
REMARK    5  A    between atoms: C_20  and  C_21
REMARK                            x       y       z     vdW  Elec       q    Type
REMARK                         _______ _______ _______ _____ _____    ______ ____
ROOT
ATOM      1  C   UNL     1       6.678  14.717  22.077  0.00  0.00    +0.000 A 
ATOM      2  C   UNL     1       5.315  14.501  22.217  0.00  0.00    +0.000 A 
ATOM      3  C   UNL     1       4.422  15.430  21.700  0.00  0.00    +0.000 A 
ATOM      4  C   UNL     1       4.893  16.623  21.158  0.00  0.00    +0.000 A 
ATOM      5  N   UNL     1       4.035  17.548  20.577  0.00  0.00    +0.000 N 
ATOM      6  C   UNL     1       2.861  17.330  19.867  0.00  0.00    +0.000 A 
ATOM      7  N   UNL     1       2.223  18.414  19.403  0.00  0.00    +0.000 NA
ATOM      8  C   UNL     1       1.058  18.207  18.753  0.00  0.00    +0.000 A 
ATOM      9  C   UNL     1       0.522  16.964  18.526  0.00  0.00    +0.000 A 
ATOM     10  F   UNL     1      -0.641  16.837  17.874  0.00  0.00    +0.000 F 
ATOM     11  C   UNL     1       1.240  15.888  19.008  0.00  0.00    +0.000 A 
ATOM     12  N   UNL     1       2.407  16.077  19.669  0.00  0.00    +0.000 NA
ATOM     13  N   UNL     1       6.210  16.929  21.191  0.00  0.00    +0.000 NA
ATOM     14  C   UNL     1       7.074  15.970  21.631  0.00  0.00    +0.000 A 
ATOM     15  H   UNL     1       4.479  18.416  20.325  0.00  0.00    +0.000 HD
ENDROOT
BRANCH  11  16
ATOM     16  C   UNL     1       0.801  14.480  18.904  0.00  0.00    +0.000 A 
ATOM     17  C   UNL     1      -0.504  14.082  19.221  0.00  0.00    +0.000 A 
ATOM     18  C   UNL     1      -0.892  12.742  19.151  0.00  0.00    +0.000 A 
ATOM     19  C   UNL     1      -0.001  11.750  18.778  0.00  0.00    +0.000 A 
ATOM     20  N   UNL     1      -0.426  10.473  18.731  0.00  0.00    +0.000 NA
ATOM     21  C   UNL     1       0.487   9.552  18.364  0.00  0.00    +0.000 A 
ATOM     22  C   UNL     1       1.786   9.894  18.048  0.00  0.00    +0.000 A 
ATOM     23  N   UNL     1       2.231  11.171  18.092  0.00  0.00    +0.000 NA
ATOM     24  C   UNL     1       1.332  12.113  18.455  0.00  0.00    +0.000 A 
ATOM     25  C   UNL     1       1.699  13.456  18.521  0.00  0.00    +0.000 A 
ENDBRANCH  11  16
BRANCH   1  30
ATOM     26  N   UNL     1       9.822  11.984  18.992  0.00  0.00    +0.000 NA
ATOM     27  C   UNL     1       9.720  11.305  20.318  0.00  0.00    +0.000 C 
ATOM     28  C   UNL     1       9.558  12.225  21.564  0.00  0.00    +0.000 C 
ATOM     29  N   UNL     1       8.585  13.305  21.338  0.00  0.00    +0.000 N 
ATOM     30  C   UNL     1       7.689  13.668  22.350  0.00  0.00    +0.000 C 
ATOM     31  O   UNL     1       7.717  13.176  23.475  0.00  0.00    +0.000 OA
ATOM     32  C   UNL     1       8.782  13.993  20.058  0.00  0.00    +0.000 C 
ATOM     33  C   UNL     1       8.695  12.951  18.930  0.00  0.00    +0.000 C 
BRANCH  26  35
ATOM     34  C   UNL     1      12.333  11.839  19.242  0.00  0.00    +0.000 C 
ATOM     35  C   UNL     1      11.130  12.645  18.740  0.00  0.00    +0.000 C 
ATOM     36  C   UNL     1      11.353  12.905  17.236  0.00  0.00    +0.000 C 
ENDBRANCH  26  35
ENDBRANCH   1  30
TORSDOF 3
ENDMDL
MODEL 9
REMARK VINA RESULT:      -7.7      3.161      4.668
REMARK  Name = 
REMARK  5 active torsions:
REMARK  status: ('A' for Active; 'I' for Inactive)
REMARK    1  A    between atoms: C_1  and  C_2
REMARK    2  A    between atoms: C_2  and  C_3
REMARK    3  A    between atoms: C_2  and  N_4
REMARK    4  A    between atoms: C_8  and  C_10
REMARK    5  A    between atoms: C_20  and  C_21
REMARK                            x       y       z     vdW  Elec       q    Type
REMARK                         _______ _______ _______ _____ _____    ______ ____
ROOT
ATOM      1  C   UNL     1       4.627   6.709  17.756  0.00  0.00    +0.000 A 
ATOM      2  C   UNL     1       3.609   7.620  17.514  0.00  0.00    +0.000 A 
ATOM      3  C   UNL     1       2.596   7.772  18.451  0.00  0.00    +0.000 A 
ATOM      4  C   UNL     1       2.539   6.931  19.559  0.00  0.00    +0.000 A 
ATOM      5  N   UNL     1       1.577   7.093  20.547  0.00  0.00    +0.000 N 
ATOM      6  C   UNL     1       0.989   8.262  21.017  0.00  0.00    +0.000 A 
ATOM      7  N   UNL     1       0.082   8.132  21.996  0.00  0.00    +0.000 NA
ATOM      8  C   UNL     1      -0.524   9.262  22.420  0.00  0.00    +0.000 A 
ATOM      9  C   UNL     1      -0.240  10.511  21.928  0.00  0.00    +0.000 A 
ATOM     10  F   UNL     1      -0.884  11.588  22.399  0.00  0.00    +0.000 F 
ATOM     11  C   UNL     1       0.721  10.578  20.940  0.00  0.00    +0.000 A 
ATOM     12  N   UNL     1       1.334   9.455  20.495  0.00  0.00    +0.000 NA
ATOM     13  N   UNL     1       3.418   5.914  19.705  0.00  0.00    +0.000 NA
ATOM     14  C   UNL     1       4.449   5.832  18.816  0.00  0.00    +0.000 A 
ATOM     15  H   UNL     1       1.568   6.358  21.236  0.00  0.00    +0.000 HD
ENDROOT
BRANCH  11  16
ATOM     16  C   UNL     1       1.126  11.824  20.254  0.00  0.00    +0.000 A 
ATOM     17  C   UNL     1       1.453  11.851  18.892  0.00  0.00    +0.000 A 
ATOM     18  C   UNL     1       1.867  13.031  18.268  0.00  0.00    +0.000 A 
ATOM     19  C   UNL     1       1.983  14.218  18.970  0.00  0.00    +0.000 A 
ATOM     20  N   UNL     1       2.391  15.325  18.321  0.00  0.00    +0.000 NA
ATOM     21  C   UNL     1       2.487  16.449  19.059  0.00  0.00    +0.000 A 
ATOM     22  C   UNL     1       2.182  16.471  20.404  0.00  0.00    +0.000 A 
ATOM     23  N   UNL     1       1.774  15.369  21.073  0.00  0.00    +0.000 NA
ATOM     24  C   UNL     1       1.666  14.230  20.354  0.00  0.00    +0.000 A 
ATOM     25  C   UNL     1       1.245  13.045  20.958  0.00  0.00    +0.000 A 
ENDBRANCH  11  16
BRANCH   1  30
ATOM     26  N   UNL     1       6.328   3.514  14.044  0.00  0.00    +0.000 NA
ATOM     27  C   UNL     1       7.480   4.288  14.595  0.00  0.00    +0.000 C 
ATOM     28  C   UNL     1       7.186   5.747  15.056  0.00  0.00    +0.000 C 
ATOM     29  N   UNL     1       5.939   5.848  15.829  0.00  0.00    +0.000 N 
ATOM     30  C   UNL     1       5.877   6.671  16.958  0.00  0.00    +0.000 C 
ATOM     31  O   UNL     1       6.804   7.396  17.310  0.00  0.00    +0.000 OA
ATOM     32  C   UNL     1       4.819   5.139  15.201  0.00  0.00    +0.000 C 
ATOM     33  C   UNL     1       5.219   3.664  15.023  0.00  0.00    +0.000 C 
BRANCH  26  35
ATOM     34  C   UNL     1       7.087   4.301  11.766  0.00  0.00    +0.000 C 
ATOM     35  C   UNL     1       5.914   3.919  12.676  0.00  0.00    +0.000 C 
ATOM     36  C   UNL     1       5.134   2.795  11.964  0.00  0.00    +0.000 C 
ENDBRANCH  26  35
ENDBRANCH   1  30
TORSDOF 3
ENDMDL
