MODEL 1
REMARK VINA RESULT:      -6.6      0.000      0.000
REMARK  Name = 
REMARK  4 active torsions:
REMARK  status: ('A' for Active; 'I' for Inactive)
REMARK    1  A    between atoms: C_1  and  O_2
REMARK    2  A    between atoms: O_2  and  C_3
REMARK    3  A    between atoms: C_8  and  C_9
REMARK    4  A    between atoms: C_10  and  C_11
REMARK                            x       y       z     vdW  Elec       q    Type
REMARK                         _______ _______ _______ _____ _____    ______ ____
ROOT
ATOM      1  C   UNL     1       2.370   4.897  19.475  0.00  0.00    +0.000 A 
ATOM      2  C   UNL     1       1.382   4.499  20.391  0.00  0.00    +0.000 A 
ATOM      3  C   UNL     1       0.672   3.312  20.207  0.00  0.00    +0.000 A 
ATOM      4  C   UNL     1       0.942   2.506  19.110  0.00  0.00    +0.000 A 
ATOM      5  C   UNL     1       1.925   2.884  18.195  0.00  0.00    +0.000 A 
ATOM      6  C   UNL     1       2.659   4.074  18.366  0.00  0.00    +0.000 A 
ENDROOT
BRANCH   1   8
ATOM      7  C   UNL     1       2.419   7.279  19.365  0.00  0.00    +0.000 C 
ATOM      8  O   UNL     1       3.094   6.054  19.621  0.00  0.00    +0.000 OA
ENDBRANCH   1   8
BRANCH   6   9
ATOM      9  C   UNL     1       3.610   4.416  17.283  0.00  0.00    +0.000 C 
ATOM     10  C   UNL     1       4.716   3.727  16.959  0.00  0.00    +0.000 C 
BRANCH  10  11
ATOM     11  C   UNL     1       5.668   4.151  15.921  0.00  0.00    +0.000 A 
ATOM     12  C   UNL     1       6.714   5.021  16.222  0.00  0.00    +0.000 A 
ATOM     13  N   UNL     1       7.595   5.480  15.296  0.00  0.00    +0.000 NA
ATOM     14  C   UNL     1       7.385   5.032  14.040  0.00  0.00    +0.000 A 
ATOM     15  C   UNL     1       6.355   4.162  13.727  0.00  0.00    +0.000 A 
ATOM     16  N   UNL     1       5.481   3.704  14.653  0.00  0.00    +0.000 NA
ENDBRANCH  10  11
ENDBRANCH   6   9
TORSDOF 3
ENDMDL
MODEL 2
REMARK VINA RESULT:      -6.6      1.876      2.299
REMARK  Name = 
REMARK  4 active torsions:
REMARK  status: ('A' for Active; 'I' for Inactive)
REMARK    1  A    between atoms: C_1  and  O_2
REMARK    2  A    between atoms: O_2  and  C_3
REMARK    3  A    between atoms: C_8  and  C_9
REMARK    4  A    between atoms: C_10  and  C_11
REMARK                            x       y       z     vdW  Elec       q    Type
REMARK                         _______ _______ _______ _____ _____    ______ ____
ROOT
ATOM      1  C   UNL     1       3.511   2.728  20.189  0.00  0.00    +0.000 A 
ATOM      2  C   UNL     1       2.598   2.679  21.256  0.00  0.00    +0.000 A 
ATOM      3  C   UNL     1       1.267   3.058  21.077  0.00  0.00    +0.000 A 
ATOM      4  C   UNL     1       0.829   3.485  19.832  0.00  0.00    +0.000 A 
ATOM      5  C   UNL     1       1.722   3.532  18.760  0.00  0.00    +0.000 A 
ATOM      6  C   UNL     1       3.067   3.147  18.916  0.00  0.00    +0.000 A 
ENDROOT
BRANCH   1   8
ATOM      7  C   UNL     1       5.100   1.196  21.090  0.00  0.00    +0.000 C 
ATOM      8  O   UNL     1       4.826   2.360  20.320  0.00  0.00    +0.000 OA
ENDBRANCH   1   8
BRANCH   6   9
ATOM      9  C   UNL     1       3.939   3.327  17.733  0.00  0.00    +0.000 C 
ATOM     10  C   UNL     1       4.860   4.291  17.572  0.00  0.00    +0.000 C 
BRANCH  10  11
ATOM     11  C   UNL     1       5.650   4.470  16.344  0.00  0.00    +0.000 A 
ATOM     12  C   UNL     1       6.835   5.203  16.356  0.00  0.00    +0.000 A 
ATOM     13  N   UNL     1       7.580   5.437  15.245  0.00  0.00    +0.000 NA
ATOM     14  C   UNL     1       7.086   4.906  14.106  0.00  0.00    +0.000 A 
ATOM     15  C   UNL     1       5.915   4.169  14.080  0.00  0.00    +0.000 A 
ATOM     16  N   UNL     1       5.177   3.935  15.190  0.00  0.00    +0.000 NA
ENDBRANCH  10  11
ENDBRANCH   6   9
TORSDOF 3
ENDMDL
MODEL 3
REMARK VINA RESULT:      -6.6      3.140      6.353
REMARK  Name = 
REMARK  4 active torsions:
REMARK  status: ('A' for Active; 'I' for Inactive)
REMARK    1  A    between atoms: C_1  and  O_2
REMARK    2  A    between atoms: O_2  and  C_3
REMARK    3  A    between atoms: C_8  and  C_9
REMARK    4  A    between atoms: C_10  and  C_11
REMARK                            x       y       z     vdW  Elec       q    Type
REMARK                         _______ _______ _______ _____ _____    ______ ____
ROOT
ATOM      1  C   UNL     1       6.938   4.628  17.094  0.00  0.00    +0.000 A 
ATOM      2  C   UNL     1       7.616   4.796  15.876  0.00  0.00    +0.000 A 
ATOM      3  C   UNL     1       6.928   4.763  14.663  0.00  0.00    +0.000 A 
ATOM      4  C   UNL     1       5.554   4.569  14.651  0.00  0.00    +0.000 A 
ATOM      5  C   UNL     1       4.864   4.409  15.853  0.00  0.00    +0.000 A 
ATOM      6  C   UNL     1       5.538   4.446  17.089  0.00  0.00    +0.000 A 
ENDROOT
BRANCH   1   8
ATOM      7  C   UNL     1       7.875   5.938  18.853  0.00  0.00    +0.000 C 
ATOM      8  O   UNL     1       7.575   4.658  18.309  0.00  0.00    +0.000 OA
ENDBRANCH   1   8
BRANCH   6   9
ATOM      9  C   UNL     1       4.716   4.172  18.290  0.00  0.00    +0.000 C 
ATOM     10  C   UNL     1       3.713   3.283  18.373  0.00  0.00    +0.000 C 
BRANCH  10  11
ATOM     11  C   UNL     1       2.878   3.102  19.569  0.00  0.00    +0.000 A 
ATOM     12  C   UNL     1       3.433   2.660  20.769  0.00  0.00    +0.000 A 
ATOM     13  N   UNL     1       2.703   2.434  21.892  0.00  0.00    +0.000 NA
ATOM     14  C   UNL     1       1.379   2.666  21.766  0.00  0.00    +0.000 A 
ATOM     15  C   UNL     1       0.814   3.111  20.584  0.00  0.00    +0.000 A 
ATOM     16  N   UNL     1       1.545   3.339  19.468  0.00  0.00    +0.000 NA
ENDBRANCH  10  11
ENDBRANCH   6   9
TORSDOF 3
ENDMDL
MODEL 4
REMARK VINA RESULT:      -6.4      3.074      6.388
REMARK  Name = 
REMARK  4 active torsions:
REMARK  status: ('A' for Active; 'I' for Inactive)
REMARK    1  A    between atoms: C_1  and  O_2
REMARK    2  A    between atoms: O_2  and  C_3
REMARK    3  A    between atoms: C_8  and  C_9
REMARK    4  A    between atoms: C_10  and  C_11
REMARK                            x       y       z     vdW  Elec       q    Type
REMARK                         _______ _______ _______ _____ _____    ______ ____
ROOT
ATOM      1  C   UNL     1       6.930   4.608  16.941  0.00  0.00    +0.000 A 
ATOM      2  C   UNL     1       7.618   4.792  15.729  0.00  0.00    +0.000 A 
ATOM      3  C   UNL     1       6.943   4.752  14.510  0.00  0.00    +0.000 A 
ATOM      4  C   UNL     1       5.572   4.534  14.483  0.00  0.00    +0.000 A 
ATOM      5  C   UNL     1       4.873   4.357  15.678  0.00  0.00    +0.000 A 
ATOM      6  C   UNL     1       5.534   4.402  16.921  0.00  0.00    +0.000 A 
ENDROOT
BRANCH   1   8
ATOM      7  C   UNL     1       7.753   5.925  18.751  0.00  0.00    +0.000 C 
ATOM      8  O   UNL     1       7.555   4.645  18.162  0.00  0.00    +0.000 OA
ENDBRANCH   1   8
BRANCH   6   9
ATOM      9  C   UNL     1       4.704   4.109  18.112  0.00  0.00    +0.000 C 
ATOM     10  C   UNL     1       3.687   3.234  18.169  0.00  0.00    +0.000 C 
BRANCH  10  11
ATOM     11  C   UNL     1       2.846   3.035  19.358  0.00  0.00    +0.000 A 
ATOM     12  C   UNL     1       1.474   3.281  19.314  0.00  0.00    +0.000 A 
ATOM     13  N   UNL     1       0.658   3.156  20.391  0.00  0.00    +0.000 NA
ATOM     14  C   UNL     1       1.274   2.776  21.532  0.00  0.00    +0.000 A 
ATOM     15  C   UNL     1       2.633   2.522  21.589  0.00  0.00    +0.000 A 
ATOM     16  N   UNL     1       3.443   2.643  20.512  0.00  0.00    +0.000 NA
ENDBRANCH  10  11
ENDBRANCH   6   9
TORSDOF 3
ENDMDL
MODEL 5
REMARK VINA RESULT:      -6.3      6.338      8.519
REMARK  Name = 
REMARK  4 active torsions:
REMARK  status: ('A' for Active; 'I' for Inactive)
REMARK    1  A    between atoms: C_1  and  O_2
REMARK    2  A    between atoms: O_2  and  C_3
REMARK    3  A    between atoms: C_8  and  C_9
REMARK    4  A    between atoms: C_10  and  C_11
REMARK                            x       y       z     vdW  Elec       q    Type
REMARK                         _______ _______ _______ _____ _____    ______ ____
ROOT
ATOM      1  C   UNL     1       9.431  11.585  20.168  0.00  0.00    +0.000 A 
ATOM      2  C   UNL     1       9.844  12.927  20.149  0.00  0.00    +0.000 A 
ATOM      3  C   UNL     1      10.142  13.566  18.945  0.00  0.00    +0.000 A 
ATOM      4  C   UNL     1      10.026  12.877  17.746  0.00  0.00    +0.000 A 
ATOM      5  C   UNL     1       9.609  11.545  17.749  0.00  0.00    +0.000 A 
ATOM      6  C   UNL     1       9.296  10.883  18.951  0.00  0.00    +0.000 A 
ENDROOT
BRANCH   1   8
ATOM      7  C   UNL     1       8.318  11.608  22.277  0.00  0.00    +0.000 C 
ATOM      8  O   UNL     1       9.123  10.919  21.329  0.00  0.00    +0.000 OA
ENDBRANCH   1   8
BRANCH   6   9
ATOM      9  C   UNL     1       8.954   9.446  18.835  0.00  0.00    +0.000 C 
ATOM     10  C   UNL     1       8.151   8.899  17.908  0.00  0.00    +0.000 C 
BRANCH  10  11
ATOM     11  C   UNL     1       7.785   7.475  17.882  0.00  0.00    +0.000 A 
ATOM     12  C   UNL     1       8.084   6.640  18.957  0.00  0.00    +0.000 A 
ATOM     13  N   UNL     1       7.809   5.310  18.970  0.00  0.00    +0.000 NA
ATOM     14  C   UNL     1       7.220   4.840  17.849  0.00  0.00    +0.000 A 
ATOM     15  C   UNL     1       6.912   5.658  16.776  0.00  0.00    +0.000 A 
ATOM     16  N   UNL     1       7.184   6.984  16.769  0.00  0.00    +0.000 NA
ENDBRANCH  10  11
ENDBRANCH   6   9
TORSDOF 3
ENDMDL
MODEL 6
REMARK VINA RESULT:      -6.3      1.158      1.233
REMARK  Name = 
REMARK  4 active torsions:
REMARK  status: ('A' for Active; 'I' for Inactive)
REMARK    1  A    between atoms: C_1  and  O_2
REMARK    2  A    between atoms: O_2  and  C_3
REMARK    3  A    between atoms: C_8  and  C_9
REMARK    4  A    between atoms: C_10  and  C_11
REMARK                            x       y       z     vdW  Elec       q    Type
REMARK                         _______ _______ _______ _____ _____    ______ ____
ROOT
ATOM      1  C   UNL     1       2.175   4.653  19.299  0.00  0.00    +0.000 A 
ATOM      2  C   UNL     1       1.416   4.507  20.471  0.00  0.00    +0.000 A 
ATOM      3  C   UNL     1       1.703   3.498  21.390  0.00  0.00    +0.000 A 
ATOM      4  C   UNL     1       2.755   2.624  21.153  0.00  0.00    +0.000 A 
ATOM      5  C   UNL     1       3.524   2.760  19.997  0.00  0.00    +0.000 A 
ATOM      6  C   UNL     1       3.256   3.777  19.060  0.00  0.00    +0.000 A 
ENDROOT
BRANCH   1   8
ATOM      7  C   UNL     1       2.405   6.942  18.671  0.00  0.00    +0.000 C 
ATOM      8  O   UNL     1       1.930   5.634  18.372  0.00  0.00    +0.000 OA
ENDBRANCH   1   8
BRANCH   6   9
ATOM      9  C   UNL     1       4.080   3.764  17.830  0.00  0.00    +0.000 C 
ATOM     10  C   UNL     1       5.040   4.649  17.514  0.00  0.00    +0.000 C 
BRANCH  10  11
ATOM     11  C   UNL     1       5.780   4.634  16.243  0.00  0.00    +0.000 A 
ATOM     12  C   UNL     1       6.972   5.342  16.101  0.00  0.00    +0.000 A 
ATOM     13  N   UNL     1       7.673   5.400  14.940  0.00  0.00    +0.000 NA
ATOM     14  C   UNL     1       7.126   4.717  13.911  0.00  0.00    +0.000 A 
ATOM     15  C   UNL     1       5.947   4.004  14.039  0.00  0.00    +0.000 A 
ATOM     16  N   UNL     1       5.253   3.946  15.199  0.00  0.00    +0.000 NA
ENDBRANCH  10  11
ENDBRANCH   6   9
TORSDOF 3
ENDMDL
MODEL 7
REMARK VINA RESULT:      -6.2      1.263      2.296
REMARK  Name = 
REMARK  4 active torsions:
REMARK  status: ('A' for Active; 'I' for Inactive)
REMARK    1  A    between atoms: C_1  and  O_2
REMARK    2  A    between atoms: O_2  and  C_3
REMARK    3  A    between atoms: C_8  and  C_9
REMARK    4  A    between atoms: C_10  and  C_11
REMARK                            x       y       z     vdW  Elec       q    Type
REMARK                         _______ _______ _______ _____ _____    ______ ____
ROOT
ATOM      1  C   UNL     1       1.926   3.862  18.696  0.00  0.00    +0.000 A 
ATOM      2  C   UNL     1       1.174   3.908  19.882  0.00  0.00    +0.000 A 
ATOM      3  C   UNL     1       1.249   5.010  20.734  0.00  0.00    +0.000 A 
ATOM      4  C   UNL     1       2.070   6.082  20.411  0.00  0.00    +0.000 A 
ATOM      5  C   UNL     1       2.816   6.054  19.233  0.00  0.00    +0.000 A 
ATOM      6  C   UNL     1       2.750   4.955  18.354  0.00  0.00    +0.000 A 
ENDROOT
BRANCH   1   8
ATOM      7  C   UNL     1       2.673   1.665  18.147  0.00  0.00    +0.000 C 
ATOM      8  O   UNL     1       1.878   2.800  17.827  0.00  0.00    +0.000 OA
ENDBRANCH   1   8
BRANCH   6   9
ATOM      9  C   UNL     1       3.656   4.999  17.184  0.00  0.00    +0.000 C 
ATOM     10  C   UNL     1       4.859   4.408  17.095  0.00  0.00    +0.000 C 
BRANCH  10  11
ATOM     11  C   UNL     1       5.753   4.544  15.936  0.00  0.00    +0.000 A 
ATOM     12  C   UNL     1       6.846   5.408  15.973  0.00  0.00    +0.000 A 
ATOM     13  N   UNL     1       7.679   5.607  14.919  0.00  0.00    +0.000 NA
ATOM     14  C   UNL     1       7.369   4.902  13.809  0.00  0.00    +0.000 A 
ATOM     15  C   UNL     1       6.291   4.036  13.759  0.00  0.00    +0.000 A 
ATOM     16  N   UNL     1       5.466   3.838  14.813  0.00  0.00    +0.000 NA
ENDBRANCH  10  11
ENDBRANCH   6   9
TORSDOF 3
ENDMDL
MODEL 8
REMARK VINA RESULT:      -6.1      1.637      2.451
REMARK  Name = 
REMARK  4 active torsions:
REMARK  status: ('A' for Active; 'I' for Inactive)
REMARK    1  A    between atoms: C_1  and  O_2
REMARK    2  A    between atoms: O_2  and  C_3
REMARK    3  A    between atoms: C_8  and  C_9
REMARK    4  A    between atoms: C_10  and  C_11
REMARK                            x       y       z     vdW  Elec       q    Type
REMARK                         _______ _______ _______ _____ _____    ______ ____
ROOT
ATOM      1  C   UNL     1       3.464   2.999  19.925  0.00  0.00    +0.000 A 
ATOM      2  C   UNL     1       2.523   2.947  20.967  0.00  0.00    +0.000 A 
ATOM      3  C   UNL     1       1.805   4.084  21.340  0.00  0.00    +0.000 A 
ATOM      4  C   UNL     1       2.013   5.285  20.675  0.00  0.00    +0.000 A 
ATOM      5  C   UNL     1       2.938   5.350  19.633  0.00  0.00    +0.000 A 
ATOM      6  C   UNL     1       3.669   4.214  19.235  0.00  0.00    +0.000 A 
ENDROOT
BRANCH   1   8
ATOM      7  C   UNL     1       3.686   1.167  18.415  0.00  0.00    +0.000 C 
ATOM      8  O   UNL     1       4.188   1.905  19.523  0.00  0.00    +0.000 OA
ENDBRANCH   1   8
BRANCH   6   9
ATOM      9  C   UNL     1       4.687   4.428  18.181  0.00  0.00    +0.000 C 
ATOM     10  C   UNL     1       4.449   4.521  16.863  0.00  0.00    +0.000 C 
BRANCH  10  11
ATOM     11  C   UNL     1       5.506   4.661  15.850  0.00  0.00    +0.000 A 
ATOM     12  C   UNL     1       6.629   5.449  16.092  0.00  0.00    +0.000 A 
ATOM     13  N   UNL     1       7.613   5.649  15.178  0.00  0.00    +0.000 NA
ATOM     14  C   UNL     1       7.427   5.025  13.995  0.00  0.00    +0.000 A 
ATOM     15  C   UNL     1       6.320   4.233  13.742  0.00  0.00    +0.000 A 
ATOM     16  N   UNL     1       5.343   4.033  14.658  0.00  0.00    +0.000 NA
ENDBRANCH  10  11
ENDBRANCH   6   9
TORSDOF 3
ENDMDL
MODEL 9
REMARK VINA RESULT:      -6.0      6.393      8.605
REMARK  Name = 
REMARK  4 active torsions:
REMARK  status: ('A' for Active; 'I' for Inactive)
REMARK    1  A    between atoms: C_1  and  O_2
REMARK    2  A    between atoms: O_2  and  C_3
REMARK    3  A    between atoms: C_8  and  C_9
REMARK    4  A    between atoms: C_10  and  C_11
REMARK                            x       y       z     vdW  Elec       q    Type
REMARK                         _______ _______ _______ _____ _____    ______ ____
ROOT
ATOM      1  C   UNL     1       8.963  12.317  18.131  0.00  0.00    +0.000 A 
ATOM      2  C   UNL     1       9.692  13.395  18.661  0.00  0.00    +0.000 A 
ATOM      3  C   UNL     1      10.699  13.184  19.602  0.00  0.00    +0.000 A 
ATOM      4  C   UNL     1      10.997  11.895  20.023  0.00  0.00    +0.000 A 
ATOM      5  C   UNL     1      10.288  10.813  19.499  0.00  0.00    +0.000 A 
ATOM      6  C   UNL     1       9.272  11.003  18.543  0.00  0.00    +0.000 A 
ENDROOT
BRANCH   1   8
ATOM      7  C   UNL     1       7.026  13.520  17.433  0.00  0.00    +0.000 C 
ATOM      8  O   UNL     1       7.968  12.480  17.200  0.00  0.00    +0.000 OA
ENDBRANCH   1   8
BRANCH   6   9
ATOM      9  C   UNL     1       8.528   9.790  18.131  0.00  0.00    +0.000 C 
ATOM     10  C   UNL     1       8.631   8.574  18.692  0.00  0.00    +0.000 C 
BRANCH  10  11
ATOM     11  C   UNL     1       7.924   7.384  18.196  0.00  0.00    +0.000 A 
ATOM     12  C   UNL     1       7.955   6.186  18.908  0.00  0.00    +0.000 A 
ATOM     13  N   UNL     1       7.358   5.045  18.477  0.00  0.00    +0.000 NA
ATOM     14  C   UNL     1       6.724   5.148  17.289  0.00  0.00    +0.000 A 
ATOM     15  C   UNL     1       6.679   6.332  16.574  0.00  0.00    +0.000 A 
ATOM     16  N   UNL     1       7.272   7.468  17.009  0.00  0.00    +0.000 NA
ENDBRANCH  10  11
ENDBRANCH   6   9
TORSDOF 3
ENDMDL
