MODEL 1
REMARK VINA RESULT:      -5.9      0.000      0.000
REMARK  Name = 
REMARK  3 active torsions:
REMARK  status: ('A' for Active; 'I' for Inactive)
REMARK    1  A    between atoms: C_2  and  C_5
REMARK    2  A    between atoms: N_3  and  O_4
REMARK    3  A    between atoms: C_10  and  O_11
REMARK                            x       y       z     vdW  Elec       q    Type
REMARK                         _______ _______ _______ _____ _____    ______ ____
ROOT
ATOM      1  C   UNL     1       6.771   5.868  17.620  0.00  0.00    +0.000 A 
ATOM      2  N   UNL     1       5.746   6.762  17.455  0.00  0.00    +0.000 NA
ATOM      3  C   UNL     1       5.073   6.699  16.286  0.00  0.00    +0.000 A 
ATOM      4  C   UNL     1       5.357   5.789  15.280  0.00  0.00    +0.000 A 
ATOM      5  C   UNL     1       6.389   4.874  15.477  0.00  0.00    +0.000 A 
ATOM      6  C   UNL     1       7.111   4.904  16.668  0.00  0.00    +0.000 A 
ENDROOT
BRANCH   1   8
ATOM      7  N   UNL     1       8.406   7.068  19.032  0.00  0.00    +0.000 N 
ATOM      8  C   UNL     1       7.503   6.028  18.927  0.00  0.00    +0.000 C 
ATOM      9  N   UNL     1       7.316   5.169  19.891  0.00  0.00    +0.000 NA
ATOM     10  H   UNL     1       9.058   6.902  19.791  0.00  0.00    +0.000 HD
ATOM     11  H   UNL     1       8.836   7.311  18.144  0.00  0.00    +0.000 HD
BRANCH   9  12
ATOM     12  O   UNL     1       8.133   5.457  20.995  0.00  0.00    +0.000 OA
ATOM     13  H   UNL     1       8.526   6.309  20.729  0.00  0.00    +0.000 HD
ENDBRANCH   9  12
ENDBRANCH   1   8
BRANCH   6  14
ATOM     14  O   UNL     1       8.090   3.981  16.881  0.00  0.00    +0.000 OA
ATOM     15  H   UNL     1       7.975   3.226  16.285  0.00  0.00    +0.000 HD
ENDBRANCH   6  14
TORSDOF 3
ENDMDL
MODEL 2
REMARK VINA RESULT:      -5.7      4.761      5.155
REMARK  Name = 
REMARK  3 active torsions:
REMARK  status: ('A' for Active; 'I' for Inactive)
REMARK    1  A    between atoms: C_2  and  C_5
REMARK    2  A    between atoms: N_3  and  O_4
REMARK    3  A    between atoms: C_10  and  O_11
REMARK                            x       y       z     vdW  Elec       q    Type
REMARK                         _______ _______ _______ _____ _____    ______ ____
ROOT
ATOM      1  C   UNL     1       3.405   3.666  19.183  0.00  0.00    +0.000 A 
ATOM      2  N   UNL     1       3.131   4.744  19.984  0.00  0.00    +0.000 NA
ATOM      3  C   UNL     1       1.935   4.741  20.610  0.00  0.00    +0.000 A 
ATOM      4  C   UNL     1       1.004   3.721  20.494  0.00  0.00    +0.000 A 
ATOM      5  C   UNL     1       1.312   2.624  19.693  0.00  0.00    +0.000 A 
ATOM      6  C   UNL     1       2.534   2.584  19.026  0.00  0.00    +0.000 A 
ENDROOT
BRANCH   1   8
ATOM      7  N   UNL     1       4.794   3.359  17.163  0.00  0.00    +0.000 N 
ATOM      8  C   UNL     1       4.735   3.760  18.484  0.00  0.00    +0.000 C 
ATOM      9  N   UNL     1       5.793   4.155  19.139  0.00  0.00    +0.000 NA
ATOM     10  H   UNL     1       5.750   3.155  16.892  0.00  0.00    +0.000 HD
ATOM     11  H   UNL     1       4.121   2.630  16.940  0.00  0.00    +0.000 HD
BRANCH   9  12
ATOM     12  O   UNL     1       6.938   4.113  18.329  0.00  0.00    +0.000 OA
ATOM     13  H   UNL     1       6.841   3.242  17.900  0.00  0.00    +0.000 HD
ENDBRANCH   9  12
ENDBRANCH   1   8
BRANCH   6  14
ATOM     14  O   UNL     1       2.855   1.491  18.279  0.00  0.00    +0.000 OA
ATOM     15  H   UNL     1       2.391   1.518  17.429  0.00  0.00    +0.000 HD
ENDBRANCH   6  14
TORSDOF 3
ENDMDL
MODEL 3
REMARK VINA RESULT:      -5.7      2.705      2.921
REMARK  Name = 
REMARK  3 active torsions:
REMARK  status: ('A' for Active; 'I' for Inactive)
REMARK    1  A    between atoms: C_2  and  C_5
REMARK    2  A    between atoms: N_3  and  O_4
REMARK    3  A    between atoms: C_10  and  O_11
REMARK                            x       y       z     vdW  Elec       q    Type
REMARK                         _______ _______ _______ _____ _____    ______ ____
ROOT
ATOM      1  C   UNL     1       5.206   4.816  18.596  0.00  0.00    +0.000 A 
ATOM      2  N   UNL     1       4.660   5.990  18.146  0.00  0.00    +0.000 NA
ATOM      3  C   UNL     1       3.340   5.972  17.863  0.00  0.00    +0.000 A 
ATOM      4  C   UNL     1       2.533   4.855  18.014  0.00  0.00    +0.000 A 
ATOM      5  C   UNL     1       3.104   3.678  18.493  0.00  0.00    +0.000 A 
ATOM      6  C   UNL     1       4.462   3.650  18.797  0.00  0.00    +0.000 A 
ENDROOT
BRANCH   1   8
ATOM      7  N   UNL     1       7.529   4.306  17.926  0.00  0.00    +0.000 N 
ATOM      8  C   UNL     1       6.688   4.901  18.847  0.00  0.00    +0.000 C 
ATOM      9  N   UNL     1       7.137   5.470  19.933  0.00  0.00    +0.000 NA
ATOM     10  H   UNL     1       8.443   4.135  18.333  0.00  0.00    +0.000 HD
ATOM     11  H   UNL     1       7.109   3.504  17.465  0.00  0.00    +0.000 HD
BRANCH   9  12
ATOM     12  O   UNL     1       8.535   5.389  20.010  0.00  0.00    +0.000 OA
ATOM     13  H   UNL     1       8.682   5.464  20.971  0.00  0.00    +0.000 HD
ENDBRANCH   9  12
ENDBRANCH   1   8
BRANCH   6  14
ATOM     14  O   UNL     1       5.011   2.513  19.308  0.00  0.00    +0.000 OA
ATOM     15  H   UNL     1       4.857   2.466  20.263  0.00  0.00    +0.000 HD
ENDBRANCH   6  14
TORSDOF 3
ENDMDL
MODEL 4
REMARK VINA RESULT:      -5.6      1.638      1.874
REMARK  Name = 
REMARK  3 active torsions:
REMARK  status: ('A' for Active; 'I' for Inactive)
REMARK    1  A    between atoms: C_2  and  C_5
REMARK    2  A    between atoms: N_3  and  O_4
REMARK    3  A    between atoms: C_10  and  O_11
REMARK                            x       y       z     vdW  Elec       q    Type
REMARK                         _______ _______ _______ _____ _____    ______ ____
ROOT
ATOM      1  C   UNL     1       6.866   5.127  16.878  0.00  0.00    +0.000 A 
ATOM      2  N   UNL     1       7.496   5.628  15.769  0.00  0.00    +0.000 NA
ATOM      3  C   UNL     1       7.113   5.122  14.578  0.00  0.00    +0.000 A 
ATOM      4  C   UNL     1       6.130   4.156  14.429  0.00  0.00    +0.000 A 
ATOM      5  C   UNL     1       5.487   3.676  15.567  0.00  0.00    +0.000 A 
ATOM      6  C   UNL     1       5.851   4.168  16.818  0.00  0.00    +0.000 A 
ENDROOT
BRANCH   1   8
ATOM      7  N   UNL     1       7.823   7.013  18.156  0.00  0.00    +0.000 N 
ATOM      8  C   UNL     1       7.377   5.705  18.172  0.00  0.00    +0.000 C 
ATOM      9  N   UNL     1       7.440   4.961  19.242  0.00  0.00    +0.000 NA
ATOM     10  H   UNL     1       8.426   7.196  18.951  0.00  0.00    +0.000 HD
ATOM     11  H   UNL     1       8.206   7.290  17.256  0.00  0.00    +0.000 HD
BRANCH   9  12
ATOM     12  O   UNL     1       8.001   5.665  20.319  0.00  0.00    +0.000 OA
ATOM     13  H   UNL     1       7.223   6.137  20.669  0.00  0.00    +0.000 HD
ENDBRANCH   9  12
ENDBRANCH   1   8
BRANCH   6  14
ATOM     14  O   UNL     1       5.191   3.733  17.928  0.00  0.00    +0.000 OA
ATOM     15  H   UNL     1       4.359   4.217  18.034  0.00  0.00    +0.000 HD
ENDBRANCH   6  14
TORSDOF 3
ENDMDL
MODEL 5
REMARK VINA RESULT:      -5.6      5.007      5.637
REMARK  Name = 
REMARK  3 active torsions:
REMARK  status: ('A' for Active; 'I' for Inactive)
REMARK    1  A    between atoms: C_2  and  C_5
REMARK    2  A    between atoms: N_3  and  O_4
REMARK    3  A    between atoms: C_10  and  O_11
REMARK                            x       y       z     vdW  Elec       q    Type
REMARK                         _______ _______ _______ _____ _____    ______ ____
ROOT
ATOM      1  C   UNL     1       3.328   3.407  19.500  0.00  0.00    +0.000 A 
ATOM      2  N   UNL     1       3.530   2.718  20.667  0.00  0.00    +0.000 NA
ATOM      3  C   UNL     1       2.457   2.571  21.474  0.00  0.00    +0.000 A 
ATOM      4  C   UNL     1       1.195   3.061  21.178  0.00  0.00    +0.000 A 
ATOM      5  C   UNL     1       1.007   3.741  19.976  0.00  0.00    +0.000 A 
ATOM      6  C   UNL     1       2.086   3.916  19.113  0.00  0.00    +0.000 A 
ENDROOT
BRANCH   1   8
ATOM      7  N   UNL     1       4.559   3.080  17.382  0.00  0.00    +0.000 N 
ATOM      8  C   UNL     1       4.578   3.569  18.675  0.00  0.00    +0.000 C 
ATOM      9  N   UNL     1       5.646   4.102  19.202  0.00  0.00    +0.000 NA
ATOM     10  H   UNL     1       5.502   2.943  17.037  0.00  0.00    +0.000 HD
ATOM     11  H   UNL     1       3.941   2.281  17.269  0.00  0.00    +0.000 HD
BRANCH   9  12
ATOM     12  O   UNL     1       6.715   4.104  18.293  0.00  0.00    +0.000 OA
ATOM     13  H   UNL     1       7.431   3.721  18.834  0.00  0.00    +0.000 HD
ENDBRANCH   9  12
ENDBRANCH   1   8
BRANCH   6  14
ATOM     14  O   UNL     1       1.892   4.541  17.917  0.00  0.00    +0.000 OA
ATOM     15  H   UNL     1       2.740   4.830  17.549  0.00  0.00    +0.000 HD
ENDBRANCH   6  14
TORSDOF 3
ENDMDL
MODEL 6
REMARK VINA RESULT:      -5.6      4.739      5.358
REMARK  Name = 
REMARK  3 active torsions:
REMARK  status: ('A' for Active; 'I' for Inactive)
REMARK    1  A    between atoms: C_2  and  C_5
REMARK    2  A    between atoms: N_3  and  O_4
REMARK    3  A    between atoms: C_10  and  O_11
REMARK                            x       y       z     vdW  Elec       q    Type
REMARK                         _______ _______ _______ _____ _____    ______ ____
ROOT
ATOM      1  C   UNL     1       3.392   3.685  19.246  0.00  0.00    +0.000 A 
ATOM      2  N   UNL     1       2.769   2.473  19.103  0.00  0.00    +0.000 NA
ATOM      3  C   UNL     1       1.590   2.323  19.742  0.00  0.00    +0.000 A 
ATOM      4  C   UNL     1       0.991   3.315  20.502  0.00  0.00    +0.000 A 
ATOM      5  C   UNL     1       1.630   4.547  20.616  0.00  0.00    +0.000 A 
ATOM      6  C   UNL     1       2.850   4.747  19.974  0.00  0.00    +0.000 A 
ENDROOT
BRANCH   1   8
ATOM      7  N   UNL     1       4.799   3.259  17.259  0.00  0.00    +0.000 N 
ATOM      8  C   UNL     1       4.722   3.763  18.543  0.00  0.00    +0.000 C 
ATOM      9  N   UNL     1       5.765   4.240  19.167  0.00  0.00    +0.000 NA
ATOM     10  H   UNL     1       5.761   3.063  17.007  0.00  0.00    +0.000 HD
ATOM     11  H   UNL     1       4.149   2.496  17.093  0.00  0.00    +0.000 HD
BRANCH   9  12
ATOM     12  O   UNL     1       6.915   4.167  18.365  0.00  0.00    +0.000 OA
ATOM     13  H   UNL     1       7.257   5.077  18.433  0.00  0.00    +0.000 HD
ENDBRANCH   9  12
ENDBRANCH   1   8
BRANCH   6  14
ATOM     14  O   UNL     1       3.454   5.966  20.047  0.00  0.00    +0.000 OA
ATOM     15  H   UNL     1       3.491   6.267  20.967  0.00  0.00    +0.000 HD
ENDBRANCH   6  14
TORSDOF 3
ENDMDL
MODEL 7
REMARK VINA RESULT:      -5.6      1.594      1.923
REMARK  Name = 
REMARK  3 active torsions:
REMARK  status: ('A' for Active; 'I' for Inactive)
REMARK    1  A    between atoms: C_2  and  C_5
REMARK    2  A    between atoms: N_3  and  O_4
REMARK    3  A    between atoms: C_10  and  O_11
REMARK                            x       y       z     vdW  Elec       q    Type
REMARK                         _______ _______ _______ _____ _____    ______ ____
ROOT
ATOM      1  C   UNL     1       6.966   6.106  17.034  0.00  0.00    +0.000 A 
ATOM      2  N   UNL     1       5.975   6.762  16.350  0.00  0.00    +0.000 NA
ATOM      3  C   UNL     1       5.261   6.027  15.472  0.00  0.00    +0.000 A 
ATOM      4  C   UNL     1       5.470   4.675  15.245  0.00  0.00    +0.000 A 
ATOM      5  C   UNL     1       6.468   4.023  15.966  0.00  0.00    +0.000 A 
ATOM      6  C   UNL     1       7.230   4.742  16.883  0.00  0.00    +0.000 A 
ENDROOT
BRANCH   1   8
ATOM      7  N   UNL     1       8.183   6.457  19.155  0.00  0.00    +0.000 N 
ATOM      8  C   UNL     1       7.747   6.999  17.961  0.00  0.00    +0.000 C 
ATOM      9  N   UNL     1       7.944   8.252  17.653  0.00  0.00    +0.000 NA
ATOM     10  H   UNL     1       8.399   7.189  19.823  0.00  0.00    +0.000 HD
ATOM     11  H   UNL     1       7.572   5.725  19.505  0.00  0.00    +0.000 HD
BRANCH   9  12
ATOM     12  O   UNL     1       8.635   8.925  18.672  0.00  0.00    +0.000 OA
ATOM     13  H   UNL     1       7.990   9.611  18.924  0.00  0.00    +0.000 HD
ENDBRANCH   9  12
ENDBRANCH   1   8
BRANCH   6  14
ATOM     14  O   UNL     1       8.176   4.096  17.621  0.00  0.00    +0.000 OA
ATOM     15  H   UNL     1       8.453   4.647  18.368  0.00  0.00    +0.000 HD
ENDBRANCH   6  14
TORSDOF 3
ENDMDL
MODEL 8
REMARK VINA RESULT:      -5.6      4.799      5.398
REMARK  Name = 
REMARK  3 active torsions:
REMARK  status: ('A' for Active; 'I' for Inactive)
REMARK    1  A    between atoms: C_2  and  C_5
REMARK    2  A    between atoms: N_3  and  O_4
REMARK    3  A    between atoms: C_10  and  O_11
REMARK                            x       y       z     vdW  Elec       q    Type
REMARK                         _______ _______ _______ _____ _____    ______ ____
ROOT
ATOM      1  C   UNL     1       3.240   3.664  19.002  0.00  0.00    +0.000 A 
ATOM      2  N   UNL     1       3.176   4.664  19.938  0.00  0.00    +0.000 NA
ATOM      3  C   UNL     1       2.014   4.784  20.614  0.00  0.00    +0.000 A 
ATOM      4  C   UNL     1       0.919   3.957  20.420  0.00  0.00    +0.000 A 
ATOM      5  C   UNL     1       1.012   2.934  19.479  0.00  0.00    +0.000 A 
ATOM      6  C   UNL     1       2.192   2.773  18.757  0.00  0.00    +0.000 A 
ENDROOT
BRANCH   1   8
ATOM      7  N   UNL     1       5.710   3.709  19.000  0.00  0.00    +0.000 N 
ATOM      8  C   UNL     1       4.548   3.621  18.257  0.00  0.00    +0.000 C 
ATOM      9  N   UNL     1       4.558   3.560  16.954  0.00  0.00    +0.000 NA
ATOM     10  H   UNL     1       6.489   3.993  18.415  0.00  0.00    +0.000 HD
ATOM     11  H   UNL     1       5.596   4.251  19.852  0.00  0.00    +0.000 HD
BRANCH   9  12
ATOM     12  O   UNL     1       5.869   3.594  16.453  0.00  0.00    +0.000 OA
ATOM     13  H   UNL     1       6.382   3.773  17.262  0.00  0.00    +0.000 HD
ENDBRANCH   9  12
ENDBRANCH   1   8
BRANCH   6  14
ATOM     14  O   UNL     1       2.300   1.745  17.870  0.00  0.00    +0.000 OA
ATOM     15  H   UNL     1       2.931   1.970  17.170  0.00  0.00    +0.000 HD
ENDBRANCH   6  14
TORSDOF 3
ENDMDL
MODEL 9
REMARK VINA RESULT:      -5.5      1.668      1.934
REMARK  Name = 
REMARK  3 active torsions:
REMARK  status: ('A' for Active; 'I' for Inactive)
REMARK    1  A    between atoms: C_2  and  C_5
REMARK    2  A    between atoms: N_3  and  O_4
REMARK    3  A    between atoms: C_10  and  O_11
REMARK                            x       y       z     vdW  Elec       q    Type
REMARK                         _______ _______ _______ _____ _____    ______ ____
ROOT
ATOM      1  C   UNL     1       6.708   5.494  17.627  0.00  0.00    +0.000 A 
ATOM      2  N   UNL     1       7.534   5.295  16.552  0.00  0.00    +0.000 NA
ATOM      3  C   UNL     1       6.937   4.969  15.386  0.00  0.00    +0.000 A 
ATOM      4  C   UNL     1       5.566   4.843  15.228  0.00  0.00    +0.000 A 
ATOM      5  C   UNL     1       4.743   5.071  16.328  0.00  0.00    +0.000 A 
ATOM      6  C   UNL     1       5.315   5.409  17.552  0.00  0.00    +0.000 A 
ENDROOT
BRANCH   1   8
ATOM      7  N   UNL     1       8.324   6.876  18.885  0.00  0.00    +0.000 N 
ATOM      8  C   UNL     1       7.446   5.809  18.902  0.00  0.00    +0.000 C 
ATOM      9  N   UNL     1       7.289   5.053  19.954  0.00  0.00    +0.000 NA
ATOM     10  H   UNL     1       8.987   6.807  19.650  0.00  0.00    +0.000 HD
ATOM     11  H   UNL     1       8.740   7.033  17.971  0.00  0.00    +0.000 HD
BRANCH   9  12
ATOM     12  O   UNL     1       8.109   5.476  21.011  0.00  0.00    +0.000 OA
ATOM     13  H   UNL     1       8.703   4.710  21.115  0.00  0.00    +0.000 HD
ENDBRANCH   9  12
ENDBRANCH   1   8
BRANCH   6  14
ATOM     14  O   UNL     1       4.509   5.677  18.618  0.00  0.00    +0.000 OA
ATOM     15  H   UNL     1       4.098   4.861  18.941  0.00  0.00    +0.000 HD
ENDBRANCH   6  14
TORSDOF 3
ENDMDL
