MODEL 1
REMARK VINA RESULT:      -7.2      0.000      0.000
REMARK  Name = 
REMARK  3 active torsions:
REMARK  status: ('A' for Active; 'I' for Inactive)
REMARK    1  A    between atoms: C_2  and  C_5
REMARK    2  A    between atoms: C_8  and  N_9
REMARK    3  A    between atoms: C_12  and  C_13
REMARK                            x       y       z     vdW  Elec       q    Type
REMARK                         _______ _______ _______ _____ _____    ______ ____
ROOT
ATOM      1  N   UNL     1       5.264   3.807  17.632  0.00  0.00    +0.000 N 
ATOM      2  C   UNL     1       4.246   4.393  18.297  0.00  0.00    +0.000 A 
ATOM      3  N   UNL     1       3.636   5.504  17.958  0.00  0.00    +0.000 NA
ATOM      4  C   UNL     1       2.812   5.951  18.978  0.00  0.00    +0.000 A 
ATOM      5  C   UNL     1       2.654   5.055  20.016  0.00  0.00    +0.000 A 
ATOM      6  S   UNL     1       3.613   3.662  19.730  0.00  0.00    +0.000 S 
ATOM      7  H   UNL     1       5.305   2.796  17.656  0.00  0.00    +0.000 HD
ENDROOT
BRANCH   1  11
ATOM      8  C   UNL     1       7.160   4.950  14.092  0.00  0.00    +0.000 A 
ATOM      9  C   UNL     1       6.298   3.881  14.229  0.00  0.00    +0.000 A 
ATOM     10  N   UNL     1       5.690   3.542  15.393  0.00  0.00    +0.000 NA
ATOM     11  C   UNL     1       5.942   4.281  16.510  0.00  0.00    +0.000 A 
ATOM     12  C   UNL     1       6.847   5.353  16.460  0.00  0.00    +0.000 A 
ATOM     13 CL   UNL     1       7.502   6.177  17.833  0.00  0.00    +0.000 Cl
ATOM     14  C   UNL     1       7.419   5.707  15.234  0.00  0.00    +0.000 A 
BRANCH   8  16
ATOM     15  F   UNL     1       7.414   6.417  12.220  0.00  0.00    +0.000 F 
ATOM     16  C   UNL     1       7.837   5.258  12.794  0.00  0.00    +0.000 C 
ATOM     17  F   UNL     1       7.631   4.285  11.864  0.00  0.00    +0.000 F 
ATOM     18  F   UNL     1       9.186   5.373  12.921  0.00  0.00    +0.000 F 
ENDBRANCH   8  16
ENDBRANCH   1  11
BRANCH   4  19
ATOM     19  C   UNL     1       2.243   7.295  18.955  0.00  0.00    +0.000 A 
ATOM     20  C   UNL     1       2.364   8.083  17.812  0.00  0.00    +0.000 A 
ATOM     21  C   UNL     1       1.927   9.404  17.848  0.00  0.00    +0.000 A 
ATOM     22  C   UNL     1       1.376   9.899  19.024  0.00  0.00    +0.000 A 
ATOM     23  C   UNL     1       1.275   9.045  20.110  0.00  0.00    +0.000 A 
ATOM     24  N   UNL     1       1.692   7.760  20.108  0.00  0.00    +0.000 NA
ENDBRANCH   4  19
TORSDOF 3
ENDMDL
MODEL 2
REMARK VINA RESULT:      -7.2      5.111      6.773
REMARK  Name = 
REMARK  3 active torsions:
REMARK  status: ('A' for Active; 'I' for Inactive)
REMARK    1  A    between atoms: C_2  and  C_5
REMARK    2  A    between atoms: C_8  and  N_9
REMARK    3  A    between atoms: C_12  and  C_13
REMARK                            x       y       z     vdW  Elec       q    Type
REMARK                         _______ _______ _______ _____ _____    ______ ____
ROOT
ATOM      1  N   UNL     1       1.817   8.317  20.574  0.00  0.00    +0.000 N 
ATOM      2  C   UNL     1       0.879   9.263  20.358  0.00  0.00    +0.000 A 
ATOM      3  N   UNL     1      -0.190   9.138  19.608  0.00  0.00    +0.000 NA
ATOM      4  C   UNL     1      -0.804  10.363  19.409  0.00  0.00    +0.000 A 
ATOM      5  C   UNL     1      -0.298  11.386  20.186  0.00  0.00    +0.000 A 
ATOM      6  S   UNL     1       1.014  10.806  21.126  0.00  0.00    +0.000 S 
ATOM      7  H   UNL     1       2.261   8.310  21.484  0.00  0.00    +0.000 HD
ENDROOT
BRANCH   1  11
ATOM      8  C   UNL     1       1.993   4.396  19.148  0.00  0.00    +0.000 A 
ATOM      9  C   UNL     1       1.563   4.773  20.405  0.00  0.00    +0.000 A 
ATOM     10  N   UNL     1       1.509   6.058  20.835  0.00  0.00    +0.000 NA
ATOM     11  C   UNL     1       1.911   7.052  19.994  0.00  0.00    +0.000 A 
ATOM     12  C   UNL     1       2.408   6.743  18.718  0.00  0.00    +0.000 A 
ATOM     13 CL   UNL     1       3.235   7.844  17.670  0.00  0.00    +0.000 Cl
ATOM     14  C   UNL     1       2.404   5.413  18.288  0.00  0.00    +0.000 A 
BRANCH   8  16
ATOM     15  F   UNL     1       2.882   2.209  19.533  0.00  0.00    +0.000 F 
ATOM     16  C   UNL     1       2.072   2.959  18.738  0.00  0.00    +0.000 C 
ATOM     17  F   UNL     1       2.551   2.813  17.472  0.00  0.00    +0.000 F 
ATOM     18  F   UNL     1       0.858   2.345  18.751  0.00  0.00    +0.000 F 
ENDBRANCH   8  16
ENDBRANCH   1  11
BRANCH   4  19
ATOM     19  C   UNL     1      -1.841  10.532  18.396  0.00  0.00    +0.000 A 
ATOM     20  C   UNL     1      -1.731   9.877  17.171  0.00  0.00    +0.000 A 
ATOM     21  C   UNL     1      -2.662  10.145  16.171  0.00  0.00    +0.000 A 
ATOM     22  C   UNL     1      -3.681  11.056  16.426  0.00  0.00    +0.000 A 
ATOM     23  C   UNL     1      -3.730  11.650  17.676  0.00  0.00    +0.000 A 
ATOM     24  N   UNL     1      -2.841  11.413  18.666  0.00  0.00    +0.000 NA
ENDBRANCH   4  19
TORSDOF 3
ENDMDL
MODEL 3
REMARK VINA RESULT:      -7.1      5.030      6.702
REMARK  Name = 
REMARK  3 active torsions:
REMARK  status: ('A' for Active; 'I' for Inactive)
REMARK    1  A    between atoms: C_2  and  C_5
REMARK    2  A    between atoms: C_8  and  N_9
REMARK    3  A    between atoms: C_12  and  C_13
REMARK                            x       y       z     vdW  Elec       q    Type
REMARK                         _______ _______ _______ _____ _____    ______ ____
ROOT
ATOM      1  N   UNL     1       1.770   8.212  20.647  0.00  0.00    +0.000 N 
ATOM      2  C   UNL     1       0.855   9.182  20.437  0.00  0.00    +0.000 A 
ATOM      3  N   UNL     1      -0.163   9.121  19.612  0.00  0.00    +0.000 NA
ATOM      4  C   UNL     1      -0.754  10.365  19.459  0.00  0.00    +0.000 A 
ATOM      5  C   UNL     1      -0.293  11.326  20.336  0.00  0.00    +0.000 A 
ATOM      6  S   UNL     1       0.950  10.667  21.317  0.00  0.00    +0.000 S 
ATOM      7  H   UNL     1       2.153   8.138  21.581  0.00  0.00    +0.000 HD
ENDROOT
BRANCH   1  11
ATOM      8  C   UNL     1       2.043   4.394  18.978  0.00  0.00    +0.000 A 
ATOM      9  C   UNL     1       1.628   4.678  20.263  0.00  0.00    +0.000 A 
ATOM     10  N   UNL     1       1.541   5.932  20.773  0.00  0.00    +0.000 NA
ATOM     11  C   UNL     1       1.893   6.989  19.988  0.00  0.00    +0.000 A 
ATOM     12  C   UNL     1       2.373   6.776  18.686  0.00  0.00    +0.000 A 
ATOM     13 CL   UNL     1       3.141   7.967  17.693  0.00  0.00    +0.000 Cl
ATOM     14  C   UNL     1       2.403   5.476  18.174  0.00  0.00    +0.000 A 
BRANCH   8  16
ATOM     15  F   UNL     1       0.981   2.308  18.487  0.00  0.00    +0.000 F 
ATOM     16  C   UNL     1       2.160   2.989  18.477  0.00  0.00    +0.000 C 
ATOM     17  F   UNL     1       3.025   2.249  19.223  0.00  0.00    +0.000 F 
ATOM     18  F   UNL     1       2.620   2.926  17.199  0.00  0.00    +0.000 F 
ENDBRANCH   8  16
ENDBRANCH   1  11
BRANCH   4  19
ATOM     19  C   UNL     1      -1.721  10.615  18.394  0.00  0.00    +0.000 A 
ATOM     20  C   UNL     1      -2.792  11.480  18.616  0.00  0.00    +0.000 A 
ATOM     21  C   UNL     1      -3.772  11.612  17.637  0.00  0.00    +0.000 A 
ATOM     22  C   UNL     1      -3.652  10.881  16.460  0.00  0.00    +0.000 A 
ATOM     23  C   UNL     1      -2.547  10.058  16.311  0.00  0.00    +0.000 A 
ATOM     24  N   UNL     1      -1.581   9.906  17.243  0.00  0.00    +0.000 NA
ENDBRANCH   4  19
TORSDOF 3
ENDMDL
MODEL 4
REMARK VINA RESULT:      -7.1      0.740      1.102
REMARK  Name = 
REMARK  3 active torsions:
REMARK  status: ('A' for Active; 'I' for Inactive)
REMARK    1  A    between atoms: C_2  and  C_5
REMARK    2  A    between atoms: C_8  and  N_9
REMARK    3  A    between atoms: C_12  and  C_13
REMARK                            x       y       z     vdW  Elec       q    Type
REMARK                         _______ _______ _______ _____ _____    ______ ____
ROOT
ATOM      1  N   UNL     1       4.900   3.527  17.363  0.00  0.00    +0.000 N 
ATOM      2  C   UNL     1       3.930   4.175  18.043  0.00  0.00    +0.000 A 
ATOM      3  N   UNL     1       3.491   5.387  17.800  0.00  0.00    +0.000 NA
ATOM      4  C   UNL     1       2.676   5.836  18.826  0.00  0.00    +0.000 A 
ATOM      5  C   UNL     1       2.342   4.868  19.752  0.00  0.00    +0.000 A 
ATOM      6  S   UNL     1       3.125   3.394  19.358  0.00  0.00    +0.000 S 
ATOM      7  H   UNL     1       4.807   2.522  17.278  0.00  0.00    +0.000 HD
ENDROOT
BRANCH   1  11
ATOM      8  C   UNL     1       7.065   4.837  14.042  0.00  0.00    +0.000 A 
ATOM      9  C   UNL     1       5.876   4.137  13.997  0.00  0.00    +0.000 A 
ATOM     10  N   UNL     1       5.191   3.734  15.096  0.00  0.00    +0.000 NA
ATOM     11  C   UNL     1       5.698   4.016  16.330  0.00  0.00    +0.000 A 
ATOM     12  C   UNL     1       6.928   4.680  16.455  0.00  0.00    +0.000 A 
ATOM     13 CL   UNL     1       7.842   4.830  17.916  0.00  0.00    +0.000 Cl
ATOM     14  C   UNL     1       7.584   5.125  15.304  0.00  0.00    +0.000 A 
BRANCH   8  16
ATOM     15  F   UNL     1       7.405   6.418  12.279  0.00  0.00    +0.000 F 
ATOM     16  C   UNL     1       7.801   5.223  12.798  0.00  0.00    +0.000 C 
ATOM     17  F   UNL     1       7.638   4.312  11.800  0.00  0.00    +0.000 F 
ATOM     18  F   UNL     1       9.143   5.325  12.995  0.00  0.00    +0.000 F 
ENDBRANCH   8  16
ENDBRANCH   1  11
BRANCH   4  19
ATOM     19  C   UNL     1       2.290   7.240  18.925  0.00  0.00    +0.000 A 
ATOM     20  C   UNL     1       1.740   7.730  20.108  0.00  0.00    +0.000 A 
ATOM     21  C   UNL     1       1.264   9.037  20.146  0.00  0.00    +0.000 A 
ATOM     22  C   UNL     1       1.356   9.821  19.002  0.00  0.00    +0.000 A 
ATOM     23  C   UNL     1       1.933   9.265  17.872  0.00  0.00    +0.000 A 
ATOM     24  N   UNL     1       2.402   8.000  17.803  0.00  0.00    +0.000 NA
ENDBRANCH   4  19
TORSDOF 3
ENDMDL
MODEL 5
REMARK VINA RESULT:      -6.9      4.764      7.561
REMARK  Name = 
REMARK  3 active torsions:
REMARK  status: ('A' for Active; 'I' for Inactive)
REMARK    1  A    between atoms: C_2  and  C_5
REMARK    2  A    between atoms: C_8  and  N_9
REMARK    3  A    between atoms: C_12  and  C_13
REMARK                            x       y       z     vdW  Elec       q    Type
REMARK                         _______ _______ _______ _____ _____    ______ ____
ROOT
ATOM      1  N   UNL     1       5.508   5.952  19.149  0.00  0.00    +0.000 N 
ATOM      2  C   UNL     1       6.123   6.099  17.957  0.00  0.00    +0.000 A 
ATOM      3  N   UNL     1       5.693   5.648  16.802  0.00  0.00    +0.000 NA
ATOM      4  C   UNL     1       6.674   5.757  15.829  0.00  0.00    +0.000 A 
ATOM      5  C   UNL     1       7.782   6.483  16.218  0.00  0.00    +0.000 A 
ATOM      6  S   UNL     1       7.612   6.972  17.853  0.00  0.00    +0.000 S 
ATOM      7  H   UNL     1       5.616   6.706  19.817  0.00  0.00    +0.000 HD
ENDROOT
BRANCH   1  11
ATOM      8  C   UNL     1       2.241   3.497  20.006  0.00  0.00    +0.000 A 
ATOM      9  C   UNL     1       3.551   3.077  19.897  0.00  0.00    +0.000 A 
ATOM     10  N   UNL     1       4.593   3.903  19.627  0.00  0.00    +0.000 NA
ATOM     11  C   UNL     1       4.350   5.230  19.435  0.00  0.00    +0.000 A 
ATOM     12  C   UNL     1       3.037   5.723  19.480  0.00  0.00    +0.000 A 
ATOM     13 CL   UNL     1       2.538   7.296  18.958  0.00  0.00    +0.000 Cl
ATOM     14  C   UNL     1       1.992   4.855  19.810  0.00  0.00    +0.000 A 
BRANCH   8  16
ATOM     15  F   UNL     1       0.822   2.395  21.586  0.00  0.00    +0.000 F 
ATOM     16  C   UNL     1       1.123   2.538  20.266  0.00  0.00    +0.000 C 
ATOM     17  F   UNL     1       1.404   1.286  19.810  0.00  0.00    +0.000 F 
ATOM     18  F   UNL     1      -0.035   2.906  19.654  0.00  0.00    +0.000 F 
ENDBRANCH   8  16
ENDBRANCH   1  11
BRANCH   4  19
ATOM     19  C   UNL     1       6.541   5.079  14.544  0.00  0.00    +0.000 A 
ATOM     20  C   UNL     1       5.493   4.183  14.335  0.00  0.00    +0.000 A 
ATOM     21  C   UNL     1       5.451   3.453  13.150  0.00  0.00    +0.000 A 
ATOM     22  C   UNL     1       6.453   3.643  12.206  0.00  0.00    +0.000 A 
ATOM     23  C   UNL     1       7.448   4.566  12.483  0.00  0.00    +0.000 A 
ATOM     24  N   UNL     1       7.518   5.288  13.623  0.00  0.00    +0.000 NA
ENDBRANCH   4  19
TORSDOF 3
ENDMDL
MODEL 6
REMARK VINA RESULT:      -6.9      5.020      6.992
REMARK  Name = 
REMARK  3 active torsions:
REMARK  status: ('A' for Active; 'I' for Inactive)
REMARK    1  A    between atoms: C_2  and  C_5
REMARK    2  A    between atoms: C_8  and  N_9
REMARK    3  A    between atoms: C_12  and  C_13
REMARK                            x       y       z     vdW  Elec       q    Type
REMARK                         _______ _______ _______ _____ _____    ______ ____
ROOT
ATOM      1  N   UNL     1       1.125   9.262  20.641  0.00  0.00    +0.000 N 
ATOM      2  C   UNL     1       0.041   9.982  20.284  0.00  0.00    +0.000 A 
ATOM      3  N   UNL     1      -0.805   9.687  19.326  0.00  0.00    +0.000 NA
ATOM      4  C   UNL     1      -1.652  10.751  19.064  0.00  0.00    +0.000 A 
ATOM      5  C   UNL     1      -1.566  11.784  19.976  0.00  0.00    +0.000 A 
ATOM      6  S   UNL     1      -0.351  11.435  21.135  0.00  0.00    +0.000 S 
ATOM      7  H   UNL     1       1.379   9.271  21.621  0.00  0.00    +0.000 HD
ENDROOT
BRANCH   1  11
ATOM      8  C   UNL     1       2.591   5.657  19.128  0.00  0.00    +0.000 A 
ATOM      9  C   UNL     1       2.071   5.841  20.393  0.00  0.00    +0.000 A 
ATOM     10  N   UNL     1       1.593   7.025  20.851  0.00  0.00    +0.000 NA
ATOM     11  C   UNL     1       1.632   8.114  20.033  0.00  0.00    +0.000 A 
ATOM     12  C   UNL     1       2.193   8.015  18.750  0.00  0.00    +0.000 A 
ATOM     13 CL   UNL     1       2.595   9.351  17.726  0.00  0.00    +0.000 Cl
ATOM     14  C   UNL     1       2.631   6.771  18.290  0.00  0.00    +0.000 A 
BRANCH   8  16
ATOM     15  F   UNL     1       2.555   3.853  17.557  0.00  0.00    +0.000 F 
ATOM     16  C   UNL     1       3.143   4.338  18.685  0.00  0.00    +0.000 C 
ATOM     17  F   UNL     1       2.987   3.372  19.632  0.00  0.00    +0.000 F 
ATOM     18  F   UNL     1       4.476   4.391  18.422  0.00  0.00    +0.000 F 
ENDBRANCH   8  16
ENDBRANCH   1  11
BRANCH   4  19
ATOM     19  C   UNL     1      -2.491  10.773  17.870  0.00  0.00    +0.000 A 
ATOM     20  C   UNL     1      -2.059  10.142  16.704  0.00  0.00    +0.000 A 
ATOM     21  C   UNL     1      -2.811  10.277  15.541  0.00  0.00    +0.000 A 
ATOM     22  C   UNL     1      -3.977  11.033  15.576  0.00  0.00    +0.000 A 
ATOM     23  C   UNL     1      -4.345  11.612  16.779  0.00  0.00    +0.000 A 
ATOM     24  N   UNL     1      -3.637  11.502  17.924  0.00  0.00    +0.000 NA
ENDBRANCH   4  19
TORSDOF 3
ENDMDL
MODEL 7
REMARK VINA RESULT:      -6.9      5.049      7.062
REMARK  Name = 
REMARK  3 active torsions:
REMARK  status: ('A' for Active; 'I' for Inactive)
REMARK    1  A    between atoms: C_2  and  C_5
REMARK    2  A    between atoms: C_8  and  N_9
REMARK    3  A    between atoms: C_12  and  C_13
REMARK                            x       y       z     vdW  Elec       q    Type
REMARK                         _______ _______ _______ _____ _____    ______ ____
ROOT
ATOM      1  N   UNL     1       1.170   9.257  20.742  0.00  0.00    +0.000 N 
ATOM      2  C   UNL     1       0.120  10.046  20.431  0.00  0.00    +0.000 A 
ATOM      3  N   UNL     1      -0.752   9.835  19.474  0.00  0.00    +0.000 NA
ATOM      4  C   UNL     1      -1.547  10.951  19.269  0.00  0.00    +0.000 A 
ATOM      5  C   UNL     1      -1.396  11.939  20.221  0.00  0.00    +0.000 A 
ATOM      6  S   UNL     1      -0.187  11.480  21.347  0.00  0.00    +0.000 S 
ATOM      7  H   UNL     1       1.436   9.212  21.718  0.00  0.00    +0.000 HD
ENDROOT
BRANCH   1  11
ATOM      8  C   UNL     1       2.452   5.654  19.065  0.00  0.00    +0.000 A 
ATOM      9  C   UNL     1       2.021   5.824  20.365  0.00  0.00    +0.000 A 
ATOM     10  N   UNL     1       1.601   7.007  20.877  0.00  0.00    +0.000 NA
ATOM     11  C   UNL     1       1.610   8.112  20.079  0.00  0.00    +0.000 A 
ATOM     12  C   UNL     1       2.083   8.028  18.760  0.00  0.00    +0.000 A 
ATOM     13 CL   UNL     1       2.446   9.377  17.738  0.00  0.00    +0.000 Cl
ATOM     14  C   UNL     1       2.461   6.784  18.248  0.00  0.00    +0.000 A 
BRANCH   8  16
ATOM     15  F   UNL     1       2.964   4.243  17.203  0.00  0.00    +0.000 F 
ATOM     16  C   UNL     1       2.943   4.334  18.561  0.00  0.00    +0.000 C 
ATOM     17  F   UNL     1       2.170   3.300  18.992  0.00  0.00    +0.000 F 
ATOM     18  F   UNL     1       4.208   4.053  18.977  0.00  0.00    +0.000 F 
ENDBRANCH   8  16
ENDBRANCH   1  11
BRANCH   4  19
ATOM     19  C   UNL     1      -2.398  11.065  18.089  0.00  0.00    +0.000 A 
ATOM     20  C   UNL     1      -3.689  11.576  18.209  0.00  0.00    +0.000 A 
ATOM     21  C   UNL     1      -4.530  11.564  17.100  0.00  0.00    +0.000 A 
ATOM     22  C   UNL     1      -4.056  11.046  15.900  0.00  0.00    +0.000 A 
ATOM     23  C   UNL     1      -2.754  10.576  15.860  0.00  0.00    +0.000 A 
ATOM     24  N   UNL     1      -1.914  10.572  16.919  0.00  0.00    +0.000 NA
ENDBRANCH   4  19
TORSDOF 3
ENDMDL
MODEL 8
REMARK VINA RESULT:      -6.7      3.152      4.080
REMARK  Name = 
REMARK  3 active torsions:
REMARK  status: ('A' for Active; 'I' for Inactive)
REMARK    1  A    between atoms: C_2  and  C_5
REMARK    2  A    between atoms: C_8  and  N_9
REMARK    3  A    between atoms: C_12  and  C_13
REMARK                            x       y       z     vdW  Elec       q    Type
REMARK                         _______ _______ _______ _____ _____    ______ ____
ROOT
ATOM      1  N   UNL     1       7.447   5.230  15.946  0.00  0.00    +0.000 N 
ATOM      2  C   UNL     1       6.965   5.127  17.203  0.00  0.00    +0.000 A 
ATOM      3  N   UNL     1       5.874   4.496  17.566  0.00  0.00    +0.000 NA
ATOM      4  C   UNL     1       5.542   4.790  18.878  0.00  0.00    +0.000 A 
ATOM      5  C   UNL     1       6.510   5.495  19.566  0.00  0.00    +0.000 A 
ATOM      6  S   UNL     1       7.823   5.848  18.520  0.00  0.00    +0.000 S 
ATOM      7  H   UNL     1       8.454   5.261  15.842  0.00  0.00    +0.000 HD
ENDROOT
BRANCH   1  11
ATOM      8  C   UNL     1       5.474   3.688  12.605  0.00  0.00    +0.000 A 
ATOM      9  C   UNL     1       5.116   3.465  13.919  0.00  0.00    +0.000 A 
ATOM     10  N   UNL     1       5.773   3.990  14.984  0.00  0.00    +0.000 NA
ATOM     11  C   UNL     1       6.864   4.777  14.764  0.00  0.00    +0.000 A 
ATOM     12  C   UNL     1       7.318   5.008  13.456  0.00  0.00    +0.000 A 
ATOM     13 CL   UNL     1       8.841   5.712  13.033  0.00  0.00    +0.000 Cl
ATOM     14  C   UNL     1       6.590   4.494  12.379  0.00  0.00    +0.000 A 
BRANCH   8  16
ATOM     15  F   UNL     1       5.275   1.867  11.066  0.00  0.00    +0.000 F 
ATOM     16  C   UNL     1       4.739   3.053  11.467  0.00  0.00    +0.000 C 
ATOM     17  F   UNL     1       4.720   3.846  10.361  0.00  0.00    +0.000 F 
ATOM     18  F   UNL     1       3.437   2.795  11.765  0.00  0.00    +0.000 F 
ENDBRANCH   8  16
ENDBRANCH   1  11
BRANCH   4  19
ATOM     19  C   UNL     1       4.235   4.436  19.424  0.00  0.00    +0.000 A 
ATOM     20  C   UNL     1       3.309   5.436  19.717  0.00  0.00    +0.000 A 
ATOM     21  C   UNL     1       2.118   5.094  20.351  0.00  0.00    +0.000 A 
ATOM     22  C   UNL     1       1.883   3.761  20.670  0.00  0.00    +0.000 A 
ATOM     23  C   UNL     1       2.847   2.827  20.327  0.00  0.00    +0.000 A 
ATOM     24  N   UNL     1       4.013   3.127  19.714  0.00  0.00    +0.000 NA
ENDBRANCH   4  19
TORSDOF 3
ENDMDL
MODEL 9
REMARK VINA RESULT:      -6.7      3.443      4.382
REMARK  Name = 
REMARK  3 active torsions:
REMARK  status: ('A' for Active; 'I' for Inactive)
REMARK    1  A    between atoms: C_2  and  C_5
REMARK    2  A    between atoms: C_8  and  N_9
REMARK    3  A    between atoms: C_12  and  C_13
REMARK                            x       y       z     vdW  Elec       q    Type
REMARK                         _______ _______ _______ _____ _____    ______ ____
ROOT
ATOM      1  N   UNL     1       7.411   5.595  15.586  0.00  0.00    +0.000 N 
ATOM      2  C   UNL     1       6.961   5.439  16.849  0.00  0.00    +0.000 A 
ATOM      3  N   UNL     1       6.156   4.495  17.274  0.00  0.00    +0.000 NA
ATOM      4  C   UNL     1       5.703   4.767  18.555  0.00  0.00    +0.000 A 
ATOM      5  C   UNL     1       6.335   5.830  19.169  0.00  0.00    +0.000 A 
ATOM      6  S   UNL     1       7.465   6.535  18.088  0.00  0.00    +0.000 S 
ATOM      7  H   UNL     1       8.343   5.975  15.474  0.00  0.00    +0.000 HD
ENDROOT
BRANCH   1  11
ATOM      8  C   UNL     1       6.175   3.184  12.408  0.00  0.00    +0.000 A 
ATOM      9  C   UNL     1       5.761   3.056  13.719  0.00  0.00    +0.000 A 
ATOM     10  N   UNL     1       6.175   3.863  14.727  0.00  0.00    +0.000 NA
ATOM     11  C   UNL     1       7.063   4.859  14.453  0.00  0.00    +0.000 A 
ATOM     12  C   UNL     1       7.568   5.020  13.154  0.00  0.00    +0.000 A 
ATOM     13 CL   UNL     1       8.913   6.017  12.717  0.00  0.00    +0.000 Cl
ATOM     14  C   UNL     1       7.084   4.204  12.128  0.00  0.00    +0.000 A 
BRANCH   8  16
ATOM     15  F   UNL     1       6.604   2.113  10.313  0.00  0.00    +0.000 F 
ATOM     16  C   UNL     1       5.719   2.242  11.339  0.00  0.00    +0.000 C 
ATOM     17  F   UNL     1       4.546   2.636  10.774  0.00  0.00    +0.000 F 
ATOM     18  F   UNL     1       5.503   0.984  11.809  0.00  0.00    +0.000 F 
ENDBRANCH   8  16
ENDBRANCH   1  11
BRANCH   4  19
ATOM     19  C   UNL     1       4.593   4.019  19.138  0.00  0.00    +0.000 A 
ATOM     20  C   UNL     1       3.300   4.536  19.081  0.00  0.00    +0.000 A 
ATOM     21  C   UNL     1       2.274   3.873  19.748  0.00  0.00    +0.000 A 
ATOM     22  C   UNL     1       2.568   2.708  20.448  0.00  0.00    +0.000 A 
ATOM     23  C   UNL     1       3.875   2.252  20.439  0.00  0.00    +0.000 A 
ATOM     24  N   UNL     1       4.893   2.873  19.804  0.00  0.00    +0.000 NA
ENDBRANCH   4  19
TORSDOF 3
ENDMDL
