MODEL 1
REMARK VINA RESULT:      -7.4      0.000      0.000
REMARK  Name = 
REMARK  7 active torsions:
REMARK  status: ('A' for Active; 'I' for Inactive)
REMARK    1  A    between atoms: C_1  and  C_2
REMARK    2  A    between atoms: C_5  and  N_6
REMARK    3  A    between atoms: C_10  and  S_11
REMARK    4  A    between atoms: S_11  and  C_12
REMARK    5  A    between atoms: C_12  and  C_13
REMARK    6  A    between atoms: N_15  and  C_16
REMARK    7  A    between atoms: C_19  and  C_20
REMARK                            x       y       z     vdW  Elec       q    Type
REMARK                         _______ _______ _______ _____ _____    ______ ____
ROOT
ATOM      1  C   UNL     1       0.237  10.762  21.670  0.00  0.00    +0.000 C 
ENDROOT
BRANCH   1   2
ATOM      2  C   UNL     1      -1.016  11.280  22.357  0.00  0.00    +0.000 C 
ATOM      3  O   UNL     1      -1.511  10.695  23.318  0.00  0.00    +0.000 OA
ATOM      4  N   UNL     1      -1.554  12.413  21.765  0.00  0.00    +0.000 N 
ATOM      5  H   UNL     1      -1.524  12.414  20.749  0.00  0.00    +0.000 HD
BRANCH   4   6
ATOM      6  C   UNL     1      -2.751  12.962  22.254  0.00  0.00    +0.000 A 
ATOM      7  N   UNL     1      -3.843  12.597  21.543  0.00  0.00    +0.000 NA
ATOM      8  C   UNL     1      -5.054  12.949  22.033  0.00  0.00    +0.000 A 
ATOM      9  C   UNL     1      -5.237  13.698  23.186  0.00  0.00    +0.000 A 
ATOM     10  C   UNL     1      -4.092  14.151  23.849  0.00  0.00    +0.000 A 
ATOM     11  C   UNL     1      -2.828  13.792  23.378  0.00  0.00    +0.000 A 
ATOM     12 CL   UNL     1      -1.450  14.502  24.141  0.00  0.00    +0.000 Cl
BRANCH   9  13
ATOM     13  C   UNL     1      -6.611  14.009  23.695  0.00  0.00    +0.000 C 
ATOM     14  F   UNL     1      -7.095  13.075  24.560  0.00  0.00    +0.000 F 
ATOM     15  F   UNL     1      -6.661  15.194  24.361  0.00  0.00    +0.000 F 
ATOM     16  F   UNL     1      -7.528  14.102  22.695  0.00  0.00    +0.000 F 
ENDBRANCH   9  13
ENDBRANCH   4   6
ENDBRANCH   1   2
BRANCH   1  17
ATOM     17  S   UNL     1       0.205  11.162  19.895  0.00  0.00    +0.000 S 
BRANCH  17  22
ATOM     18  N   UNL     1       2.857   6.558  18.834  0.00  0.00    +0.000 N 
ATOM     19  C   UNL     1       2.166   7.726  18.761  0.00  0.00    +0.000 A 
ATOM     20  N   UNL     1       1.848   8.422  17.686  0.00  0.00    +0.000 NA
ATOM     21  N   UNL     1       1.184   9.594  17.963  0.00  0.00    +0.000 NA
ATOM     22  C   UNL     1       1.014   9.755  19.255  0.00  0.00    +0.000 A 
ATOM     23  S   UNL     1       1.627   8.488  20.221  0.00  0.00    +0.000 S 
ATOM     24  H   UNL     1       3.011   6.177  19.756  0.00  0.00    +0.000 HD
BRANCH  18  29
ATOM     25  C   UNL     1       6.218   4.068  14.892  0.00  0.00    +0.000 C 
ATOM     26  C   UNL     1       5.325   4.714  15.907  0.00  0.00    +0.000 A 
ATOM     27  C   UNL     1       4.387   3.978  16.635  0.00  0.00    +0.000 A 
ATOM     28  C   UNL     1       3.563   4.610  17.576  0.00  0.00    +0.000 A 
ATOM     29  C   UNL     1       3.666   5.989  17.824  0.00  0.00    +0.000 A 
ATOM     30  C   UNL     1       4.590   6.713  17.067  0.00  0.00    +0.000 A 
ATOM     31  C   UNL     1       5.414   6.088  16.128  0.00  0.00    +0.000 A 
ENDBRANCH  18  29
ENDBRANCH  17  22
ENDBRANCH   1  17
TORSDOF 6
ENDMDL
MODEL 2
REMARK VINA RESULT:      -7.3      1.499      1.900
REMARK  Name = 
REMARK  7 active torsions:
REMARK  status: ('A' for Active; 'I' for Inactive)
REMARK    1  A    between atoms: C_1  and  C_2
REMARK    2  A    between atoms: C_5  and  N_6
REMARK    3  A    between atoms: C_10  and  S_11
REMARK    4  A    between atoms: S_11  and  C_12
REMARK    5  A    between atoms: C_12  and  C_13
REMARK    6  A    between atoms: N_15  and  C_16
REMARK    7  A    between atoms: C_19  and  C_20
REMARK                            x       y       z     vdW  Elec       q    Type
REMARK                         _______ _______ _______ _____ _____    ______ ____
ROOT
ATOM      1  C   UNL     1       0.159  11.071  21.921  0.00  0.00    +0.000 C 
ENDROOT
BRANCH   1   2
ATOM      2  C   UNL     1      -1.184  11.441  22.532  0.00  0.00    +0.000 C 
ATOM      3  O   UNL     1      -1.685  10.773  23.435  0.00  0.00    +0.000 OA
ATOM      4  N   UNL     1      -1.788  12.540  21.941  0.00  0.00    +0.000 N 
ATOM      5  H   UNL     1      -1.688  12.585  20.930  0.00  0.00    +0.000 HD
BRANCH   4   6
ATOM      6  C   UNL     1      -3.063  12.952  22.360  0.00  0.00    +0.000 A 
ATOM      7  N   UNL     1      -4.067  12.460  21.597  0.00  0.00    +0.000 NA
ATOM      8  C   UNL     1      -5.335  12.675  22.019  0.00  0.00    +0.000 A 
ATOM      9  C   UNL     1      -5.663  13.408  23.151  0.00  0.00    +0.000 A 
ATOM     10  C   UNL     1      -4.613  13.993  23.866  0.00  0.00    +0.000 A 
ATOM     11  C   UNL     1      -3.293  13.776  23.467  0.00  0.00    +0.000 A 
ATOM     12 CL   UNL     1      -2.047  14.645  24.291  0.00  0.00    +0.000 Cl
BRANCH   9  13
ATOM     13  C   UNL     1      -7.087  13.563  23.583  0.00  0.00    +0.000 C 
ATOM     14  F   UNL     1      -7.275  14.559  24.493  0.00  0.00    +0.000 F 
ATOM     15  F   UNL     1      -7.916  13.851  22.543  0.00  0.00    +0.000 F 
ATOM     16  F   UNL     1      -7.584  12.435  24.157  0.00  0.00    +0.000 F 
ENDBRANCH   9  13
ENDBRANCH   4   6
ENDBRANCH   1   2
BRANCH   1  17
ATOM     17  S   UNL     1       0.090  11.189  20.107  0.00  0.00    +0.000 S 
BRANCH  17  22
ATOM     18  N   UNL     1       2.946   7.147  17.902  0.00  0.00    +0.000 N 
ATOM     19  C   UNL     1       2.254   7.969  18.735  0.00  0.00    +0.000 A 
ATOM     20  N   UNL     1       1.869   7.740  19.976  0.00  0.00    +0.000 NA
ATOM     21  N   UNL     1       1.137   8.765  20.526  0.00  0.00    +0.000 NA
ATOM     22  C   UNL     1       0.986   9.755  19.678  0.00  0.00    +0.000 A 
ATOM     23  S   UNL     1       1.738   9.521  18.163  0.00  0.00    +0.000 S 
ATOM     24  H   UNL     1       3.142   7.498  16.976  0.00  0.00    +0.000 HD
BRANCH  18  29
ATOM     25  C   UNL     1       3.486   1.473  18.636  0.00  0.00    +0.000 C 
ATOM     26  C   UNL     1       3.345   2.949  18.424  0.00  0.00    +0.000 A 
ATOM     27  C   UNL     1       2.163   3.511  17.938  0.00  0.00    +0.000 A 
ATOM     28  C   UNL     1       2.061   4.896  17.746  0.00  0.00    +0.000 A 
ATOM     29  C   UNL     1       3.131   5.754  18.051  0.00  0.00    +0.000 A 
ATOM     30  C   UNL     1       4.314   5.171  18.509  0.00  0.00    +0.000 A 
ATOM     31  C   UNL     1       4.421   3.791  18.702  0.00  0.00    +0.000 A 
ENDBRANCH  18  29
ENDBRANCH  17  22
ENDBRANCH   1  17
TORSDOF 6
ENDMDL
MODEL 3
REMARK VINA RESULT:      -7.3      5.699      8.114
REMARK  Name = 
REMARK  7 active torsions:
REMARK  status: ('A' for Active; 'I' for Inactive)
REMARK    1  A    between atoms: C_1  and  C_2
REMARK    2  A    between atoms: C_5  and  N_6
REMARK    3  A    between atoms: C_10  and  S_11
REMARK    4  A    between atoms: S_11  and  C_12
REMARK    5  A    between atoms: C_12  and  C_13
REMARK    6  A    between atoms: N_15  and  C_16
REMARK    7  A    between atoms: C_19  and  C_20
REMARK                            x       y       z     vdW  Elec       q    Type
REMARK                         _______ _______ _______ _____ _____    ______ ____
ROOT
ATOM      1  C   UNL     1       4.612   4.333  18.934  0.00  0.00    +0.000 C 
ENDROOT
BRANCH   1   2
ATOM      2  C   UNL     1       3.428   5.280  18.818  0.00  0.00    +0.000 C 
ATOM      3  O   UNL     1       2.506   5.063  18.035  0.00  0.00    +0.000 OA
ATOM      4  N   UNL     1       3.528   6.406  19.621  0.00  0.00    +0.000 N 
ATOM      5  H   UNL     1       4.462   6.804  19.677  0.00  0.00    +0.000 HD
BRANCH   4   6
ATOM      6  C   UNL     1       2.538   7.401  19.564  0.00  0.00    +0.000 A 
ATOM      7  N   UNL     1       1.747   7.439  20.661  0.00  0.00    +0.000 NA
ATOM      8  C   UNL     1       0.870   8.465  20.763  0.00  0.00    +0.000 A 
ATOM      9  C   UNL     1       0.702   9.442  19.793  0.00  0.00    +0.000 A 
ATOM     10  C   UNL     1       1.457   9.324  18.622  0.00  0.00    +0.000 A 
ATOM     11  C   UNL     1       2.383   8.288  18.492  0.00  0.00    +0.000 A 
ATOM     12 CL   UNL     1       3.176   8.099  16.969  0.00  0.00    +0.000 Cl
BRANCH   9  13
ATOM     13  C   UNL     1      -0.255  10.576  19.997  0.00  0.00    +0.000 C 
ATOM     14  F   UNL     1       0.022  11.667  19.231  0.00  0.00    +0.000 F 
ATOM     15  F   UNL     1      -1.537  10.231  19.700  0.00  0.00    +0.000 F 
ATOM     16  F   UNL     1      -0.273  11.017  21.283  0.00  0.00    +0.000 F 
ENDBRANCH   9  13
ENDBRANCH   4   6
ENDBRANCH   1   2
BRANCH   1  17
ATOM     17  S   UNL     1       5.600   4.354  17.406  0.00  0.00    +0.000 S 
BRANCH  17  22
ATOM     18  N   UNL     1       8.892   8.325  19.063  0.00  0.00    +0.000 N 
ATOM     19  C   UNL     1       8.011   7.542  18.388  0.00  0.00    +0.000 A 
ATOM     20  N   UNL     1       7.297   7.846  17.321  0.00  0.00    +0.000 NA
ATOM     21  N   UNL     1       6.457   6.838  16.911  0.00  0.00    +0.000 NA
ATOM     22  C   UNL     1       6.559   5.784  17.687  0.00  0.00    +0.000 A 
ATOM     23  S   UNL     1       7.694   5.935  18.953  0.00  0.00    +0.000 S 
ATOM     24  H   UNL     1       9.341   7.915  19.870  0.00  0.00    +0.000 HD
BRANCH  18  29
ATOM     25  C   UNL     1       9.214  14.062  18.924  0.00  0.00    +0.000 C 
ATOM     26  C   UNL     1       9.151  12.566  18.964  0.00  0.00    +0.000 A 
ATOM     27  C   UNL     1       9.358  11.852  20.146  0.00  0.00    +0.000 A 
ATOM     28  C   UNL     1       9.297  10.452  20.153  0.00  0.00    +0.000 A 
ATOM     29  C   UNL     1       9.010   9.731  18.981  0.00  0.00    +0.000 A 
ATOM     30  C   UNL     1       8.833  10.460  17.802  0.00  0.00    +0.000 A 
ATOM     31  C   UNL     1       8.894  11.856  17.791  0.00  0.00    +0.000 A 
ENDBRANCH  18  29
ENDBRANCH  17  22
ENDBRANCH   1  17
TORSDOF 6
ENDMDL
MODEL 4
REMARK VINA RESULT:      -7.3      6.850     12.444
REMARK  Name = 
REMARK  7 active torsions:
REMARK  status: ('A' for Active; 'I' for Inactive)
REMARK    1  A    between atoms: C_1  and  C_2
REMARK    2  A    between atoms: C_5  and  N_6
REMARK    3  A    between atoms: C_10  and  S_11
REMARK    4  A    between atoms: S_11  and  C_12
REMARK    5  A    between atoms: C_12  and  C_13
REMARK    6  A    between atoms: N_15  and  C_16
REMARK    7  A    between atoms: C_19  and  C_20
REMARK                            x       y       z     vdW  Elec       q    Type
REMARK                         _______ _______ _______ _____ _____    ______ ____
ROOT
ATOM      1  C   UNL     1       1.234   9.275  19.290  0.00  0.00    +0.000 C 
ENDROOT
BRANCH   1   2
ATOM      2  C   UNL     1       2.106   8.534  18.288  0.00  0.00    +0.000 C 
ATOM      3  O   UNL     1       2.206   8.910  17.121  0.00  0.00    +0.000 OA
ATOM      4  N   UNL     1       2.708   7.395  18.800  0.00  0.00    +0.000 N 
ATOM      5  H   UNL     1       2.119   6.850  19.425  0.00  0.00    +0.000 HD
BRANCH   4   6
ATOM      6  C   UNL     1       3.487   6.575  17.967  0.00  0.00    +0.000 A 
ATOM      7  N   UNL     1       4.585   7.192  17.475  0.00  0.00    +0.000 NA
ATOM      8  C   UNL     1       5.475   6.434  16.793  0.00  0.00    +0.000 A 
ATOM      9  C   UNL     1       5.302   5.083  16.528  0.00  0.00    +0.000 A 
ATOM     10  C   UNL     1       4.110   4.490  16.957  0.00  0.00    +0.000 A 
ATOM     11  C   UNL     1       3.180   5.240  17.678  0.00  0.00    +0.000 A 
ATOM     12 CL   UNL     1       1.662   4.504  18.050  0.00  0.00    +0.000 Cl
BRANCH   9  13
ATOM     13  C   UNL     1       6.353   4.297  15.808  0.00  0.00    +0.000 C 
ATOM     14  F   UNL     1       7.532   4.217  16.484  0.00  0.00    +0.000 F 
ATOM     15  F   UNL     1       5.970   3.012  15.575  0.00  0.00    +0.000 F 
ATOM     16  F   UNL     1       6.655   4.824  14.591  0.00  0.00    +0.000 F 
ENDBRANCH   9  13
ENDBRANCH   4   6
ENDBRANCH   1   2
BRANCH   1  17
ATOM     17  S   UNL     1       1.328  11.071  19.014  0.00  0.00    +0.000 S 
BRANCH  17  22
ATOM     18  N   UNL     1      -3.804  12.699  19.616  0.00  0.00    +0.000 N 
ATOM     19  C   UNL     1      -2.541  12.235  19.800  0.00  0.00    +0.000 A 
ATOM     20  N   UNL     1      -1.932  11.949  20.935  0.00  0.00    +0.000 NA
ATOM     21  N   UNL     1      -0.626  11.546  20.775  0.00  0.00    +0.000 NA
ATOM     22  C   UNL     1      -0.279  11.536  19.510  0.00  0.00    +0.000 A 
ATOM     23  S   UNL     1      -1.515  11.993  18.424  0.00  0.00    +0.000 S 
ATOM     24  H   UNL     1      -4.094  12.869  18.663  0.00  0.00    +0.000 HD
BRANCH  18  29
ATOM     25  C   UNL     1      -6.999  15.175  23.702  0.00  0.00    +0.000 C 
ATOM     26  C   UNL     1      -6.177  14.541  22.622  0.00  0.00    +0.000 A 
ATOM     27  C   UNL     1      -5.210  15.261  21.917  0.00  0.00    +0.000 A 
ATOM     28  C   UNL     1      -4.457  14.643  20.910  0.00  0.00    +0.000 A 
ATOM     29  C   UNL     1      -4.641  13.286  20.593  0.00  0.00    +0.000 A 
ATOM     30  C   UNL     1      -5.631  12.590  21.289  0.00  0.00    +0.000 A 
ATOM     31  C   UNL     1      -6.385  13.202  22.295  0.00  0.00    +0.000 A 
ENDBRANCH  18  29
ENDBRANCH  17  22
ENDBRANCH   1  17
TORSDOF 6
ENDMDL
MODEL 5
REMARK VINA RESULT:      -7.2      5.741      8.187
REMARK  Name = 
REMARK  7 active torsions:
REMARK  status: ('A' for Active; 'I' for Inactive)
REMARK    1  A    between atoms: C_1  and  C_2
REMARK    2  A    between atoms: C_5  and  N_6
REMARK    3  A    between atoms: C_10  and  S_11
REMARK    4  A    between atoms: S_11  and  C_12
REMARK    5  A    between atoms: C_12  and  C_13
REMARK    6  A    between atoms: N_15  and  C_16
REMARK    7  A    between atoms: C_19  and  C_20
REMARK                            x       y       z     vdW  Elec       q    Type
REMARK                         _______ _______ _______ _____ _____    ______ ____
ROOT
ATOM      1  C   UNL     1       4.565   3.816  18.537  0.00  0.00    +0.000 C 
ENDROOT
BRANCH   1   2
ATOM      2  C   UNL     1       3.414   4.808  18.591  0.00  0.00    +0.000 C 
ATOM      3  O   UNL     1       2.388   4.638  17.935  0.00  0.00    +0.000 OA
ATOM      4  N   UNL     1       3.663   5.916  19.386  0.00  0.00    +0.000 N 
ATOM      5  H   UNL     1       4.611   6.279  19.322  0.00  0.00    +0.000 HD
BRANCH   4   6
ATOM      6  C   UNL     1       2.713   6.947  19.474  0.00  0.00    +0.000 A 
ATOM      7  N   UNL     1       1.956   6.890  20.593  0.00  0.00    +0.000 NA
ATOM      8  C   UNL     1       1.125   7.930  20.839  0.00  0.00    +0.000 A 
ATOM      9  C   UNL     1       0.969   9.017  19.991  0.00  0.00    +0.000 A 
ATOM     10  C   UNL     1       1.686   9.004  18.790  0.00  0.00    +0.000 A 
ATOM     11  C   UNL     1       2.564   7.955  18.514  0.00  0.00    +0.000 A 
ATOM     12 CL   UNL     1       3.306   7.911  16.955  0.00  0.00    +0.000 Cl
BRANCH   9  13
ATOM     13  C   UNL     1       0.066  10.155  20.352  0.00  0.00    +0.000 C 
ATOM     14  F   UNL     1       0.424  11.338  19.780  0.00  0.00    +0.000 F 
ATOM     15  F   UNL     1      -1.222   9.934  19.972  0.00  0.00    +0.000 F 
ATOM     16  F   UNL     1       0.027  10.384  21.692  0.00  0.00    +0.000 F 
ENDBRANCH   9  13
ENDBRANCH   4   6
ENDBRANCH   1   2
BRANCH   1  17
ATOM     17  S   UNL     1       5.476   3.980  16.970  0.00  0.00    +0.000 S 
BRANCH  17  22
ATOM     18  N   UNL     1       8.577   7.980  18.904  0.00  0.00    +0.000 N 
ATOM     19  C   UNL     1       7.793   7.174  18.141  0.00  0.00    +0.000 A 
ATOM     20  N   UNL     1       7.273   7.423  16.955  0.00  0.00    +0.000 NA
ATOM     21  N   UNL     1       6.480   6.408  16.474  0.00  0.00    +0.000 NA
ATOM     22  C   UNL     1       6.421   5.405  17.319  0.00  0.00    +0.000 A 
ATOM     23  S   UNL     1       7.338   5.614  18.743  0.00  0.00    +0.000 S 
ATOM     24  H   UNL     1       8.874   7.615  19.797  0.00  0.00    +0.000 HD
BRANCH  18  29
ATOM     25  C   UNL     1       9.310  13.618  18.060  0.00  0.00    +0.000 C 
ATOM     26  C   UNL     1       9.100  12.153  18.288  0.00  0.00    +0.000 A 
ATOM     27  C   UNL     1       8.177  11.418  17.540  0.00  0.00    +0.000 A 
ATOM     28  C   UNL     1       7.999  10.048  17.778  0.00  0.00    +0.000 A 
ATOM     29  C   UNL     1       8.750   9.375  18.757  0.00  0.00    +0.000 A 
ATOM     30  C   UNL     1       9.648  10.132  19.514  0.00  0.00    +0.000 A 
ATOM     31  C   UNL     1       9.829  11.498  19.280  0.00  0.00    +0.000 A 
ENDBRANCH  18  29
ENDBRANCH  17  22
ENDBRANCH   1  17
TORSDOF 6
ENDMDL
MODEL 6
REMARK VINA RESULT:      -7.2      6.857     12.437
REMARK  Name = 
REMARK  7 active torsions:
REMARK  status: ('A' for Active; 'I' for Inactive)
REMARK    1  A    between atoms: C_1  and  C_2
REMARK    2  A    between atoms: C_5  and  N_6
REMARK    3  A    between atoms: C_10  and  S_11
REMARK    4  A    between atoms: S_11  and  C_12
REMARK    5  A    between atoms: C_12  and  C_13
REMARK    6  A    between atoms: N_15  and  C_16
REMARK    7  A    between atoms: C_19  and  C_20
REMARK                            x       y       z     vdW  Elec       q    Type
REMARK                         _______ _______ _______ _____ _____    ______ ____
ROOT
ATOM      1  C   UNL     1       1.139   9.315  19.192  0.00  0.00    +0.000 C 
ENDROOT
BRANCH   1   2
ATOM      2  C   UNL     1       2.070   8.581  18.241  0.00  0.00    +0.000 C 
ATOM      3  O   UNL     1       2.256   8.976  17.091  0.00  0.00    +0.000 OA
ATOM      4  N   UNL     1       2.620   7.425  18.773  0.00  0.00    +0.000 N 
ATOM      5  H   UNL     1       1.982   6.877  19.344  0.00  0.00    +0.000 HD
BRANCH   4   6
ATOM      6  C   UNL     1       3.445   6.609  17.981  0.00  0.00    +0.000 A 
ATOM      7  N   UNL     1       4.541   7.246  17.509  0.00  0.00    +0.000 NA
ATOM      8  C   UNL     1       5.471   6.499  16.870  0.00  0.00    +0.000 A 
ATOM      9  C   UNL     1       5.343   5.138  16.630  0.00  0.00    +0.000 A 
ATOM     10  C   UNL     1       4.156   4.522  17.036  0.00  0.00    +0.000 A 
ATOM     11  C   UNL     1       3.184   5.261  17.713  0.00  0.00    +0.000 A 
ATOM     12 CL   UNL     1       1.676   4.490  18.055  0.00  0.00    +0.000 Cl
BRANCH   9  13
ATOM     13  C   UNL     1       6.436   4.367  15.959  0.00  0.00    +0.000 C 
ATOM     14  F   UNL     1       6.963   5.000  14.874  0.00  0.00    +0.000 F 
ATOM     15  F   UNL     1       7.485   4.123  16.791  0.00  0.00    +0.000 F 
ATOM     16  F   UNL     1       6.019   3.151  15.515  0.00  0.00    +0.000 F 
ENDBRANCH   9  13
ENDBRANCH   4   6
ENDBRANCH   1   2
BRANCH   1  17
ATOM     17  S   UNL     1       1.274  11.115  18.958  0.00  0.00    +0.000 S 
BRANCH  17  22
ATOM     18  N   UNL     1      -3.825  12.793  19.691  0.00  0.00    +0.000 N 
ATOM     19  C   UNL     1      -2.556  12.331  19.845  0.00  0.00    +0.000 A 
ATOM     20  N   UNL     1      -1.904  12.092  20.966  0.00  0.00    +0.000 NA
ATOM     21  N   UNL     1      -0.607  11.676  20.773  0.00  0.00    +0.000 NA
ATOM     22  C   UNL     1      -0.310  11.609  19.496  0.00  0.00    +0.000 A 
ATOM     23  S   UNL     1      -1.587  12.024  18.442  0.00  0.00    +0.000 S 
ATOM     24  H   UNL     1      -4.151  12.922  18.744  0.00  0.00    +0.000 HD
BRANCH  18  29
ATOM     25  C   UNL     1      -7.258  15.244  23.594  0.00  0.00    +0.000 C 
ATOM     26  C   UNL     1      -6.352  14.597  22.593  0.00  0.00    +0.000 A 
ATOM     27  C   UNL     1      -6.346  13.214  22.393  0.00  0.00    +0.000 A 
ATOM     28  C   UNL     1      -5.484  12.636  21.451  0.00  0.00    +0.000 A 
ATOM     29  C   UNL     1      -4.620  13.425  20.673  0.00  0.00    +0.000 A 
ATOM     30  C   UNL     1      -4.620  14.802  20.907  0.00  0.00    +0.000 A 
ATOM     31  C   UNL     1      -5.477  15.384  21.845  0.00  0.00    +0.000 A 
ENDBRANCH  18  29
ENDBRANCH  17  22
ENDBRANCH   1  17
TORSDOF 6
ENDMDL
MODEL 7
REMARK VINA RESULT:      -7.1      5.646      7.016
REMARK  Name = 
REMARK  7 active torsions:
REMARK  status: ('A' for Active; 'I' for Inactive)
REMARK    1  A    between atoms: C_1  and  C_2
REMARK    2  A    between atoms: C_5  and  N_6
REMARK    3  A    between atoms: C_10  and  S_11
REMARK    4  A    between atoms: S_11  and  C_12
REMARK    5  A    between atoms: C_12  and  C_13
REMARK    6  A    between atoms: N_15  and  C_16
REMARK    7  A    between atoms: C_19  and  C_20
REMARK                            x       y       z     vdW  Elec       q    Type
REMARK                         _______ _______ _______ _____ _____    ______ ____
ROOT
ATOM      1  C   UNL     1       2.240   3.994  21.472  0.00  0.00    +0.000 C 
ENDROOT
BRANCH   1   2
ATOM      2  C   UNL     1       1.557   5.171  20.794  0.00  0.00    +0.000 C 
ATOM      3  O   UNL     1       0.515   5.030  20.156  0.00  0.00    +0.000 OA
ATOM      4  N   UNL     1       2.244   6.369  20.919  0.00  0.00    +0.000 N 
ATOM      5  H   UNL     1       3.255   6.287  20.843  0.00  0.00    +0.000 HD
BRANCH   4   6
ATOM      6  C   UNL     1       1.764   7.526  20.284  0.00  0.00    +0.000 A 
ATOM      7  N   UNL     1       0.930   8.260  21.056  0.00  0.00    +0.000 NA
ATOM      8  C   UNL     1       0.545   9.469  20.586  0.00  0.00    +0.000 A 
ATOM      9  C   UNL     1       0.912   9.973  19.347  0.00  0.00    +0.000 A 
ATOM     10  C   UNL     1       1.691   9.154  18.523  0.00  0.00    +0.000 A 
ATOM     11  C   UNL     1       2.119   7.908  18.985  0.00  0.00    +0.000 A 
ATOM     12 CL   UNL     1       2.946   6.875  17.875  0.00  0.00    +0.000 Cl
BRANCH   9  13
ATOM     13  C   UNL     1       0.487  11.342  18.913  0.00  0.00    +0.000 C 
ATOM     14  F   UNL     1       1.375  11.949  18.078  0.00  0.00    +0.000 F 
ATOM     15  F   UNL     1      -0.700  11.328  18.247  0.00  0.00    +0.000 F 
ATOM     16  F   UNL     1       0.318  12.191  19.962  0.00  0.00    +0.000 F 
ENDBRANCH   9  13
ENDBRANCH   4   6
ENDBRANCH   1   2
BRANCH   1  17
ATOM     17  S   UNL     1       2.062   2.487  20.468  0.00  0.00    +0.000 S 
BRANCH  17  22
ATOM     18  N   UNL     1       6.084   4.115  17.223  0.00  0.00    +0.000 N 
ATOM     19  C   UNL     1       4.994   3.514  17.768  0.00  0.00    +0.000 A 
ATOM     20  N   UNL     1       4.122   2.716  17.183  0.00  0.00    +0.000 NA
ATOM     21  N   UNL     1       3.098   2.315  18.009  0.00  0.00    +0.000 NA
ATOM     22  C   UNL     1       3.226   2.824  19.212  0.00  0.00    +0.000 A 
ATOM     23  S   UNL     1       4.605   3.806  19.431  0.00  0.00    +0.000 S 
ATOM     24  H   UNL     1       6.634   4.703  17.833  0.00  0.00    +0.000 HD
BRANCH  18  29
ATOM     25  C   UNL     1       7.200   4.571  11.603  0.00  0.00    +0.000 C 
ATOM     26  C   UNL     1       6.890   4.462  13.065  0.00  0.00    +0.000 A 
ATOM     27  C   UNL     1       5.893   3.609  13.543  0.00  0.00    +0.000 A 
ATOM     28  C   UNL     1       5.623   3.530  14.916  0.00  0.00    +0.000 A 
ATOM     29  C   UNL     1       6.354   4.288  15.847  0.00  0.00    +0.000 A 
ATOM     30  C   UNL     1       7.329   5.155  15.347  0.00  0.00    +0.000 A 
ATOM     31  C   UNL     1       7.602   5.238  13.979  0.00  0.00    +0.000 A 
ENDBRANCH  18  29
ENDBRANCH  17  22
ENDBRANCH   1  17
TORSDOF 6
ENDMDL
MODEL 8
REMARK VINA RESULT:      -7.1      7.473     11.276
REMARK  Name = 
REMARK  7 active torsions:
REMARK  status: ('A' for Active; 'I' for Inactive)
REMARK    1  A    between atoms: C_1  and  C_2
REMARK    2  A    between atoms: C_5  and  N_6
REMARK    3  A    between atoms: C_10  and  S_11
REMARK    4  A    between atoms: S_11  and  C_12
REMARK    5  A    between atoms: C_12  and  C_13
REMARK    6  A    between atoms: N_15  and  C_16
REMARK    7  A    between atoms: C_19  and  C_20
REMARK                            x       y       z     vdW  Elec       q    Type
REMARK                         _______ _______ _______ _____ _____    ______ ____
ROOT
ATOM      1  C   UNL     1       1.468   8.231  20.979  0.00  0.00    +0.000 C 
ENDROOT
BRANCH   1   2
ATOM      2  C   UNL     1       2.042   7.748  19.656  0.00  0.00    +0.000 C 
ATOM      3  O   UNL     1       1.736   8.280  18.590  0.00  0.00    +0.000 OA
ATOM      4  N   UNL     1       2.874   6.645  19.772  0.00  0.00    +0.000 N 
ATOM      5  H   UNL     1       2.562   5.950  20.446  0.00  0.00    +0.000 HD
BRANCH   4   6
ATOM      6  C   UNL     1       3.420   6.051  18.623  0.00  0.00    +0.000 A 
ATOM      7  N   UNL     1       4.424   6.768  18.069  0.00  0.00    +0.000 NA
ATOM      8  C   UNL     1       5.114   6.196  17.054  0.00  0.00    +0.000 A 
ATOM      9  C   UNL     1       4.819   4.950  16.520  0.00  0.00    +0.000 A 
ATOM     10  C   UNL     1       3.712   4.272  17.039  0.00  0.00    +0.000 A 
ATOM     11  C   UNL     1       2.991   4.826  18.098  0.00  0.00    +0.000 A 
ATOM     12 CL   UNL     1       1.546   4.022  18.599  0.00  0.00    +0.000 Cl
BRANCH   9  13
ATOM     13  C   UNL     1       5.657   4.362  15.428  0.00  0.00    +0.000 C 
ATOM     14  F   UNL     1       5.077   4.434  14.197  0.00  0.00    +0.000 F 
ATOM     15  F   UNL     1       6.862   4.982  15.307  0.00  0.00    +0.000 F 
ATOM     16  F   UNL     1       5.932   3.046  15.634  0.00  0.00    +0.000 F 
ENDBRANCH   9  13
ENDBRANCH   4   6
ENDBRANCH   1   2
BRANCH   1  17
ATOM     17  S   UNL     1      -0.076   9.153  20.707  0.00  0.00    +0.000 S 
BRANCH  17  22
ATOM     18  N   UNL     1       1.591  13.985  18.909  0.00  0.00    +0.000 N 
ATOM     19  C   UNL     1       1.305  12.884  19.653  0.00  0.00    +0.000 A 
ATOM     20  N   UNL     1       1.673  12.616  20.891  0.00  0.00    +0.000 NA
ATOM     21  N   UNL     1       1.255  11.384  21.338  0.00  0.00    +0.000 NA
ATOM     22  C   UNL     1       0.572  10.747  20.416  0.00  0.00    +0.000 A 
ATOM     23  S   UNL     1       0.372  11.603  18.953  0.00  0.00    +0.000 S 
ATOM     24  H   UNL     1       1.224  14.007  17.968  0.00  0.00    +0.000 HD
BRANCH  18  29
ATOM     25  C   UNL     1       5.851  17.674  20.038  0.00  0.00    +0.000 C 
ATOM     26  C   UNL     1       4.742  16.718  19.723  0.00  0.00    +0.000 A 
ATOM     27  C   UNL     1       4.973  15.528  19.028  0.00  0.00    +0.000 A 
ATOM     28  C   UNL     1       3.916  14.653  18.744  0.00  0.00    +0.000 A 
ATOM     29  C   UNL     1       2.604  14.937  19.163  0.00  0.00    +0.000 A 
ATOM     30  C   UNL     1       2.388  16.144  19.832  0.00  0.00    +0.000 A 
ATOM     31  C   UNL     1       3.439  17.020  20.117  0.00  0.00    +0.000 A 
ENDBRANCH  18  29
ENDBRANCH  17  22
ENDBRANCH   1  17
TORSDOF 6
ENDMDL
MODEL 9
REMARK VINA RESULT:      -7.0      6.689     12.304
REMARK  Name = 
REMARK  7 active torsions:
REMARK  status: ('A' for Active; 'I' for Inactive)
REMARK    1  A    between atoms: C_1  and  C_2
REMARK    2  A    between atoms: C_5  and  N_6
REMARK    3  A    between atoms: C_10  and  S_11
REMARK    4  A    between atoms: S_11  and  C_12
REMARK    5  A    between atoms: C_12  and  C_13
REMARK    6  A    between atoms: N_15  and  C_16
REMARK    7  A    between atoms: C_19  and  C_20
REMARK                            x       y       z     vdW  Elec       q    Type
REMARK                         _______ _______ _______ _____ _____    ______ ____
ROOT
ATOM      1  C   UNL     1       1.120   7.663  21.127  0.00  0.00    +0.000 C 
ENDROOT
BRANCH   1   2
ATOM      2  C   UNL     1       2.021   7.387  19.934  0.00  0.00    +0.000 C 
ATOM      3  O   UNL     1       2.091   8.169  18.987  0.00  0.00    +0.000 OA
ATOM      4  N   UNL     1       2.686   6.172  19.999  0.00  0.00    +0.000 N 
ATOM      5  H   UNL     1       2.131   5.406  20.374  0.00  0.00    +0.000 HD
BRANCH   4   6
ATOM      6  C   UNL     1       3.499   5.756  18.933  0.00  0.00    +0.000 A 
ATOM      7  N   UNL     1       4.761   6.240  18.995  0.00  0.00    +0.000 NA
ATOM      8  C   UNL     1       5.656   5.766  18.097  0.00  0.00    +0.000 A 
ATOM      9  C   UNL     1       5.345   4.859  17.095  0.00  0.00    +0.000 A 
ATOM     10  C   UNL     1       4.012   4.451  16.986  0.00  0.00    +0.000 A 
ATOM     11  C   UNL     1       3.067   4.908  17.906  0.00  0.00    +0.000 A 
ATOM     12 CL   UNL     1       1.411   4.498  17.635  0.00  0.00    +0.000 Cl
BRANCH   9  13
ATOM     13  C   UNL     1       6.400   4.341  16.167  0.00  0.00    +0.000 C 
ATOM     14  F   UNL     1       7.607   4.148  16.768  0.00  0.00    +0.000 F 
ATOM     15  F   UNL     1       6.064   3.143  15.616  0.00  0.00    +0.000 F 
ATOM     16  F   UNL     1       6.633   5.181  15.123  0.00  0.00    +0.000 F 
ENDBRANCH   9  13
ENDBRANCH   4   6
ENDBRANCH   1   2
BRANCH   1  17
ATOM     17  S   UNL     1       1.760   9.060  22.102  0.00  0.00    +0.000 S 
BRANCH  17  22
ATOM     18  N   UNL     1      -2.481  12.321  21.242  0.00  0.00    +0.000 N 
ATOM     19  C   UNL     1      -1.537  11.503  21.776  0.00  0.00    +0.000 A 
ATOM     20  N   UNL     1      -1.349  11.190  23.044  0.00  0.00    +0.000 NA
ATOM     21  N   UNL     1      -0.265  10.370  23.256  0.00  0.00    +0.000 NA
ATOM     22  C   UNL     1       0.344  10.080  22.131  0.00  0.00    +0.000 A 
ATOM     23  S   UNL     1      -0.365  10.762  20.736  0.00  0.00    +0.000 S 
ATOM     24  H   UNL     1      -2.461  12.446  20.240  0.00  0.00    +0.000 HD
BRANCH  18  29
ATOM     25  C   UNL     1      -5.874  16.023  24.037  0.00  0.00    +0.000 C 
ATOM     26  C   UNL     1      -4.977  15.057  23.326  0.00  0.00    +0.000 A 
ATOM     27  C   UNL     1      -4.875  13.721  23.720  0.00  0.00    +0.000 A 
ATOM     28  C   UNL     1      -4.025  12.841  23.037  0.00  0.00    +0.000 A 
ATOM     29  C   UNL     1      -3.267  13.270  21.933  0.00  0.00    +0.000 A 
ATOM     30  C   UNL     1      -3.361  14.616  21.571  0.00  0.00    +0.000 A 
ATOM     31  C   UNL     1      -4.208  15.497  22.249  0.00  0.00    +0.000 A 
ENDBRANCH  18  29
ENDBRANCH  17  22
ENDBRANCH   1  17
TORSDOF 6
ENDMDL
