MODEL 1
REMARK VINA RESULT:      -7.5      0.000      0.000
REMARK  Name = 
REMARK  10 active torsions:
REMARK  status: ('A' for Active; 'I' for Inactive)
REMARK    1  A    between atoms: C_1  and  C_2
REMARK    2  A    between atoms: C_2  and  N_3
REMARK    3  A    between atoms: C_7  and  C_8
REMARK    4  A    between atoms: C_8  and  C_9
REMARK    5  A    between atoms: C_8  and  N_10
REMARK    6  A    between atoms: C_11  and  C_13
REMARK    7  A    between atoms: C_13  and  N_14
REMARK    8  A    between atoms: C_16  and  C_17
REMARK    9  A    between atoms: N_23  and  C_24
REMARK   10  A    between atoms: C_24  and  C_25
REMARK                            x       y       z     vdW  Elec       q    Type
REMARK                         _______ _______ _______ _____ _____    ______ ____
ROOT
ATOM      1  C   UNL     1       5.994   4.724  16.651  0.00  0.00    +0.000 C 
ENDROOT
BRANCH   1   2
ATOM      2  N   UNL     1       4.780   5.074  17.354  0.00  0.00    +0.000 N 
ATOM      3  N   UNL     1       4.407   6.345  17.728  0.00  0.00    +0.000 NA
ATOM      4  C   UNL     1       3.204   6.205  18.232  0.00  0.00    +0.000 A 
ATOM      5  N   UNL     1       2.762   4.899  18.214  0.00  0.00    +0.000 N 
ATOM      6  C   UNL     1       3.769   4.167  17.627  0.00  0.00    +0.000 A 
ATOM      7  O   UNL     1       3.801   2.974  17.385  0.00  0.00    +0.000 OA
BRANCH   4   8
ATOM      8  C   UNL     1       2.410   7.378  18.757  0.00  0.00    +0.000 A 
ATOM      9  C   UNL     1       2.001   8.375  17.853  0.00  0.00    +0.000 A 
ATOM     10  C   UNL     1       1.253   9.487  18.282  0.00  0.00    +0.000 A 
ATOM     11  C   UNL     1       0.895   9.626  19.620  0.00  0.00    +0.000 A 
ATOM     12  C   UNL     1       1.287   8.658  20.528  0.00  0.00    +0.000 A 
ATOM     13  C   UNL     1       2.032   7.555  20.097  0.00  0.00    +0.000 A 
ENDBRANCH   4   8
BRANCH   5  14
ATOM     14  C   UNL     1       1.508   4.332  18.671  0.00  0.00    +0.000 C 
ATOM     15  C   UNL     1       1.395   3.827  20.095  0.00  0.00    +0.000 C 
ENDBRANCH   5  14
ENDBRANCH   1   2
BRANCH   1  17
ATOM     16  N   UNL     1       6.586   4.268  14.306  0.00  0.00    +0.000 N 
ATOM     17  C   UNL     1       5.959   5.124  15.178  0.00  0.00    +0.000 C 
ATOM     18  O   UNL     1       5.517   6.213  14.811  0.00  0.00    +0.000 OA
ATOM     19  H   UNL     1       6.985   3.399  14.658  0.00  0.00    +0.000 HD
BRANCH  16  20
ATOM     20  C   UNL     1       6.711   4.569  12.894  0.00  0.00    +0.000 C 
ATOM     21  C   UNL     1       8.033   5.270  12.593  0.00  0.00    +0.000 C 
BRANCH  20  26
ATOM     22  N   UNL     1       5.409   2.787  11.663  0.00  0.00    +0.000 N 
ATOM     23  N   UNL     1       5.601   1.629  11.003  0.00  0.00    +0.000 NA
ATOM     24  C   UNL     1       6.921   1.474  11.113  0.00  0.00    +0.000 A 
ATOM     25  N   UNL     1       7.571   2.464  11.792  0.00  0.00    +0.000 NA
ATOM     26  C   UNL     1       6.595   3.291  12.130  0.00  0.00    +0.000 A 
BRANCH  22  28
ATOM     27  C   UNL     1       3.358   3.409  10.444  0.00  0.00    +0.000 C 
ATOM     28  C   UNL     1       4.075   3.339  11.780  0.00  0.00    +0.000 C 
ENDBRANCH  22  28
ENDBRANCH  20  26
ENDBRANCH  16  20
ENDBRANCH   1  17
TORSDOF 7
ENDMDL
MODEL 2
REMARK VINA RESULT:      -7.3      4.184      8.654
REMARK  Name = 
REMARK  10 active torsions:
REMARK  status: ('A' for Active; 'I' for Inactive)
REMARK    1  A    between atoms: C_1  and  C_2
REMARK    2  A    between atoms: C_2  and  N_3
REMARK    3  A    between atoms: C_7  and  C_8
REMARK    4  A    between atoms: C_8  and  C_9
REMARK    5  A    between atoms: C_8  and  N_10
REMARK    6  A    between atoms: C_11  and  C_13
REMARK    7  A    between atoms: C_13  and  N_14
REMARK    8  A    between atoms: C_16  and  C_17
REMARK    9  A    between atoms: N_23  and  C_24
REMARK   10  A    between atoms: C_24  and  C_25
REMARK                            x       y       z     vdW  Elec       q    Type
REMARK                         _______ _______ _______ _____ _____    ______ ____
ROOT
ATOM      1  C   UNL     1       1.480   6.483  21.053  0.00  0.00    +0.000 C 
ENDROOT
BRANCH   1   2
ATOM      2  N   UNL     1       2.130   5.742  19.996  0.00  0.00    +0.000 N 
ATOM      3  N   UNL     1       3.298   6.102  19.364  0.00  0.00    +0.000 NA
ATOM      4  C   UNL     1       3.570   5.098  18.565  0.00  0.00    +0.000 A 
ATOM      5  N   UNL     1       2.634   4.088  18.634  0.00  0.00    +0.000 N 
ATOM      6  C   UNL     1       1.712   4.490  19.575  0.00  0.00    +0.000 A 
ATOM      7  O   UNL     1       0.726   3.899  19.975  0.00  0.00    +0.000 OA
BRANCH   4   8
ATOM      8  C   UNL     1       4.796   5.079  17.682  0.00  0.00    +0.000 A 
ATOM      9  C   UNL     1       6.025   4.691  18.245  0.00  0.00    +0.000 A 
ATOM     10  C   UNL     1       7.200   4.647  17.472  0.00  0.00    +0.000 A 
ATOM     11  C   UNL     1       7.173   4.985  16.122  0.00  0.00    +0.000 A 
ATOM     12  C   UNL     1       5.975   5.371  15.547  0.00  0.00    +0.000 A 
ATOM     13  C   UNL     1       4.809   5.414  16.320  0.00  0.00    +0.000 A 
ENDBRANCH   4   8
BRANCH   5  14
ATOM     14  C   UNL     1       2.568   2.826  17.923  0.00  0.00    +0.000 C 
ATOM     15  C   UNL     1       3.425   1.665  18.385  0.00  0.00    +0.000 C 
ENDBRANCH   5  14
ENDBRANCH   1   2
BRANCH   1  17
ATOM     16  N   UNL     1       1.290   8.348  19.457  0.00  0.00    +0.000 N 
ATOM     17  C   UNL     1       1.423   7.984  20.774  0.00  0.00    +0.000 C 
ATOM     18  O   UNL     1       1.623   8.816  21.660  0.00  0.00    +0.000 OA
ATOM     19  H   UNL     1       1.178   7.625  18.748  0.00  0.00    +0.000 HD
BRANCH  16  20
ATOM     20  C   UNL     1       1.316   9.735  19.040  0.00  0.00    +0.000 C 
ATOM     21  C   UNL     1       2.213   9.928  17.819  0.00  0.00    +0.000 C 
BRANCH  20  26
ATOM     22  N   UNL     1      -0.834  10.944  19.593  0.00  0.00    +0.000 N 
ATOM     23  N   UNL     1      -2.054  11.182  19.076  0.00  0.00    +0.000 NA
ATOM     24  C   UNL     1      -1.992  10.512  17.924  0.00  0.00    +0.000 A 
ATOM     25  N   UNL     1      -0.810   9.875  17.682  0.00  0.00    +0.000 NA
ATOM     26  C   UNL     1      -0.085  10.164  18.749  0.00  0.00    +0.000 A 
BRANCH  22  28
ATOM     27  C   UNL     1      -1.641  12.177  21.569  0.00  0.00    +0.000 C 
ATOM     28  C   UNL     1      -0.468  11.510  20.874  0.00  0.00    +0.000 C 
ENDBRANCH  22  28
ENDBRANCH  20  26
ENDBRANCH  16  20
ENDBRANCH   1  17
TORSDOF 7
ENDMDL
MODEL 3
REMARK VINA RESULT:      -7.0      5.194      8.067
REMARK  Name = 
REMARK  10 active torsions:
REMARK  status: ('A' for Active; 'I' for Inactive)
REMARK    1  A    between atoms: C_1  and  C_2
REMARK    2  A    between atoms: C_2  and  N_3
REMARK    3  A    between atoms: C_7  and  C_8
REMARK    4  A    between atoms: C_8  and  C_9
REMARK    5  A    between atoms: C_8  and  N_10
REMARK    6  A    between atoms: C_11  and  C_13
REMARK    7  A    between atoms: C_13  and  N_14
REMARK    8  A    between atoms: C_16  and  C_17
REMARK    9  A    between atoms: N_23  and  C_24
REMARK   10  A    between atoms: C_24  and  C_25
REMARK                            x       y       z     vdW  Elec       q    Type
REMARK                         _______ _______ _______ _____ _____    ______ ____
ROOT
ATOM      1  C   UNL     1       1.319   8.980  20.837  0.00  0.00    +0.000 C 
ENDROOT
BRANCH   1   2
ATOM      2  N   UNL     1       0.491   9.987  20.211  0.00  0.00    +0.000 N 
ATOM      3  N   UNL     1      -0.572   9.744  19.371  0.00  0.00    +0.000 NA
ATOM      4  C   UNL     1      -1.089  10.926  19.135  0.00  0.00    +0.000 A 
ATOM      5  N   UNL     1      -0.416  11.945  19.776  0.00  0.00    +0.000 N 
ATOM      6  C   UNL     1       0.593  11.340  20.491  0.00  0.00    +0.000 A 
ATOM      7  O   UNL     1       1.420  11.853  21.223  0.00  0.00    +0.000 OA
BRANCH   4   8
ATOM      8  C   UNL     1      -2.303  11.113  18.255  0.00  0.00    +0.000 A 
ATOM      9  C   UNL     1      -3.487  11.603  18.835  0.00  0.00    +0.000 A 
ATOM     10  C   UNL     1      -4.647  11.805  18.066  0.00  0.00    +0.000 A 
ATOM     11  C   UNL     1      -4.650  11.526  16.702  0.00  0.00    +0.000 A 
ATOM     12  C   UNL     1      -3.497  11.043  16.110  0.00  0.00    +0.000 A 
ATOM     13  C   UNL     1      -2.346  10.842  16.879  0.00  0.00    +0.000 A 
ENDBRANCH   4   8
BRANCH   5  14
ATOM     14  C   UNL     1      -0.665  13.373  19.774  0.00  0.00    +0.000 C 
ATOM     15  C   UNL     1      -0.141  14.219  18.631  0.00  0.00    +0.000 C 
ENDBRANCH   5  14
ENDBRANCH   1   2
BRANCH   1  17
ATOM     16  N   UNL     1       2.078   6.682  20.389  0.00  0.00    +0.000 N 
ATOM     17  C   UNL     1       1.799   7.915  19.853  0.00  0.00    +0.000 C 
ATOM     18  O   UNL     1       2.052   8.184  18.678  0.00  0.00    +0.000 OA
ATOM     19  H   UNL     1       1.902   6.515  21.379  0.00  0.00    +0.000 HD
BRANCH  16  20
ATOM     20  C   UNL     1       2.630   5.607  19.589  0.00  0.00    +0.000 C 
ATOM     21  C   UNL     1       4.151   5.710  19.500  0.00  0.00    +0.000 C 
BRANCH  20  26
ATOM     22  N   UNL     1       2.008   3.160  19.478  0.00  0.00    +0.000 N 
ATOM     23  N   UNL     1       1.649   2.141  20.282  0.00  0.00    +0.000 NA
ATOM     24  C   UNL     1       1.643   2.734  21.477  0.00  0.00    +0.000 A 
ATOM     25  N   UNL     1       1.981   4.056  21.476  0.00  0.00    +0.000 NA
ATOM     26  C   UNL     1       2.214   4.308  20.199  0.00  0.00    +0.000 A 
BRANCH  22  28
ATOM     27  C   UNL     1       3.520   2.422  17.676  0.00  0.00    +0.000 C 
ATOM     28  C   UNL     1       2.145   2.942  18.053  0.00  0.00    +0.000 C 
ENDBRANCH  22  28
ENDBRANCH  20  26
ENDBRANCH  16  20
ENDBRANCH   1  17
TORSDOF 7
ENDMDL
MODEL 4
REMARK VINA RESULT:      -7.0      4.376      9.329
REMARK  Name = 
REMARK  10 active torsions:
REMARK  status: ('A' for Active; 'I' for Inactive)
REMARK    1  A    between atoms: C_1  and  C_2
REMARK    2  A    between atoms: C_2  and  N_3
REMARK    3  A    between atoms: C_7  and  C_8
REMARK    4  A    between atoms: C_8  and  C_9
REMARK    5  A    between atoms: C_8  and  N_10
REMARK    6  A    between atoms: C_11  and  C_13
REMARK    7  A    between atoms: C_13  and  N_14
REMARK    8  A    between atoms: C_16  and  C_17
REMARK    9  A    between atoms: N_23  and  C_24
REMARK   10  A    between atoms: C_24  and  C_25
REMARK                            x       y       z     vdW  Elec       q    Type
REMARK                         _______ _______ _______ _____ _____    ______ ____
ROOT
ATOM      1  C   UNL     1       2.415   9.087  17.653  0.00  0.00    +0.000 C 
ENDROOT
BRANCH   1   2
ATOM      2  N   UNL     1       2.750   7.731  18.026  0.00  0.00    +0.000 N 
ATOM      3  N   UNL     1       2.052   6.947  18.915  0.00  0.00    +0.000 NA
ATOM      4  C   UNL     1       2.641   5.776  18.863  0.00  0.00    +0.000 A 
ATOM      5  N   UNL     1       3.703   5.748  17.984  0.00  0.00    +0.000 N 
ATOM      6  C   UNL     1       3.764   7.003  17.423  0.00  0.00    +0.000 A 
ATOM      7  O   UNL     1       4.532   7.423  16.577  0.00  0.00    +0.000 OA
BRANCH   4   8
ATOM      8  C   UNL     1       2.172   4.601  19.688  0.00  0.00    +0.000 A 
ATOM      9  C   UNL     1       2.611   4.493  21.019  0.00  0.00    +0.000 A 
ATOM     10  C   UNL     1       2.202   3.425  21.839  0.00  0.00    +0.000 A 
ATOM     11  C   UNL     1       1.343   2.445  21.349  0.00  0.00    +0.000 A 
ATOM     12  C   UNL     1       0.899   2.530  20.042  0.00  0.00    +0.000 A 
ATOM     13  C   UNL     1       1.310   3.593  19.230  0.00  0.00    +0.000 A 
ENDBRANCH   4   8
BRANCH   5  14
ATOM     14  C   UNL     1       4.602   4.662  17.641  0.00  0.00    +0.000 C 
ATOM     15  C   UNL     1       6.007   4.652  18.207  0.00  0.00    +0.000 C 
ENDBRANCH   5  14
ENDBRANCH   1   2
BRANCH   1  17
ATOM     16  N   UNL     1       1.101   9.732  19.632  0.00  0.00    +0.000 N 
ATOM     17  C   UNL     1       1.101   9.562  18.270  0.00  0.00    +0.000 C 
ATOM     18  O   UNL     1       0.068   9.653  17.605  0.00  0.00    +0.000 OA
ATOM     19  H   UNL     1       1.967   9.596  20.153  0.00  0.00    +0.000 HD
BRANCH  16  20
ATOM     20  C   UNL     1      -0.100  10.088  20.359  0.00  0.00    +0.000 C 
ATOM     21  C   UNL     1      -0.243   9.256  21.632  0.00  0.00    +0.000 C 
BRANCH  20  26
ATOM     22  N   UNL     1      -0.712  12.508  19.962  0.00  0.00    +0.000 N 
ATOM     23  N   UNL     1      -0.487  13.733  20.472  0.00  0.00    +0.000 NA
ATOM     24  C   UNL     1       0.336  13.455  21.484  0.00  0.00    +0.000 A 
ATOM     25  N   UNL     1       0.635  12.134  21.647  0.00  0.00    +0.000 NA
ATOM     26  C   UNL     1      -0.043  11.547  20.675  0.00  0.00    +0.000 A 
BRANCH  22  28
ATOM     27  C   UNL     1      -3.010  12.014  19.217  0.00  0.00    +0.000 C 
ATOM     28  C   UNL     1      -1.585  12.350  18.817  0.00  0.00    +0.000 C 
ENDBRANCH  22  28
ENDBRANCH  20  26
ENDBRANCH  16  20
ENDBRANCH   1  17
TORSDOF 7
ENDMDL
MODEL 5
REMARK VINA RESULT:      -6.9      4.486      9.494
REMARK  Name = 
REMARK  10 active torsions:
REMARK  status: ('A' for Active; 'I' for Inactive)
REMARK    1  A    between atoms: C_1  and  C_2
REMARK    2  A    between atoms: C_2  and  N_3
REMARK    3  A    between atoms: C_7  and  C_8
REMARK    4  A    between atoms: C_8  and  C_9
REMARK    5  A    between atoms: C_8  and  N_10
REMARK    6  A    between atoms: C_11  and  C_13
REMARK    7  A    between atoms: C_13  and  N_14
REMARK    8  A    between atoms: C_16  and  C_17
REMARK    9  A    between atoms: N_23  and  C_24
REMARK   10  A    between atoms: C_24  and  C_25
REMARK                            x       y       z     vdW  Elec       q    Type
REMARK                         _______ _______ _______ _____ _____    ______ ____
ROOT
ATOM      1  C   UNL     1       2.222   9.257  17.798  0.00  0.00    +0.000 C 
ENDROOT
BRANCH   1   2
ATOM      2  N   UNL     1       2.605   7.910  18.157  0.00  0.00    +0.000 N 
ATOM      3  N   UNL     1       1.950   7.102  19.058  0.00  0.00    +0.000 NA
ATOM      4  C   UNL     1       2.572   5.949  18.986  0.00  0.00    +0.000 A 
ATOM      5  N   UNL     1       3.613   5.955  18.083  0.00  0.00    +0.000 N 
ATOM      6  C   UNL     1       3.625   7.215  17.527  0.00  0.00    +0.000 A 
ATOM      7  O   UNL     1       4.361   7.660  16.665  0.00  0.00    +0.000 OA
BRANCH   4   8
ATOM      8  C   UNL     1       2.155   4.757  19.816  0.00  0.00    +0.000 A 
ATOM      9  C   UNL     1       1.294   3.805  19.243  0.00  0.00    +0.000 A 
ATOM     10  C   UNL     1       0.877   2.670  19.963  0.00  0.00    +0.000 A 
ATOM     11  C   UNL     1       1.314   2.460  21.268  0.00  0.00    +0.000 A 
ATOM     12  C   UNL     1       2.161   3.384  21.853  0.00  0.00    +0.000 A 
ATOM     13  C   UNL     1       2.572   4.512  21.133  0.00  0.00    +0.000 A 
ENDBRANCH   4   8
BRANCH   5  14
ATOM     14  C   UNL     1       4.534   4.898  17.714  0.00  0.00    +0.000 C 
ATOM     15  C   UNL     1       5.693   4.566  18.631  0.00  0.00    +0.000 C 
ENDBRANCH   5  14
ENDBRANCH   1   2
BRANCH   1  17
ATOM     16  N   UNL     1       1.172   9.860  19.942  0.00  0.00    +0.000 N 
ATOM     17  C   UNL     1       1.010   9.756  18.582  0.00  0.00    +0.000 C 
ATOM     18  O   UNL     1      -0.086   9.922  18.045  0.00  0.00    +0.000 OA
ATOM     19  H   UNL     1       2.083   9.663  20.353  0.00  0.00    +0.000 HD
BRANCH  16  20
ATOM     20  C   UNL     1       0.078  10.229  20.817  0.00  0.00    +0.000 C 
ATOM     21  C   UNL     1       0.137   9.456  22.132  0.00  0.00    +0.000 C 
BRANCH  20  26
ATOM     22  N   UNL     1      -0.937  12.539  20.970  0.00  0.00    +0.000 N 
ATOM     23  N   UNL     1      -0.588  13.811  21.243  0.00  0.00    +0.000 NA
ATOM     24  C   UNL     1       0.719  13.686  21.477  0.00  0.00    +0.000 A 
ATOM     25  N   UNL     1       1.212  12.417  21.374  0.00  0.00    +0.000 NA
ATOM     26  C   UNL     1       0.146  11.702  21.057  0.00  0.00    +0.000 A 
BRANCH  22  28
ATOM     27  C   UNL     1      -2.571  12.156  19.164  0.00  0.00    +0.000 C 
ATOM     28  C   UNL     1      -2.314  12.218  20.659  0.00  0.00    +0.000 C 
ENDBRANCH  22  28
ENDBRANCH  20  26
ENDBRANCH  16  20
ENDBRANCH   1  17
TORSDOF 7
ENDMDL
MODEL 6
REMARK VINA RESULT:      -6.9      4.583      8.790
REMARK  Name = 
REMARK  10 active torsions:
REMARK  status: ('A' for Active; 'I' for Inactive)
REMARK    1  A    between atoms: C_1  and  C_2
REMARK    2  A    between atoms: C_2  and  N_3
REMARK    3  A    between atoms: C_7  and  C_8
REMARK    4  A    between atoms: C_8  and  C_9
REMARK    5  A    between atoms: C_8  and  N_10
REMARK    6  A    between atoms: C_11  and  C_13
REMARK    7  A    between atoms: C_13  and  N_14
REMARK    8  A    between atoms: C_16  and  C_17
REMARK    9  A    between atoms: N_23  and  C_24
REMARK   10  A    between atoms: C_24  and  C_25
REMARK                            x       y       z     vdW  Elec       q    Type
REMARK                         _______ _______ _______ _____ _____    ______ ____
ROOT
ATOM      1  C   UNL     1       1.078   6.937  21.174  0.00  0.00    +0.000 C 
ENDROOT
BRANCH   1   2
ATOM      2  N   UNL     1       1.946   6.138  20.338  0.00  0.00    +0.000 N 
ATOM      3  N   UNL     1       2.971   6.617  19.556  0.00  0.00    +0.000 NA
ATOM      4  C   UNL     1       3.548   5.545  19.067  0.00  0.00    +0.000 A 
ATOM      5  N   UNL     1       2.950   4.375  19.486  0.00  0.00    +0.000 N 
ATOM      6  C   UNL     1       1.927   4.752  20.326  0.00  0.00    +0.000 A 
ATOM      7  O   UNL     1       1.149   4.048  20.943  0.00  0.00    +0.000 OA
BRANCH   4   8
ATOM      8  C   UNL     1       4.747   5.622  18.152  0.00  0.00    +0.000 A 
ATOM      9  C   UNL     1       6.031   5.482  18.710  0.00  0.00    +0.000 A 
ATOM     10  C   UNL     1       7.185   5.537  17.907  0.00  0.00    +0.000 A 
ATOM     11  C   UNL     1       7.084   5.729  16.532  0.00  0.00    +0.000 A 
ATOM     12  C   UNL     1       5.831   5.870  15.961  0.00  0.00    +0.000 A 
ATOM     13  C   UNL     1       4.686   5.816  16.764  0.00  0.00    +0.000 A 
ENDBRANCH   4   8
BRANCH   5  14
ATOM     14  C   UNL     1       3.279   2.996  19.177  0.00  0.00    +0.000 C 
ATOM     15  C   UNL     1       4.352   2.289  19.980  0.00  0.00    +0.000 C 
ENDBRANCH   5  14
ENDBRANCH   1   2
BRANCH   1  17
ATOM     16  N   UNL     1       0.984   8.842  19.618  0.00  0.00    +0.000 N 
ATOM     17  C   UNL     1       1.217   8.435  20.908  0.00  0.00    +0.000 C 
ATOM     18  O   UNL     1       1.645   9.209  21.765  0.00  0.00    +0.000 OA
ATOM     19  H   UNL     1       0.681   8.159  18.925  0.00  0.00    +0.000 HD
BRANCH  16  20
ATOM     20  C   UNL     1       1.171  10.218  19.204  0.00  0.00    +0.000 C 
ATOM     21  C   UNL     1       2.064  10.307  17.968  0.00  0.00    +0.000 C 
BRANCH  20  26
ATOM     22  N   UNL     1      -0.496  12.118  19.220  0.00  0.00    +0.000 N 
ATOM     23  N   UNL     1      -1.769  12.386  18.872  0.00  0.00    +0.000 NA
ATOM     24  C   UNL     1      -2.171  11.205  18.399  0.00  0.00    +0.000 A 
ATOM     25  N   UNL     1      -1.231  10.216  18.420  0.00  0.00    +0.000 NA
ATOM     26  C   UNL     1      -0.173  10.815  18.940  0.00  0.00    +0.000 A 
BRANCH  22  28
ATOM     27  C   UNL     1       1.054  13.970  18.726  0.00  0.00    +0.000 C 
ATOM     28  C   UNL     1       0.333  13.160  19.788  0.00  0.00    +0.000 C 
ENDBRANCH  22  28
ENDBRANCH  20  26
ENDBRANCH  16  20
ENDBRANCH   1  17
TORSDOF 7
ENDMDL
MODEL 7
REMARK VINA RESULT:      -6.9      4.244      9.093
REMARK  Name = 
REMARK  10 active torsions:
REMARK  status: ('A' for Active; 'I' for Inactive)
REMARK    1  A    between atoms: C_1  and  C_2
REMARK    2  A    between atoms: C_2  and  N_3
REMARK    3  A    between atoms: C_7  and  C_8
REMARK    4  A    between atoms: C_8  and  C_9
REMARK    5  A    between atoms: C_8  and  N_10
REMARK    6  A    between atoms: C_11  and  C_13
REMARK    7  A    between atoms: C_13  and  N_14
REMARK    8  A    between atoms: C_16  and  C_17
REMARK    9  A    between atoms: N_23  and  C_24
REMARK   10  A    between atoms: C_24  and  C_25
REMARK                            x       y       z     vdW  Elec       q    Type
REMARK                         _______ _______ _______ _____ _____    ______ ____
ROOT
ATOM      1  C   UNL     1       2.630   9.104  17.192  0.00  0.00    +0.000 C 
ENDROOT
BRANCH   1   2
ATOM      2  N   UNL     1       2.958   7.819  17.767  0.00  0.00    +0.000 N 
ATOM      3  N   UNL     1       2.149   7.084  18.602  0.00  0.00    +0.000 NA
ATOM      4  C   UNL     1       2.794   5.956  18.785  0.00  0.00    +0.000 A 
ATOM      5  N   UNL     1       3.997   5.910  18.112  0.00  0.00    +0.000 N 
ATOM      6  C   UNL     1       4.097   7.104  17.434  0.00  0.00    +0.000 A 
ATOM      7  O   UNL     1       4.984   7.486  16.693  0.00  0.00    +0.000 OA
BRANCH   4   8
ATOM      8  C   UNL     1       2.241   4.841  19.641  0.00  0.00    +0.000 A 
ATOM      9  C   UNL     1       1.342   3.928  19.061  0.00  0.00    +0.000 A 
ATOM     10  C   UNL     1       0.800   2.865  19.806  0.00  0.00    +0.000 A 
ATOM     11  C   UNL     1       1.144   2.688  21.143  0.00  0.00    +0.000 A 
ATOM     12  C   UNL     1       2.025   3.575  21.735  0.00  0.00    +0.000 A 
ATOM     13  C   UNL     1       2.561   4.632  20.991  0.00  0.00    +0.000 A 
ENDBRANCH   4   8
BRANCH   5  14
ATOM     14  C   UNL     1       4.994   4.858  18.054  0.00  0.00    +0.000 C 
ATOM     15  C   UNL     1       4.734   3.632  17.203  0.00  0.00    +0.000 C 
ENDBRANCH   5  14
ENDBRANCH   1   2
BRANCH   1  17
ATOM     16  N   UNL     1       0.628   9.608  18.533  0.00  0.00    +0.000 N 
ATOM     17  C   UNL     1       1.887  10.016  18.166  0.00  0.00    +0.000 C 
ATOM     18  O   UNL     1       2.333  11.116  18.495  0.00  0.00    +0.000 OA
ATOM     19  H   UNL     1       0.275   8.712  18.197  0.00  0.00    +0.000 HD
BRANCH  16  20
ATOM     20  C   UNL     1      -0.225  10.420  19.376  0.00  0.00    +0.000 C 
ATOM     21  C   UNL     1      -1.691  10.286  18.973  0.00  0.00    +0.000 C 
BRANCH  20  26
ATOM     22  N   UNL     1      -0.105  10.858  21.863  0.00  0.00    +0.000 N 
ATOM     23  N   UNL     1       0.118  10.210  23.022  0.00  0.00    +0.000 NA
ATOM     24  C   UNL     1       0.348   8.967  22.594  0.00  0.00    +0.000 A 
ATOM     25  N   UNL     1       0.276   8.792  21.243  0.00  0.00    +0.000 NA
ATOM     26  C   UNL     1      -0.018  10.001  20.795  0.00  0.00    +0.000 A 
BRANCH  22  28
ATOM     27  C   UNL     1      -1.471  12.630  22.899  0.00  0.00    +0.000 C 
ATOM     28  C   UNL     1      -0.410  12.273  21.873  0.00  0.00    +0.000 C 
ENDBRANCH  22  28
ENDBRANCH  20  26
ENDBRANCH  16  20
ENDBRANCH   1  17
TORSDOF 7
ENDMDL
MODEL 8
REMARK VINA RESULT:      -6.9      5.295      7.958
REMARK  Name = 
REMARK  10 active torsions:
REMARK  status: ('A' for Active; 'I' for Inactive)
REMARK    1  A    between atoms: C_1  and  C_2
REMARK    2  A    between atoms: C_2  and  N_3
REMARK    3  A    between atoms: C_7  and  C_8
REMARK    4  A    between atoms: C_8  and  C_9
REMARK    5  A    between atoms: C_8  and  N_10
REMARK    6  A    between atoms: C_11  and  C_13
REMARK    7  A    between atoms: C_13  and  N_14
REMARK    8  A    between atoms: C_16  and  C_17
REMARK    9  A    between atoms: N_23  and  C_24
REMARK   10  A    between atoms: C_24  and  C_25
REMARK                            x       y       z     vdW  Elec       q    Type
REMARK                         _______ _______ _______ _____ _____    ______ ____
ROOT
ATOM      1  C   UNL     1       1.556   9.056  20.825  0.00  0.00    +0.000 C 
ENDROOT
BRANCH   1   2
ATOM      2  N   UNL     1       0.507   9.908  20.312  0.00  0.00    +0.000 N 
ATOM      3  N   UNL     1      -0.222   9.684  19.168  0.00  0.00    +0.000 NA
ATOM      4  C   UNL     1      -1.123  10.638  19.152  0.00  0.00    +0.000 A 
ATOM      5  N   UNL     1      -1.022  11.489  20.232  0.00  0.00    +0.000 N 
ATOM      6  C   UNL     1       0.016  11.008  20.998  0.00  0.00    +0.000 A 
ATOM      7  O   UNL     1       0.443  11.434  22.056  0.00  0.00    +0.000 OA
BRANCH   4   8
ATOM      8  C   UNL     1      -2.154  10.754  18.054  0.00  0.00    +0.000 A 
ATOM      9  C   UNL     1      -1.940  10.056  16.852  0.00  0.00    +0.000 A 
ATOM     10  C   UNL     1      -2.868  10.120  15.797  0.00  0.00    +0.000 A 
ATOM     11  C   UNL     1      -4.029  10.877  15.919  0.00  0.00    +0.000 A 
ATOM     12  C   UNL     1      -4.261  11.573  17.092  0.00  0.00    +0.000 A 
ATOM     13  C   UNL     1      -3.334  11.508  18.139  0.00  0.00    +0.000 A 
ENDBRANCH   4   8
BRANCH   5  14
ATOM     14  C   UNL     1      -1.816  12.652  20.581  0.00  0.00    +0.000 C 
ATOM     15  C   UNL     1      -2.811  12.560  21.720  0.00  0.00    +0.000 C 
ENDBRANCH   5  14
ENDBRANCH   1   2
BRANCH   1  17
ATOM     16  N   UNL     1       2.213   6.720  20.409  0.00  0.00    +0.000 N 
ATOM     17  C   UNL     1       1.945   7.946  19.851  0.00  0.00    +0.000 C 
ATOM     18  O   UNL     1       2.140   8.171  18.656  0.00  0.00    +0.000 OA
ATOM     19  H   UNL     1       2.088   6.589  21.411  0.00  0.00    +0.000 HD
BRANCH  16  20
ATOM     20  C   UNL     1       2.684   5.604  19.614  0.00  0.00    +0.000 C 
ATOM     21  C   UNL     1       4.203   5.631  19.467  0.00  0.00    +0.000 C 
BRANCH  20  26
ATOM     22  N   UNL     1       1.814   3.231  19.574  0.00  0.00    +0.000 N 
ATOM     23  N   UNL     1       1.471   2.236  20.415  0.00  0.00    +0.000 NA
ATOM     24  C   UNL     1       1.687   2.803  21.603  0.00  0.00    +0.000 A 
ATOM     25  N   UNL     1       2.150   4.086  21.562  0.00  0.00    +0.000 NA
ATOM     26  C   UNL     1       2.230   4.339  20.267  0.00  0.00    +0.000 A 
BRANCH  22  28
ATOM     27  C   UNL     1       2.954   2.319  17.587  0.00  0.00    +0.000 C 
ATOM     28  C   UNL     1       1.732   3.028  18.143  0.00  0.00    +0.000 C 
ENDBRANCH  22  28
ENDBRANCH  20  26
ENDBRANCH  16  20
ENDBRANCH   1  17
TORSDOF 7
ENDMDL
MODEL 9
REMARK VINA RESULT:      -6.8      4.116      9.717
REMARK  Name = 
REMARK  10 active torsions:
REMARK  status: ('A' for Active; 'I' for Inactive)
REMARK    1  A    between atoms: C_1  and  C_2
REMARK    2  A    between atoms: C_2  and  N_3
REMARK    3  A    between atoms: C_7  and  C_8
REMARK    4  A    between atoms: C_8  and  C_9
REMARK    5  A    between atoms: C_8  and  N_10
REMARK    6  A    between atoms: C_11  and  C_13
REMARK    7  A    between atoms: C_13  and  N_14
REMARK    8  A    between atoms: C_16  and  C_17
REMARK    9  A    between atoms: N_23  and  C_24
REMARK   10  A    between atoms: C_24  and  C_25
REMARK                            x       y       z     vdW  Elec       q    Type
REMARK                         _______ _______ _______ _____ _____    ______ ____
ROOT
ATOM      1  C   UNL     1       2.272   9.193  17.795  0.00  0.00    +0.000 C 
ENDROOT
BRANCH   1   2
ATOM      2  N   UNL     1       2.662   7.856  18.182  0.00  0.00    +0.000 N 
ATOM      3  N   UNL     1       1.977   7.039  19.052  0.00  0.00    +0.000 NA
ATOM      4  C   UNL     1       2.624   5.898  19.021  0.00  0.00    +0.000 A 
ATOM      5  N   UNL     1       3.711   5.921  18.173  0.00  0.00    +0.000 N 
ATOM      6  C   UNL     1       3.727   7.177  17.611  0.00  0.00    +0.000 A 
ATOM      7  O   UNL     1       4.499   7.633  16.787  0.00  0.00    +0.000 OA
BRANCH   4   8
ATOM      8  C   UNL     1       2.189   4.702  19.834  0.00  0.00    +0.000 A 
ATOM      9  C   UNL     1       1.379   3.729  19.222  0.00  0.00    +0.000 A 
ATOM     10  C   UNL     1       0.948   2.590  19.926  0.00  0.00    +0.000 A 
ATOM     11  C   UNL     1       1.318   2.396  21.254  0.00  0.00    +0.000 A 
ATOM     12  C   UNL     1       2.113   3.341  21.878  0.00  0.00    +0.000 A 
ATOM     13  C   UNL     1       2.539   4.473  21.173  0.00  0.00    +0.000 A 
ENDBRANCH   4   8
BRANCH   5  14
ATOM     14  C   UNL     1       4.672   4.881  17.860  0.00  0.00    +0.000 C 
ATOM     15  C   UNL     1       4.550   4.123  16.554  0.00  0.00    +0.000 C 
ENDBRANCH   5  14
ENDBRANCH   1   2
BRANCH   1  17
ATOM     16  N   UNL     1       1.178   9.741  19.932  0.00  0.00    +0.000 N 
ATOM     17  C   UNL     1       1.053   9.698  18.565  0.00  0.00    +0.000 C 
ATOM     18  O   UNL     1      -0.020   9.923  18.005  0.00  0.00    +0.000 OA
ATOM     19  H   UNL     1       2.070   9.497  20.360  0.00  0.00    +0.000 HD
BRANCH  16  20
ATOM     20  C   UNL     1       0.071  10.110  20.790  0.00  0.00    +0.000 C 
ATOM     21  C   UNL     1      -0.028   9.179  21.996  0.00  0.00    +0.000 C 
BRANCH  20  26
ATOM     22  N   UNL     1      -0.536  12.162  22.136  0.00  0.00    +0.000 N 
ATOM     23  N   UNL     1      -0.128  13.428  22.340  0.00  0.00    +0.000 NA
ATOM     24  C   UNL     1       0.917  13.509  21.514  0.00  0.00    +0.000 A 
ATOM     25  N   UNL     1       1.194  12.374  20.810  0.00  0.00    +0.000 NA
ATOM     26  C   UNL     1       0.265  11.527  21.221  0.00  0.00    +0.000 A 
BRANCH  22  28
ATOM     27  C   UNL     1      -2.814  12.644  22.947  0.00  0.00    +0.000 C 
ATOM     28  C   UNL     1      -1.676  11.643  22.863  0.00  0.00    +0.000 C 
ENDBRANCH  22  28
ENDBRANCH  20  26
ENDBRANCH  16  20
ENDBRANCH   1  17
TORSDOF 7
ENDMDL
