MODEL 1
REMARK VINA RESULT:      -9.0      0.000      0.000
REMARK  Name = 
REMARK  10 active torsions:
REMARK  status: ('A' for Active; 'I' for Inactive)
REMARK    1  A    between atoms: C_1  and  O_2
REMARK    2  A    between atoms: O_2  and  C_3
REMARK    3  A    between atoms: C_3  and  C_5
REMARK    4  A    between atoms: C_17  and  O_18
REMARK    5  A    between atoms: O_18  and  C_19
REMARK    6  A    between atoms: C_20  and  O_21
REMARK    7  A    between atoms: O_21  and  C_22
REMARK    8  A    between atoms: C_23  and  O_24
REMARK    9  A    between atoms: O_24  and  C_25
REMARK   10  A    between atoms: C_25  and  C_26
REMARK                            x       y       z     vdW  Elec       q    Type
REMARK                         _______ _______ _______ _____ _____    ______ ____
ROOT
ATOM      1  C   UNL     1       0.983   9.607  19.539  0.00  0.00    +0.000 A 
ATOM      2  C   UNL     1       1.577   8.360  19.461  0.00  0.00    +0.000 A 
ATOM      3  C   UNL     1       1.503   7.507  20.546  0.00  0.00    +0.000 A 
ATOM      4  N   UNL     1       0.891   7.798  21.705  0.00  0.00    +0.000 NA
ATOM      5  C   UNL     1       0.321   9.020  21.807  0.00  0.00    +0.000 A 
ATOM      6  C   UNL     1      -0.292   9.347  23.011  0.00  0.00    +0.000 A 
ATOM      7  C   UNL     1      -0.893  10.590  23.229  0.00  0.00    +0.000 A 
ATOM      8  C   UNL     1      -0.908  11.527  22.208  0.00  0.00    +0.000 A 
ATOM      9  C   UNL     1      -0.314  11.223  20.982  0.00  0.00    +0.000 A 
ATOM     10  C   UNL     1       0.330   9.974  20.752  0.00  0.00    +0.000 A 
ATOM     11  C   UNL     1       2.179   6.260  20.267  0.00  0.00    +0.000 A 
ATOM     12  C   UNL     1       2.293   5.109  21.021  0.00  0.00    +0.000 A 
ATOM     13  C   UNL     1       2.911   3.976  20.460  0.00  0.00    +0.000 A 
ATOM     14  C   UNL     1       3.428   4.002  19.133  0.00  0.00    +0.000 A 
ATOM     15  C   UNL     1       3.328   5.196  18.370  0.00  0.00    +0.000 A 
ATOM     16  C   UNL     1       2.714   6.299  18.975  0.00  0.00    +0.000 A 
ATOM     17  C   UNL     1       2.386   7.657  18.435  0.00  0.00    +0.000 C 
ATOM     18  O   UNL     1       2.740   8.128  17.376  0.00  0.00    +0.000 OA
ENDROOT
BRANCH   1  19
ATOM     19  C   UNL     1       1.096  10.566  18.426  0.00  0.00    +0.000 C 
ATOM     20  O   UNL     1       0.244  10.692  17.562  0.00  0.00    +0.000 OA
BRANCH  19  22
ATOM     21  C   UNL     1       2.227  12.613  18.315  0.00  0.00    +0.000 C 
ATOM     22  O   UNL     1       2.293  11.192  18.476  0.00  0.00    +0.000 OA
ENDBRANCH  19  22
ENDBRANCH   1  19
BRANCH  13  23
ATOM     23  O   UNL     1       2.724   2.845  21.217  0.00  0.00    +0.000 OA
ATOM     24  C   UNL     1       1.400   2.577  21.653  0.00  0.00    +0.000 C 
ENDBRANCH  13  23
BRANCH  14  25
ATOM     25  O   UNL     1       3.745   2.814  18.513  0.00  0.00    +0.000 OA
ATOM     26  C   UNL     1       2.679   2.167  17.821  0.00  0.00    +0.000 C 
ENDBRANCH  14  25
BRANCH  15  27
ATOM     27  O   UNL     1       3.743   5.413  17.086  0.00  0.00    +0.000 OA
BRANCH  27  28
ATOM     28  C   UNL     1       5.052   4.995  16.705  0.00  0.00    +0.000 C 
BRANCH  28  29
ATOM     29  C   UNL     1       6.136   5.824  17.373  0.00  0.00    +0.000 A 
ATOM     30  C   UNL     1       6.465   7.123  16.964  0.00  0.00    +0.000 A 
ATOM     31  C   UNL     1       7.504   7.829  17.583  0.00  0.00    +0.000 A 
ATOM     32  C   UNL     1       8.226   7.240  18.614  0.00  0.00    +0.000 A 
ATOM     33  C   UNL     1       7.916   5.949  19.029  0.00  0.00    +0.000 A 
ATOM     34  C   UNL     1       6.879   5.243  18.415  0.00  0.00    +0.000 A 
ENDBRANCH  28  29
ENDBRANCH  27  28
ENDBRANCH  15  27
TORSDOF 7
ENDMDL
MODEL 2
REMARK VINA RESULT:      -8.8      0.427      1.189
REMARK  Name = 
REMARK  10 active torsions:
REMARK  status: ('A' for Active; 'I' for Inactive)
REMARK    1  A    between atoms: C_1  and  O_2
REMARK    2  A    between atoms: O_2  and  C_3
REMARK    3  A    between atoms: C_3  and  C_5
REMARK    4  A    between atoms: C_17  and  O_18
REMARK    5  A    between atoms: O_18  and  C_19
REMARK    6  A    between atoms: C_20  and  O_21
REMARK    7  A    between atoms: O_21  and  C_22
REMARK    8  A    between atoms: C_23  and  O_24
REMARK    9  A    between atoms: O_24  and  C_25
REMARK   10  A    between atoms: C_25  and  C_26
REMARK                            x       y       z     vdW  Elec       q    Type
REMARK                         _______ _______ _______ _____ _____    ______ ____
ROOT
ATOM      1  C   UNL     1       0.957   9.601  19.603  0.00  0.00    +0.000 A 
ATOM      2  C   UNL     1       1.558   8.359  19.514  0.00  0.00    +0.000 A 
ATOM      3  C   UNL     1       1.495   7.499  20.594  0.00  0.00    +0.000 A 
ATOM      4  N   UNL     1       0.889   7.779  21.759  0.00  0.00    +0.000 NA
ATOM      5  C   UNL     1       0.311   8.997  21.871  0.00  0.00    +0.000 A 
ATOM      6  C   UNL     1      -0.298   9.312  23.081  0.00  0.00    +0.000 A 
ATOM      7  C   UNL     1      -0.905  10.551  23.309  0.00  0.00    +0.000 A 
ATOM      8  C   UNL     1      -0.932  11.493  22.294  0.00  0.00    +0.000 A 
ATOM      9  C   UNL     1      -0.343  11.200  21.063  0.00  0.00    +0.000 A 
ATOM     10  C   UNL     1       0.308   9.957  20.822  0.00  0.00    +0.000 A 
ATOM     11  C   UNL     1       2.177   6.258  20.304  0.00  0.00    +0.000 A 
ATOM     12  C   UNL     1       2.303   5.103  21.051  0.00  0.00    +0.000 A 
ATOM     13  C   UNL     1       2.925   3.977  20.479  0.00  0.00    +0.000 A 
ATOM     14  C   UNL     1       3.435   4.015  19.149  0.00  0.00    +0.000 A 
ATOM     15  C   UNL     1       3.323   5.213  18.394  0.00  0.00    +0.000 A 
ATOM     16  C   UNL     1       2.705   6.308  19.009  0.00  0.00    +0.000 A 
ATOM     17  C   UNL     1       2.365   7.668  18.480  0.00  0.00    +0.000 C 
ATOM     18  O   UNL     1       2.710   8.147  17.421  0.00  0.00    +0.000 OA
ENDROOT
BRANCH   1  19
ATOM     19  C   UNL     1       1.057  10.568  18.495  0.00  0.00    +0.000 C 
ATOM     20  O   UNL     1       1.835  11.508  18.496  0.00  0.00    +0.000 OA
BRANCH  19  22
ATOM     21  C   UNL     1      -1.132  10.959  17.764  0.00  0.00    +0.000 C 
ATOM     22  O   UNL     1       0.121  10.297  17.560  0.00  0.00    +0.000 OA
ENDBRANCH  19  22
ENDBRANCH   1  19
BRANCH  13  23
ATOM     23  O   UNL     1       2.750   2.840  21.230  0.00  0.00    +0.000 OA
ATOM     24  C   UNL     1       1.422   2.530  21.622  0.00  0.00    +0.000 C 
ENDBRANCH  13  23
BRANCH  14  25
ATOM     25  O   UNL     1       3.756   2.832  18.521  0.00  0.00    +0.000 OA
ATOM     26  C   UNL     1       2.687   2.175  17.843  0.00  0.00    +0.000 C 
ENDBRANCH  14  25
BRANCH  15  27
ATOM     27  O   UNL     1       3.729   5.440  17.109  0.00  0.00    +0.000 OA
BRANCH  27  28
ATOM     28  C   UNL     1       5.002   4.952  16.692  0.00  0.00    +0.000 C 
BRANCH  28  29
ATOM     29  C   UNL     1       6.147   5.702  17.353  0.00  0.00    +0.000 A 
ATOM     30  C   UNL     1       6.913   5.163  18.394  0.00  0.00    +0.000 A 
ATOM     31  C   UNL     1       7.929   5.912  19.001  0.00  0.00    +0.000 A 
ATOM     32  C   UNL     1       8.184   7.210  18.574  0.00  0.00    +0.000 A 
ATOM     33  C   UNL     1       7.429   7.762  17.545  0.00  0.00    +0.000 A 
ATOM     34  C   UNL     1       6.418   7.016  16.937  0.00  0.00    +0.000 A 
ENDBRANCH  28  29
ENDBRANCH  27  28
ENDBRANCH  15  27
TORSDOF 7
ENDMDL
MODEL 3
REMARK VINA RESULT:      -8.2      1.289      2.039
REMARK  Name = 
REMARK  10 active torsions:
REMARK  status: ('A' for Active; 'I' for Inactive)
REMARK    1  A    between atoms: C_1  and  O_2
REMARK    2  A    between atoms: O_2  and  C_3
REMARK    3  A    between atoms: C_3  and  C_5
REMARK    4  A    between atoms: C_17  and  O_18
REMARK    5  A    between atoms: O_18  and  C_19
REMARK    6  A    between atoms: C_20  and  O_21
REMARK    7  A    between atoms: O_21  and  C_22
REMARK    8  A    between atoms: C_23  and  O_24
REMARK    9  A    between atoms: O_24  and  C_25
REMARK   10  A    between atoms: C_25  and  C_26
REMARK                            x       y       z     vdW  Elec       q    Type
REMARK                         _______ _______ _______ _____ _____    ______ ____
ROOT
ATOM      1  C   UNL     1       0.954   9.718  19.566  0.00  0.00    +0.000 A 
ATOM      2  C   UNL     1       1.576   8.487  19.454  0.00  0.00    +0.000 A 
ATOM      3  C   UNL     1       1.495   7.592  20.504  0.00  0.00    +0.000 A 
ATOM      4  N   UNL     1       0.851   7.826  21.659  0.00  0.00    +0.000 NA
ATOM      5  C   UNL     1       0.252   9.031  21.793  0.00  0.00    +0.000 A 
ATOM      6  C   UNL     1      -0.396   9.299  22.994  0.00  0.00    +0.000 A 
ATOM      7  C   UNL     1      -1.028  10.521  23.243  0.00  0.00    +0.000 A 
ATOM      8  C   UNL     1      -1.040  11.495  22.258  0.00  0.00    +0.000 A 
ATOM      9  C   UNL     1      -0.411  11.250  21.036  0.00  0.00    +0.000 A 
ATOM     10  C   UNL     1       0.265  10.025  20.776  0.00  0.00    +0.000 A 
ATOM     11  C   UNL     1       2.204   6.371  20.195  0.00  0.00    +0.000 A 
ATOM     12  C   UNL     1       2.325   5.194  20.908  0.00  0.00    +0.000 A 
ATOM     13  C   UNL     1       2.981   4.097  20.320  0.00  0.00    +0.000 A 
ATOM     14  C   UNL     1       3.528   4.184  19.007  0.00  0.00    +0.000 A 
ATOM     15  C   UNL     1       3.420   5.404  18.287  0.00  0.00    +0.000 A 
ATOM     16  C   UNL     1       2.768   6.471  18.919  0.00  0.00    +0.000 A 
ATOM     17  C   UNL     1       2.423   7.841  18.423  0.00  0.00    +0.000 C 
ATOM     18  O   UNL     1       2.791   8.359  17.391  0.00  0.00    +0.000 OA
ENDROOT
BRANCH   1  19
ATOM     19  C   UNL     1       1.072  10.721  18.492  0.00  0.00    +0.000 C 
ATOM     20  O   UNL     1       0.224  10.882  17.630  0.00  0.00    +0.000 OA
BRANCH  19  22
ATOM     21  C   UNL     1       2.231  12.742  18.268  0.00  0.00    +0.000 C 
ATOM     22  O   UNL     1       2.268  11.344  18.573  0.00  0.00    +0.000 OA
ENDBRANCH  19  22
ENDBRANCH   1  19
BRANCH  13  23
ATOM     23  O   UNL     1       2.801   2.934  21.028  0.00  0.00    +0.000 OA
ATOM     24  C   UNL     1       1.522   2.727  21.607  0.00  0.00    +0.000 C 
ENDBRANCH  13  23
BRANCH  14  25
ATOM     25  O   UNL     1       3.884   3.027  18.351  0.00  0.00    +0.000 OA
ATOM     26  C   UNL     1       2.829   2.335  17.687  0.00  0.00    +0.000 C 
ENDBRANCH  14  25
BRANCH  15  27
ATOM     27  O   UNL     1       3.859   5.678  17.023  0.00  0.00    +0.000 OA
BRANCH  27  28
ATOM     28  C   UNL     1       5.259   5.829  16.798  0.00  0.00    +0.000 C 
BRANCH  28  29
ATOM     29  C   UNL     1       5.697   5.213  15.479  0.00  0.00    +0.000 A 
ATOM     30  C   UNL     1       4.879   4.363  14.724  0.00  0.00    +0.000 A 
ATOM     31  C   UNL     1       5.346   3.784  13.538  0.00  0.00    +0.000 A 
ATOM     32  C   UNL     1       6.638   4.048  13.098  0.00  0.00    +0.000 A 
ATOM     33  C   UNL     1       7.465   4.886  13.838  0.00  0.00    +0.000 A 
ATOM     34  C   UNL     1       7.001   5.466  15.021  0.00  0.00    +0.000 A 
ENDBRANCH  28  29
ENDBRANCH  27  28
ENDBRANCH  15  27
TORSDOF 7
ENDMDL
MODEL 4
REMARK VINA RESULT:      -8.2      1.331      2.191
REMARK  Name = 
REMARK  10 active torsions:
REMARK  status: ('A' for Active; 'I' for Inactive)
REMARK    1  A    between atoms: C_1  and  O_2
REMARK    2  A    between atoms: O_2  and  C_3
REMARK    3  A    between atoms: C_3  and  C_5
REMARK    4  A    between atoms: C_17  and  O_18
REMARK    5  A    between atoms: O_18  and  C_19
REMARK    6  A    between atoms: C_20  and  O_21
REMARK    7  A    between atoms: O_21  and  C_22
REMARK    8  A    between atoms: C_23  and  O_24
REMARK    9  A    between atoms: O_24  and  C_25
REMARK   10  A    between atoms: C_25  and  C_26
REMARK                            x       y       z     vdW  Elec       q    Type
REMARK                         _______ _______ _______ _____ _____    ______ ____
ROOT
ATOM      1  C   UNL     1       0.961   9.795  19.616  0.00  0.00    +0.000 A 
ATOM      2  C   UNL     1       1.579   8.565  19.484  0.00  0.00    +0.000 A 
ATOM      3  C   UNL     1       1.493   7.651  20.516  0.00  0.00    +0.000 A 
ATOM      4  N   UNL     1       0.847   7.865  21.673  0.00  0.00    +0.000 NA
ATOM      5  C   UNL     1       0.252   9.069  21.829  0.00  0.00    +0.000 A 
ATOM      6  C   UNL     1      -0.398   9.317  23.033  0.00  0.00    +0.000 A 
ATOM      7  C   UNL     1      -1.027  10.535  23.304  0.00  0.00    +0.000 A 
ATOM      8  C   UNL     1      -1.034  11.528  22.338  0.00  0.00    +0.000 A 
ATOM      9  C   UNL     1      -0.403  11.304  21.113  0.00  0.00    +0.000 A 
ATOM     10  C   UNL     1       0.270  10.082  20.831  0.00  0.00    +0.000 A 
ATOM     11  C   UNL     1       2.199   6.434  20.186  0.00  0.00    +0.000 A 
ATOM     12  C   UNL     1       2.315   5.243  20.877  0.00  0.00    +0.000 A 
ATOM     13  C   UNL     1       2.968   4.155  20.269  0.00  0.00    +0.000 A 
ATOM     14  C   UNL     1       3.519   4.265  18.960  0.00  0.00    +0.000 A 
ATOM     15  C   UNL     1       3.416   5.499  18.263  0.00  0.00    +0.000 A 
ATOM     16  C   UNL     1       2.767   6.555  18.913  0.00  0.00    +0.000 A 
ATOM     17  C   UNL     1       2.427   7.936  18.442  0.00  0.00    +0.000 C 
ATOM     18  O   UNL     1       2.799   8.473  17.421  0.00  0.00    +0.000 OA
ENDROOT
BRANCH   1  19
ATOM     19  C   UNL     1       1.085  10.818  18.562  0.00  0.00    +0.000 C 
ATOM     20  O   UNL     1       2.137  11.372  18.287  0.00  0.00    +0.000 OA
BRANCH  19  22
ATOM     21  C   UNL     1      -0.841   9.941  17.562  0.00  0.00    +0.000 C 
ATOM     22  O   UNL     1      -0.130  11.089  18.037  0.00  0.00    +0.000 OA
ENDBRANCH  19  22
ENDBRANCH   1  19
BRANCH  13  23
ATOM     23  O   UNL     1       2.783   2.979  20.955  0.00  0.00    +0.000 OA
ATOM     24  C   UNL     1       1.502   2.766  21.527  0.00  0.00    +0.000 C 
ENDBRANCH  13  23
BRANCH  14  25
ATOM     25  O   UNL     1       3.873   3.120  18.283  0.00  0.00    +0.000 OA
ATOM     26  C   UNL     1       2.813   2.430  17.625  0.00  0.00    +0.000 C 
ENDBRANCH  14  25
BRANCH  15  27
ATOM     27  O   UNL     1       3.859   5.796  17.005  0.00  0.00    +0.000 OA
BRANCH  27  28
ATOM     28  C   UNL     1       5.255   6.003  16.797  0.00  0.00    +0.000 C 
BRANCH  28  29
ATOM     29  C   UNL     1       5.763   5.286  15.557  0.00  0.00    +0.000 A 
ATOM     30  C   UNL     1       7.038   5.501  15.019  0.00  0.00    +0.000 A 
ATOM     31  C   UNL     1       7.441   4.849  13.847  0.00  0.00    +0.000 A 
ATOM     32  C   UNL     1       6.571   3.979  13.201  0.00  0.00    +0.000 A 
ATOM     33  C   UNL     1       5.300   3.758  13.720  0.00  0.00    +0.000 A 
ATOM     34  C   UNL     1       4.895   4.405  14.889  0.00  0.00    +0.000 A 
ENDBRANCH  28  29
ENDBRANCH  27  28
ENDBRANCH  15  27
TORSDOF 7
ENDMDL
MODEL 5
REMARK VINA RESULT:      -8.1      1.391      2.063
REMARK  Name = 
REMARK  10 active torsions:
REMARK  status: ('A' for Active; 'I' for Inactive)
REMARK    1  A    between atoms: C_1  and  O_2
REMARK    2  A    between atoms: O_2  and  C_3
REMARK    3  A    between atoms: C_3  and  C_5
REMARK    4  A    between atoms: C_17  and  O_18
REMARK    5  A    between atoms: O_18  and  C_19
REMARK    6  A    between atoms: C_20  and  O_21
REMARK    7  A    between atoms: O_21  and  C_22
REMARK    8  A    between atoms: C_23  and  O_24
REMARK    9  A    between atoms: O_24  and  C_25
REMARK   10  A    between atoms: C_25  and  C_26
REMARK                            x       y       z     vdW  Elec       q    Type
REMARK                         _______ _______ _______ _____ _____    ______ ____
ROOT
ATOM      1  C   UNL     1       0.240  10.997  19.751  0.00  0.00    +0.000 A 
ATOM      2  C   UNL     1       0.908   9.793  19.616  0.00  0.00    +0.000 A 
ATOM      3  C   UNL     1       0.846   8.867  20.640  0.00  0.00    +0.000 A 
ATOM      4  N   UNL     1       0.179   9.045  21.791  0.00  0.00    +0.000 NA
ATOM      5  C   UNL     1      -0.465  10.225  21.949  0.00  0.00    +0.000 A 
ATOM      6  C   UNL     1      -1.138  10.436  23.148  0.00  0.00    +0.000 A 
ATOM      7  C   UNL     1      -1.817  11.627  23.421  0.00  0.00    +0.000 A 
ATOM      8  C   UNL     1      -1.851  12.627  22.463  0.00  0.00    +0.000 A 
ATOM      9  C   UNL     1      -1.198  12.438  21.244  0.00  0.00    +0.000 A 
ATOM     10  C   UNL     1      -0.475  11.246  20.959  0.00  0.00    +0.000 A 
ATOM     11  C   UNL     1       1.602   7.681  20.307  0.00  0.00    +0.000 A 
ATOM     12  C   UNL     1       1.756   6.490  20.990  0.00  0.00    +0.000 A 
ATOM     13  C   UNL     1       2.458   5.433  20.382  0.00  0.00    +0.000 A 
ATOM     14  C   UNL     1       3.019   5.576  19.079  0.00  0.00    +0.000 A 
ATOM     15  C   UNL     1       2.876   6.811  18.391  0.00  0.00    +0.000 A 
ATOM     16  C   UNL     1       2.179   7.835  19.042  0.00  0.00    +0.000 A 
ATOM     17  C   UNL     1       1.791   9.206  18.579  0.00  0.00    +0.000 C 
ATOM     18  O   UNL     1       2.153   9.765  17.566  0.00  0.00    +0.000 OA
ENDROOT
BRANCH   1  19
ATOM     19  C   UNL     1       0.336  12.033  18.707  0.00  0.00    +0.000 C 
ATOM     20  O   UNL     1      -0.521  12.206  17.856  0.00  0.00    +0.000 OA
BRANCH  19  22
ATOM     21  C   UNL     1       1.425  14.078  19.039  0.00  0.00    +0.000 C 
ATOM     22  O   UNL     1       1.524  12.670  18.798  0.00  0.00    +0.000 OA
ENDBRANCH  19  22
ENDBRANCH   1  19
BRANCH  13  23
ATOM     23  O   UNL     1       2.312   4.245  21.056  0.00  0.00    +0.000 OA
ATOM     24  C   UNL     1       1.100   3.535  20.847  0.00  0.00    +0.000 C 
ENDBRANCH  13  23
BRANCH  14  25
ATOM     25  O   UNL     1       3.426   4.451  18.397  0.00  0.00    +0.000 OA
ATOM     26  C   UNL     1       2.469   3.880  17.508  0.00  0.00    +0.000 C 
ENDBRANCH  14  25
BRANCH  15  27
ATOM     27  O   UNL     1       3.322   7.135  17.141  0.00  0.00    +0.000 OA
BRANCH  27  28
ATOM     28  C   UNL     1       4.697   7.467  16.965  0.00  0.00    +0.000 C 
BRANCH  28  29
ATOM     29  C   UNL     1       5.523   6.272  16.520  0.00  0.00    +0.000 A 
ATOM     30  C   UNL     1       6.551   5.721  17.298  0.00  0.00    +0.000 A 
ATOM     31  C   UNL     1       7.314   4.648  16.823  0.00  0.00    +0.000 A 
ATOM     32  C   UNL     1       7.059   4.117  15.564  0.00  0.00    +0.000 A 
ATOM     33  C   UNL     1       6.046   4.656  14.777  0.00  0.00    +0.000 A 
ATOM     34  C   UNL     1       5.282   5.725  15.248  0.00  0.00    +0.000 A 
ENDBRANCH  28  29
ENDBRANCH  27  28
ENDBRANCH  15  27
TORSDOF 7
ENDMDL
MODEL 6
REMARK VINA RESULT:      -8.0      1.418      2.110
REMARK  Name = 
REMARK  10 active torsions:
REMARK  status: ('A' for Active; 'I' for Inactive)
REMARK    1  A    between atoms: C_1  and  O_2
REMARK    2  A    between atoms: O_2  and  C_3
REMARK    3  A    between atoms: C_3  and  C_5
REMARK    4  A    between atoms: C_17  and  O_18
REMARK    5  A    between atoms: O_18  and  C_19
REMARK    6  A    between atoms: C_20  and  O_21
REMARK    7  A    between atoms: O_21  and  C_22
REMARK    8  A    between atoms: C_23  and  O_24
REMARK    9  A    between atoms: O_24  and  C_25
REMARK   10  A    between atoms: C_25  and  C_26
REMARK                            x       y       z     vdW  Elec       q    Type
REMARK                         _______ _______ _______ _____ _____    ______ ____
ROOT
ATOM      1  C   UNL     1       0.213  10.904  19.733  0.00  0.00    +0.000 A 
ATOM      2  C   UNL     1       0.897   9.710  19.599  0.00  0.00    +0.000 A 
ATOM      3  C   UNL     1       0.859   8.791  20.631  0.00  0.00    +0.000 A 
ATOM      4  N   UNL     1       0.201   8.968  21.788  0.00  0.00    +0.000 NA
ATOM      5  C   UNL     1      -0.459  10.139  21.944  0.00  0.00    +0.000 A 
ATOM      6  C   UNL     1      -1.123  10.349  23.147  0.00  0.00    +0.000 A 
ATOM      7  C   UNL     1      -1.817  11.532  23.418  0.00  0.00    +0.000 A 
ATOM      8  C   UNL     1      -1.876  12.524  22.453  0.00  0.00    +0.000 A 
ATOM      9  C   UNL     1      -1.232  12.336  21.228  0.00  0.00    +0.000 A 
ATOM     10  C   UNL     1      -0.494  11.152  20.946  0.00  0.00    +0.000 A 
ATOM     11  C   UNL     1       1.630   7.614  20.300  0.00  0.00    +0.000 A 
ATOM     12  C   UNL     1       1.809   6.431  20.990  0.00  0.00    +0.000 A 
ATOM     13  C   UNL     1       2.521   5.379  20.383  0.00  0.00    +0.000 A 
ATOM     14  C   UNL     1       3.067   5.521  19.074  0.00  0.00    +0.000 A 
ATOM     15  C   UNL     1       2.898   6.748  18.378  0.00  0.00    +0.000 A 
ATOM     16  C   UNL     1       2.192   7.767  19.028  0.00  0.00    +0.000 A 
ATOM     17  C   UNL     1       1.779   9.128  18.558  0.00  0.00    +0.000 C 
ATOM     18  O   UNL     1       2.123   9.685  17.538  0.00  0.00    +0.000 OA
ENDROOT
BRANCH   1  19
ATOM     19  C   UNL     1       0.283  11.934  18.680  0.00  0.00    +0.000 C 
ATOM     20  O   UNL     1       1.277  12.609  18.469  0.00  0.00    +0.000 OA
BRANCH  19  22
ATOM     21  C   UNL     1      -1.467  10.824  17.591  0.00  0.00    +0.000 C 
ATOM     22  O   UNL     1      -0.919  12.055  18.073  0.00  0.00    +0.000 OA
ENDBRANCH  19  22
ENDBRANCH   1  19
BRANCH  13  23
ATOM     23  O   UNL     1       2.399   4.195  21.067  0.00  0.00    +0.000 OA
ATOM     24  C   UNL     1       1.184   3.480  20.900  0.00  0.00    +0.000 C 
ENDBRANCH  13  23
BRANCH  14  25
ATOM     25  O   UNL     1       3.483   4.397  18.397  0.00  0.00    +0.000 OA
ATOM     26  C   UNL     1       2.530   3.811  17.513  0.00  0.00    +0.000 C 
ENDBRANCH  14  25
BRANCH  15  27
ATOM     27  O   UNL     1       3.326   7.070  17.121  0.00  0.00    +0.000 OA
BRANCH  27  28
ATOM     28  C   UNL     1       4.693   7.428  16.930  0.00  0.00    +0.000 C 
BRANCH  28  29
ATOM     29  C   UNL     1       5.528   6.260  16.432  0.00  0.00    +0.000 A 
ATOM     30  C   UNL     1       5.292   5.618  15.210  0.00  0.00    +0.000 A 
ATOM     31  C   UNL     1       6.061   4.516  14.817  0.00  0.00    +0.000 A 
ATOM     32  C   UNL     1       7.072   4.043  15.646  0.00  0.00    +0.000 A 
ATOM     33  C   UNL     1       7.316   4.666  16.865  0.00  0.00    +0.000 A 
ATOM     34  C   UNL     1       6.552   5.766  17.259  0.00  0.00    +0.000 A 
ENDBRANCH  28  29
ENDBRANCH  27  28
ENDBRANCH  15  27
TORSDOF 7
ENDMDL
MODEL 7
REMARK VINA RESULT:      -7.9      0.988      1.449
REMARK  Name = 
REMARK  10 active torsions:
REMARK  status: ('A' for Active; 'I' for Inactive)
REMARK    1  A    between atoms: C_1  and  O_2
REMARK    2  A    between atoms: O_2  and  C_3
REMARK    3  A    between atoms: C_3  and  C_5
REMARK    4  A    between atoms: C_17  and  O_18
REMARK    5  A    between atoms: O_18  and  C_19
REMARK    6  A    between atoms: C_20  and  O_21
REMARK    7  A    between atoms: O_21  and  C_22
REMARK    8  A    between atoms: C_23  and  O_24
REMARK    9  A    between atoms: O_24  and  C_25
REMARK   10  A    between atoms: C_25  and  C_26
REMARK                            x       y       z     vdW  Elec       q    Type
REMARK                         _______ _______ _______ _____ _____    ______ ____
ROOT
ATOM      1  C   UNL     1       0.809  10.582  19.828  0.00  0.00    +0.000 A 
ATOM      2  C   UNL     1       1.298   9.297  19.675  0.00  0.00    +0.000 A 
ATOM      3  C   UNL     1       1.004   8.344  20.632  0.00  0.00    +0.000 A 
ATOM      4  N   UNL     1       0.268   8.568  21.732  0.00  0.00    +0.000 NA
ATOM      5  C   UNL     1      -0.204   9.824  21.908  0.00  0.00    +0.000 A 
ATOM      6  C   UNL     1      -0.945  10.079  23.056  0.00  0.00    +0.000 A 
ATOM      7  C   UNL     1      -1.460  11.346  23.345  0.00  0.00    +0.000 A 
ATOM      8  C   UNL     1      -1.255  12.384  22.450  0.00  0.00    +0.000 A 
ATOM      9  C   UNL     1      -0.529  12.155  21.280  0.00  0.00    +0.000 A 
ATOM     10  C   UNL     1       0.030  10.880  20.985  0.00  0.00    +0.000 A 
ATOM     11  C   UNL     1       1.601   7.072  20.292  0.00  0.00    +0.000 A 
ATOM     12  C   UNL     1       1.512   5.840  20.911  0.00  0.00    +0.000 A 
ATOM     13  C   UNL     1       2.101   4.718  20.299  0.00  0.00    +0.000 A 
ATOM     14  C   UNL     1       2.794   4.835  19.060  0.00  0.00    +0.000 A 
ATOM     15  C   UNL     1       2.902   6.108  18.439  0.00  0.00    +0.000 A 
ATOM     16  C   UNL     1       2.309   7.196  19.091  0.00  0.00    +0.000 A 
ATOM     17  C   UNL     1       2.175   8.631  18.682  0.00  0.00    +0.000 C 
ATOM     18  O   UNL     1       2.709   9.175  17.740  0.00  0.00    +0.000 OA
ENDROOT
BRANCH   1  19
ATOM     19  C   UNL     1       1.154  11.639  18.861  0.00  0.00    +0.000 C 
ATOM     20  O   UNL     1       2.235  12.207  18.848  0.00  0.00    +0.000 OA
BRANCH  19  22
ATOM     21  C   UNL     1      -0.299  13.298  18.077  0.00  0.00    +0.000 C 
ATOM     22  O   UNL     1       0.086  11.919  18.083  0.00  0.00    +0.000 OA
ENDBRANCH  19  22
ENDBRANCH   1  19
BRANCH  13  23
ATOM     23  O   UNL     1       1.716   3.537  20.885  0.00  0.00    +0.000 OA
ATOM     24  C   UNL     1       2.712   2.823  21.602  0.00  0.00    +0.000 C 
ENDBRANCH  13  23
BRANCH  14  25
ATOM     25  O   UNL     1       3.089   3.694  18.347  0.00  0.00    +0.000 OA
ATOM     26  C   UNL     1       2.036   3.175  17.537  0.00  0.00    +0.000 C 
ENDBRANCH  14  25
BRANCH  15  27
ATOM     27  O   UNL     1       3.504   6.419  17.253  0.00  0.00    +0.000 OA
BRANCH  27  28
ATOM     28  C   UNL     1       4.616   5.638  16.819  0.00  0.00    +0.000 C 
BRANCH  28  29
ATOM     29  C   UNL     1       5.914   6.074  17.477  0.00  0.00    +0.000 A 
ATOM     30  C   UNL     1       6.540   5.340  18.494  0.00  0.00    +0.000 A 
ATOM     31  C   UNL     1       7.712   5.809  19.100  0.00  0.00    +0.000 A 
ATOM     32  C   UNL     1       8.267   7.017  18.698  0.00  0.00    +0.000 A 
ATOM     33  C   UNL     1       7.656   7.761  17.693  0.00  0.00    +0.000 A 
ATOM     34  C   UNL     1       6.488   7.296  17.086  0.00  0.00    +0.000 A 
ENDBRANCH  28  29
ENDBRANCH  27  28
ENDBRANCH  15  27
TORSDOF 7
ENDMDL
MODEL 8
REMARK VINA RESULT:      -7.9      1.194      1.807
REMARK  Name = 
REMARK  10 active torsions:
REMARK  status: ('A' for Active; 'I' for Inactive)
REMARK    1  A    between atoms: C_1  and  O_2
REMARK    2  A    between atoms: O_2  and  C_3
REMARK    3  A    between atoms: C_3  and  C_5
REMARK    4  A    between atoms: C_17  and  O_18
REMARK    5  A    between atoms: O_18  and  C_19
REMARK    6  A    between atoms: C_20  and  O_21
REMARK    7  A    between atoms: O_21  and  C_22
REMARK    8  A    between atoms: C_23  and  O_24
REMARK    9  A    between atoms: O_24  and  C_25
REMARK   10  A    between atoms: C_25  and  C_26
REMARK                            x       y       z     vdW  Elec       q    Type
REMARK                         _______ _______ _______ _____ _____    ______ ____
ROOT
ATOM      1  C   UNL     1       0.321  10.610  19.731  0.00  0.00    +0.000 A 
ATOM      2  C   UNL     1       0.985   9.403  19.606  0.00  0.00    +0.000 A 
ATOM      3  C   UNL     1       0.959   8.506  20.657  0.00  0.00    +0.000 A 
ATOM      4  N   UNL     1       0.330   8.716  21.825  0.00  0.00    +0.000 NA
ATOM      5  C   UNL     1      -0.309   9.899  21.972  0.00  0.00    +0.000 A 
ATOM      6  C   UNL     1      -0.942  10.144  23.186  0.00  0.00    +0.000 A 
ATOM      7  C   UNL     1      -1.612  11.342  23.449  0.00  0.00    +0.000 A 
ATOM      8  C   UNL     1      -1.680  12.314  22.464  0.00  0.00    +0.000 A 
ATOM      9  C   UNL     1      -1.068  12.092  21.229  0.00  0.00    +0.000 A 
ATOM     10  C   UNL     1      -0.354  10.893  20.955  0.00  0.00    +0.000 A 
ATOM     11  C   UNL     1       1.705   7.311  20.333  0.00  0.00    +0.000 A 
ATOM     12  C   UNL     1       1.884   6.140  21.043  0.00  0.00    +0.000 A 
ATOM     13  C   UNL     1       2.566   5.067  20.441  0.00  0.00    +0.000 A 
ATOM     14  C   UNL     1       3.083   5.173  19.117  0.00  0.00    +0.000 A 
ATOM     15  C   UNL     1       2.915   6.389  18.400  0.00  0.00    +0.000 A 
ATOM     16  C   UNL     1       2.239   7.431  19.045  0.00  0.00    +0.000 A 
ATOM     17  C   UNL     1       1.834   8.788  18.557  0.00  0.00    +0.000 C 
ATOM     18  O   UNL     1       2.162   9.319  17.518  0.00  0.00    +0.000 OA
ENDROOT
BRANCH   1  19
ATOM     19  C   UNL     1       0.381  11.617  18.655  0.00  0.00    +0.000 C 
ATOM     20  O   UNL     1       1.380  12.271  18.406  0.00  0.00    +0.000 OA
BRANCH  19  22
ATOM     21  C   UNL     1      -1.372  10.528  17.549  0.00  0.00    +0.000 C 
ATOM     22  O   UNL     1      -0.833  11.745  18.077  0.00  0.00    +0.000 OA
ENDBRANCH  19  22
ENDBRANCH   1  19
BRANCH  13  23
ATOM     23  O   UNL     1       2.444   3.898  21.152  0.00  0.00    +0.000 OA
ATOM     24  C   UNL     1       1.232   3.176  20.995  0.00  0.00    +0.000 C 
ENDBRANCH  13  23
BRANCH  14  25
ATOM     25  O   UNL     1       3.468   4.030  18.454  0.00  0.00    +0.000 OA
ATOM     26  C   UNL     1       4.593   3.343  18.994  0.00  0.00    +0.000 C 
ENDBRANCH  14  25
BRANCH  15  27
ATOM     27  O   UNL     1       3.319   6.678  17.127  0.00  0.00    +0.000 OA
BRANCH  27  28
ATOM     28  C   UNL     1       4.599   7.273  16.929  0.00  0.00    +0.000 C 
BRANCH  28  29
ATOM     29  C   UNL     1       5.731   6.283  17.147  0.00  0.00    +0.000 A 
ATOM     30  C   UNL     1       6.610   6.355  18.236  0.00  0.00    +0.000 A 
ATOM     31  C   UNL     1       7.666   5.445  18.367  0.00  0.00    +0.000 A 
ATOM     32  C   UNL     1       7.856   4.457  17.408  0.00  0.00    +0.000 A 
ATOM     33  C   UNL     1       6.996   4.375  16.318  0.00  0.00    +0.000 A 
ATOM     34  C   UNL     1       5.940   5.280  16.185  0.00  0.00    +0.000 A 
ENDBRANCH  28  29
ENDBRANCH  27  28
ENDBRANCH  15  27
TORSDOF 7
ENDMDL
MODEL 9
REMARK VINA RESULT:      -7.7      1.450      2.014
REMARK  Name = 
REMARK  10 active torsions:
REMARK  status: ('A' for Active; 'I' for Inactive)
REMARK    1  A    between atoms: C_1  and  O_2
REMARK    2  A    between atoms: O_2  and  C_3
REMARK    3  A    between atoms: C_3  and  C_5
REMARK    4  A    between atoms: C_17  and  O_18
REMARK    5  A    between atoms: O_18  and  C_19
REMARK    6  A    between atoms: C_20  and  O_21
REMARK    7  A    between atoms: O_21  and  C_22
REMARK    8  A    between atoms: C_23  and  O_24
REMARK    9  A    between atoms: O_24  and  C_25
REMARK   10  A    between atoms: C_25  and  C_26
REMARK                            x       y       z     vdW  Elec       q    Type
REMARK                         _______ _______ _______ _____ _____    ______ ____
ROOT
ATOM      1  C   UNL     1       0.553  10.719  19.817  0.00  0.00    +0.000 A 
ATOM      2  C   UNL     1       1.152   9.478  19.700  0.00  0.00    +0.000 A 
ATOM      3  C   UNL     1       0.970   8.543  20.701  0.00  0.00    +0.000 A 
ATOM      4  N   UNL     1       0.245   8.746  21.813  0.00  0.00    +0.000 NA
ATOM      5  C   UNL     1      -0.333   9.961  21.953  0.00  0.00    +0.000 A 
ATOM      6  C   UNL     1      -1.064  10.196  23.112  0.00  0.00    +0.000 A 
ATOM      7  C   UNL     1      -1.684  11.423  23.366  0.00  0.00    +0.000 A 
ATOM      8  C   UNL     1      -1.598  12.437  22.426  0.00  0.00    +0.000 A 
ATOM      9  C   UNL     1      -0.884  12.226  21.245  0.00  0.00    +0.000 A 
ATOM     10  C   UNL     1      -0.219  10.995  20.984  0.00  0.00    +0.000 A 
ATOM     11  C   UNL     1       1.671   7.317  20.394  0.00  0.00    +0.000 A 
ATOM     12  C   UNL     1       1.710   6.109  21.063  0.00  0.00    +0.000 A 
ATOM     13  C   UNL     1       2.382   5.019  20.479  0.00  0.00    +0.000 A 
ATOM     14  C   UNL     1       3.030   5.145  19.216  0.00  0.00    +0.000 A 
ATOM     15  C   UNL     1       3.005   6.397  18.543  0.00  0.00    +0.000 A 
ATOM     16  C   UNL     1       2.333   7.453  19.169  0.00  0.00    +0.000 A 
ATOM     17  C   UNL     1       2.060   8.852  18.708  0.00  0.00    +0.000 C 
ATOM     18  O   UNL     1       2.518   9.402  17.730  0.00  0.00    +0.000 OA
ENDROOT
BRANCH   1  19
ATOM     19  C   UNL     1       0.776  11.762  18.799  0.00  0.00    +0.000 C 
ATOM     20  O   UNL     1       0.047  11.922  17.833  0.00  0.00    +0.000 OA
BRANCH  19  22
ATOM     21  C   UNL     1       2.374  13.276  18.003  0.00  0.00    +0.000 C 
ATOM     22  O   UNL     1       1.924  12.424  19.062  0.00  0.00    +0.000 OA
ENDBRANCH  19  22
ENDBRANCH   1  19
BRANCH  13  23
ATOM     23  O   UNL     1       2.121   3.833  21.121  0.00  0.00    +0.000 OA
ATOM     24  C   UNL     1       0.969   3.118  20.703  0.00  0.00    +0.000 C 
ENDBRANCH  13  23
BRANCH  14  25
ATOM     25  O   UNL     1       3.407   4.007  18.540  0.00  0.00    +0.000 OA
ATOM     26  C   UNL     1       4.706   3.502  18.843  0.00  0.00    +0.000 C 
ENDBRANCH  14  25
BRANCH  15  27
ATOM     27  O   UNL     1       3.546   6.711  17.329  0.00  0.00    +0.000 OA
BRANCH  27  28
ATOM     28  C   UNL     1       4.960   6.863  17.223  0.00  0.00    +0.000 C 
BRANCH  28  29
ATOM     29  C   UNL     1       5.562   5.928  16.187  0.00  0.00    +0.000 A 
ATOM     30  C   UNL     1       4.787   5.132  15.334  0.00  0.00    +0.000 A 
ATOM     31  C   UNL     1       5.390   4.251  14.428  0.00  0.00    +0.000 A 
ATOM     32  C   UNL     1       6.775   4.156  14.370  0.00  0.00    +0.000 A 
ATOM     33  C   UNL     1       7.560   4.935  15.214  0.00  0.00    +0.000 A 
ATOM     34  C   UNL     1       6.961   5.815  16.117  0.00  0.00    +0.000 A 
ENDBRANCH  28  29
ENDBRANCH  27  28
ENDBRANCH  15  27
TORSDOF 7
ENDMDL
