MODEL 1
REMARK VINA RESULT:      -8.6      0.000      0.000
REMARK  Name = 
REMARK  8 active torsions:
REMARK  status: ('A' for Active; 'I' for Inactive)
REMARK    1  A    between atoms: C_1  and  C_2
REMARK    2  A    between atoms: C_2  and  O_3
REMARK    3  A    between atoms: O_3  and  C_4
REMARK    4  A    between atoms: N_8  and  C_9
REMARK    5  A    between atoms: C_9  and  C_10
REMARK    6  A    between atoms: N_12  and  C_13
REMARK    7  A    between atoms: C_13  and  C_14
REMARK    8  A    between atoms: C_14  and  O_16
REMARK                            x       y       z     vdW  Elec       q    Type
REMARK                         _______ _______ _______ _____ _____    ______ ____
ROOT
ATOM      1  C   UNL     1       4.035   6.280  17.429  0.00  0.00    +0.000 A 
ATOM      2  N   UNL     1       5.299   6.217  17.100  0.00  0.00    +0.000 NA
ATOM      3  N   UNL     1       5.987   5.073  17.447  0.00  0.00    +0.000 N 
ATOM      4  C   UNL     1       5.649   4.680  18.754  0.00  0.00    +0.000 A 
ATOM      5  O   UNL     1       6.270   4.900  19.778  0.00  0.00    +0.000 OA
ATOM      6  C   UNL     1       4.298   4.169  18.774  0.00  0.00    +0.000 A 
ATOM      7  C   UNL     1       4.142   2.800  19.067  0.00  0.00    +0.000 A 
ATOM      8  C   UNL     1       3.000   2.168  18.633  0.00  0.00    +0.000 A 
ATOM      9  C   UNL     1       2.003   2.931  18.007  0.00  0.00    +0.000 A 
ATOM     10  C   UNL     1       2.169   4.342  17.736  0.00  0.00    +0.000 A 
ATOM     11  C   UNL     1       3.361   4.985  18.069  0.00  0.00    +0.000 A 
ENDROOT
BRANCH   1  12
ATOM     12  C   UNL     1       3.370   7.631  17.065  0.00  0.00    +0.000 C 
BRANCH  12  17
ATOM     13  C   UNL     1      -0.313  10.460  20.897  0.00  0.00    +0.000 A 
ATOM     14  C   UNL     1       0.017  10.424  19.515  0.00  0.00    +0.000 A 
ATOM     15  C   UNL     1       0.951   9.426  19.194  0.00  0.00    +0.000 A 
ATOM     16  C   UNL     1       1.492   9.176  17.946  0.00  0.00    +0.000 A 
ATOM     17  N   UNL     1       2.405   8.161  18.107  0.00  0.00    +0.000 N 
ATOM     18  N   UNL     1       2.436   7.730  19.409  0.00  0.00    +0.000 NA
ATOM     19  C   UNL     1       1.536   8.476  20.089  0.00  0.00    +0.000 A 
ATOM     20  C   UNL     1       1.131   8.453  21.447  0.00  0.00    +0.000 A 
ATOM     21  C   UNL     1       0.200   9.469  21.810  0.00  0.00    +0.000 A 
ATOM     22 CL   UNL     1      -0.325   9.491  23.474  0.00  0.00    +0.000 Cl
BRANCH  13  23
ATOM     23  O   UNL     1      -1.133  11.433  21.454  0.00  0.00    +0.000 OA
BRANCH  23  25
ATOM     24  C   UNL     1      -2.924  12.745  20.431  0.00  0.00    +0.000 C 
ATOM     25  C   UNL     1      -1.419  12.588  20.649  0.00  0.00    +0.000 C 
ENDBRANCH  23  25
ENDBRANCH  13  23
ENDBRANCH  12  17
ENDBRANCH   1  12
BRANCH   3  26
ATOM     26  C   UNL     1       5.854   4.054  16.363  0.00  0.00    +0.000 C 
BRANCH  26  27
ATOM     27  C   UNL     1       6.641   4.464  15.145  0.00  0.00    +0.000 C 
ATOM     28  O   UNL     1       6.457   3.974  14.039  0.00  0.00    +0.000 OA
BRANCH  27  29
ATOM     29  O   UNL     1       7.512   5.471  15.363  0.00  0.00    +0.000 OA
ATOM     30  H   UNL     1       8.109   5.607  14.592  0.00  0.00    +0.000 HD
ENDBRANCH  27  29
ENDBRANCH  26  27
ENDBRANCH   3  26
TORSDOF 7
ENDMDL
MODEL 2
REMARK VINA RESULT:      -8.2      2.877      8.322
REMARK  Name = 
REMARK  8 active torsions:
REMARK  status: ('A' for Active; 'I' for Inactive)
REMARK    1  A    between atoms: C_1  and  C_2
REMARK    2  A    between atoms: C_2  and  O_3
REMARK    3  A    between atoms: O_3  and  C_4
REMARK    4  A    between atoms: N_8  and  C_9
REMARK    5  A    between atoms: C_9  and  C_10
REMARK    6  A    between atoms: N_12  and  C_13
REMARK    7  A    between atoms: C_13  and  C_14
REMARK    8  A    between atoms: C_14  and  O_16
REMARK                            x       y       z     vdW  Elec       q    Type
REMARK                         _______ _______ _______ _____ _____    ______ ____
ROOT
ATOM      1  C   UNL     1       0.879  10.413  18.557  0.00  0.00    +0.000 A 
ATOM      2  N   UNL     1       1.189  10.822  19.759  0.00  0.00    +0.000 NA
ATOM      3  N   UNL     1       0.232  11.537  20.451  0.00  0.00    +0.000 N 
ATOM      4  C   UNL     1      -0.387  12.470  19.599  0.00  0.00    +0.000 A 
ATOM      5  O   UNL     1      -0.134  13.655  19.492  0.00  0.00    +0.000 OA
ATOM      6  C   UNL     1      -1.233  11.778  18.655  0.00  0.00    +0.000 A 
ATOM      7  C   UNL     1      -2.619  12.001  18.764  0.00  0.00    +0.000 A 
ATOM      8  C   UNL     1      -3.474  11.047  18.261  0.00  0.00    +0.000 A 
ATOM      9  C   UNL     1      -2.930   9.948  17.578  0.00  0.00    +0.000 A 
ATOM     10  C   UNL     1      -1.503   9.747  17.453  0.00  0.00    +0.000 A 
ATOM     11  C   UNL     1      -0.614  10.643  18.047  0.00  0.00    +0.000 A 
ENDROOT
BRANCH   1  12
ATOM     12  C   UNL     1       2.041   9.687  17.834  0.00  0.00    +0.000 C 
BRANCH  12  17
ATOM     13  C   UNL     1       3.524   4.071  19.417  0.00  0.00    +0.000 A 
ATOM     14  C   UNL     1       3.884   5.081  18.484  0.00  0.00    +0.000 A 
ATOM     15  C   UNL     1       3.197   6.289  18.681  0.00  0.00    +0.000 A 
ATOM     16  C   UNL     1       3.305   7.432  17.912  0.00  0.00    +0.000 A 
ATOM     17  N   UNL     1       2.408   8.340  18.423  0.00  0.00    +0.000 N 
ATOM     18  N   UNL     1       1.759   7.826  19.516  0.00  0.00    +0.000 NA
ATOM     19  C   UNL     1       2.243   6.577  19.707  0.00  0.00    +0.000 A 
ATOM     20  C   UNL     1       1.959   5.600  20.693  0.00  0.00    +0.000 A 
ATOM     21  C   UNL     1       2.624   4.353  20.508  0.00  0.00    +0.000 A 
ATOM     22 CL   UNL     1       2.301   3.111  21.689  0.00  0.00    +0.000 Cl
BRANCH  13  23
ATOM     23  O   UNL     1       3.998   2.767  19.343  0.00  0.00    +0.000 OA
BRANCH  23  25
ATOM     24  C   UNL     1       2.123   2.099  17.924  0.00  0.00    +0.000 C 
ATOM     25  C   UNL     1       3.626   1.999  18.187  0.00  0.00    +0.000 C 
ENDBRANCH  23  25
ENDBRANCH  13  23
ENDBRANCH  12  17
ENDBRANCH   1  12
BRANCH   3  26
ATOM     26  C   UNL     1      -0.650  10.600  21.208  0.00  0.00    +0.000 C 
BRANCH  26  27
ATOM     27  C   UNL     1       0.088   9.995  22.374  0.00  0.00    +0.000 C 
ATOM     28  O   UNL     1      -0.192  10.242  23.539  0.00  0.00    +0.000 OA
BRANCH  27  29
ATOM     29  O   UNL     1       1.035   9.100  22.025  0.00  0.00    +0.000 OA
ATOM     30  H   UNL     1       0.861   8.214  22.420  0.00  0.00    +0.000 HD
ENDBRANCH  27  29
ENDBRANCH  26  27
ENDBRANCH   3  26
TORSDOF 7
ENDMDL
MODEL 3
REMARK VINA RESULT:      -8.0      2.214      3.447
REMARK  Name = 
REMARK  8 active torsions:
REMARK  status: ('A' for Active; 'I' for Inactive)
REMARK    1  A    between atoms: C_1  and  C_2
REMARK    2  A    between atoms: C_2  and  O_3
REMARK    3  A    between atoms: O_3  and  C_4
REMARK    4  A    between atoms: N_8  and  C_9
REMARK    5  A    between atoms: C_9  and  C_10
REMARK    6  A    between atoms: N_12  and  C_13
REMARK    7  A    between atoms: C_13  and  C_14
REMARK    8  A    between atoms: C_14  and  O_16
REMARK                            x       y       z     vdW  Elec       q    Type
REMARK                         _______ _______ _______ _____ _____    ______ ____
ROOT
ATOM      1  C   UNL     1       5.221   5.073  18.282  0.00  0.00    +0.000 A 
ATOM      2  N   UNL     1       6.152   5.767  18.882  0.00  0.00    +0.000 NA
ATOM      3  N   UNL     1       7.345   5.941  18.210  0.00  0.00    +0.000 N 
ATOM      4  C   UNL     1       7.740   4.735  17.603  0.00  0.00    +0.000 A 
ATOM      5  O   UNL     1       8.541   3.922  18.024  0.00  0.00    +0.000 OA
ATOM      6  C   UNL     1       6.870   4.446  16.486  0.00  0.00    +0.000 A 
ATOM      7  C   UNL     1       7.452   4.475  15.205  0.00  0.00    +0.000 A 
ATOM      8  C   UNL     1       6.632   4.695  14.122  0.00  0.00    +0.000 A 
ATOM      9  C   UNL     1       5.247   4.783  14.332  0.00  0.00    +0.000 A 
ATOM     10  C   UNL     1       4.663   4.726  15.654  0.00  0.00    +0.000 A 
ATOM     11  C   UNL     1       5.481   4.611  16.778  0.00  0.00    +0.000 A 
ENDROOT
BRANCH   1  12
ATOM     12  C   UNL     1       3.950   4.870  19.144  0.00  0.00    +0.000 C 
BRANCH  12  17
ATOM     13  C   UNL     1       0.903  10.061  19.042  0.00  0.00    +0.000 A 
ATOM     14  C   UNL     1       1.605   9.182  18.173  0.00  0.00    +0.000 A 
ATOM     15  C   UNL     1       2.045   8.010  18.807  0.00  0.00    +0.000 A 
ATOM     16  C   UNL     1       2.785   6.992  18.235  0.00  0.00    +0.000 A 
ATOM     17  N   UNL     1       3.046   6.083  19.232  0.00  0.00    +0.000 N 
ATOM     18  N   UNL     1       2.464   6.468  20.413  0.00  0.00    +0.000 NA
ATOM     19  C   UNL     1       1.826   7.636  20.171  0.00  0.00    +0.000 A 
ATOM     20  C   UNL     1       1.042   8.469  21.007  0.00  0.00    +0.000 A 
ATOM     21  C   UNL     1       0.599   9.680  20.399  0.00  0.00    +0.000 A 
ATOM     22 CL   UNL     1      -0.362  10.748  21.389  0.00  0.00    +0.000 Cl
BRANCH  13  23
ATOM     23  O   UNL     1       0.472  11.324  18.655  0.00  0.00    +0.000 OA
BRANCH  23  25
ATOM     24  C   UNL     1       0.874  13.668  19.222  0.00  0.00    +0.000 C 
ATOM     25  C   UNL     1       1.452  12.375  18.645  0.00  0.00    +0.000 C 
ENDBRANCH  23  25
ENDBRANCH  13  23
ENDBRANCH  12  17
ENDBRANCH   1  12
BRANCH   3  26
ATOM     26  C   UNL     1       7.266   7.157  17.346  0.00  0.00    +0.000 C 
BRANCH  26  27
ATOM     27  C   UNL     1       7.997   8.312  17.981  0.00  0.00    +0.000 C 
ATOM     28  O   UNL     1       7.875   9.467  17.599  0.00  0.00    +0.000 OA
BRANCH  27  29
ATOM     29  O   UNL     1       8.740   7.972  19.056  0.00  0.00    +0.000 OA
ATOM     30  H   UNL     1       8.191   7.552  19.757  0.00  0.00    +0.000 HD
ENDBRANCH  27  29
ENDBRANCH  26  27
ENDBRANCH   3  26
TORSDOF 7
ENDMDL
MODEL 4
REMARK VINA RESULT:      -7.9      2.246      3.522
REMARK  Name = 
REMARK  8 active torsions:
REMARK  status: ('A' for Active; 'I' for Inactive)
REMARK    1  A    between atoms: C_1  and  C_2
REMARK    2  A    between atoms: C_2  and  O_3
REMARK    3  A    between atoms: O_3  and  C_4
REMARK    4  A    between atoms: N_8  and  C_9
REMARK    5  A    between atoms: C_9  and  C_10
REMARK    6  A    between atoms: N_12  and  C_13
REMARK    7  A    between atoms: C_13  and  C_14
REMARK    8  A    between atoms: C_14  and  O_16
REMARK                            x       y       z     vdW  Elec       q    Type
REMARK                         _______ _______ _______ _____ _____    ______ ____
ROOT
ATOM      1  C   UNL     1       5.127   5.079  18.311  0.00  0.00    +0.000 A 
ATOM      2  N   UNL     1       6.044   5.791  18.912  0.00  0.00    +0.000 NA
ATOM      3  N   UNL     1       7.243   5.967  18.252  0.00  0.00    +0.000 N 
ATOM      4  C   UNL     1       7.657   4.756  17.668  0.00  0.00    +0.000 A 
ATOM      5  O   UNL     1       8.461   3.957  18.112  0.00  0.00    +0.000 OA
ATOM      6  C   UNL     1       6.804   4.442  16.545  0.00  0.00    +0.000 A 
ATOM      7  C   UNL     1       7.402   4.458  15.271  0.00  0.00    +0.000 A 
ATOM      8  C   UNL     1       6.593   4.654  14.175  0.00  0.00    +0.000 A 
ATOM      9  C   UNL     1       5.205   4.731  14.367  0.00  0.00    +0.000 A 
ATOM     10  C   UNL     1       4.605   4.688  15.682  0.00  0.00    +0.000 A 
ATOM     11  C   UNL     1       5.410   4.597  16.818  0.00  0.00    +0.000 A 
ENDROOT
BRANCH   1  12
ATOM     12  C   UNL     1       3.848   4.876  19.161  0.00  0.00    +0.000 C 
BRANCH  12  17
ATOM     13  C   UNL     1       0.210   9.442  20.631  0.00  0.00    +0.000 A 
ATOM     14  C   UNL     1       0.794   8.277  21.197  0.00  0.00    +0.000 A 
ATOM     15  C   UNL     1       1.683   7.625  20.329  0.00  0.00    +0.000 A 
ATOM     16  C   UNL     1       2.369   6.451  20.582  0.00  0.00    +0.000 A 
ATOM     17  N   UNL     1       3.066   6.145  19.438  0.00  0.00    +0.000 N 
ATOM     18  N   UNL     1       2.877   7.104  18.476  0.00  0.00    +0.000 NA
ATOM     19  C   UNL     1       2.051   8.033  19.008  0.00  0.00    +0.000 A 
ATOM     20  C   UNL     1       1.540   9.247  18.484  0.00  0.00    +0.000 A 
ATOM     21  C   UNL     1       0.616   9.923  19.333  0.00  0.00    +0.000 A 
ATOM     22 CL   UNL     1      -0.051  11.418  18.731  0.00  0.00    +0.000 Cl
BRANCH  13  23
ATOM     23  O   UNL     1      -0.777  10.182  21.270  0.00  0.00    +0.000 OA
BRANCH  23  25
ATOM     24  C   UNL     1      -1.371  11.914  22.890  0.00  0.00    +0.000 C 
ATOM     25  C   UNL     1      -0.448  10.743  22.552  0.00  0.00    +0.000 C 
ENDBRANCH  23  25
ENDBRANCH  13  23
ENDBRANCH  12  17
ENDBRANCH   1  12
BRANCH   3  26
ATOM     26  C   UNL     1       7.164   7.169  17.370  0.00  0.00    +0.000 C 
BRANCH  26  27
ATOM     27  C   UNL     1       7.954   8.313  17.952  0.00  0.00    +0.000 C 
ATOM     28  O   UNL     1       7.831   9.468  17.570  0.00  0.00    +0.000 OA
BRANCH  27  29
ATOM     29  O   UNL     1       8.753   7.964  18.981  0.00  0.00    +0.000 OA
ATOM     30  H   UNL     1       9.206   8.747  19.371  0.00  0.00    +0.000 HD
ENDBRANCH  27  29
ENDBRANCH  26  27
ENDBRANCH   3  26
TORSDOF 7
ENDMDL
MODEL 5
REMARK VINA RESULT:      -7.6      1.302      1.738
REMARK  Name = 
REMARK  8 active torsions:
REMARK  status: ('A' for Active; 'I' for Inactive)
REMARK    1  A    between atoms: C_1  and  C_2
REMARK    2  A    between atoms: C_2  and  O_3
REMARK    3  A    between atoms: O_3  and  C_4
REMARK    4  A    between atoms: N_8  and  C_9
REMARK    5  A    between atoms: C_9  and  C_10
REMARK    6  A    between atoms: N_12  and  C_13
REMARK    7  A    between atoms: C_13  and  C_14
REMARK    8  A    between atoms: C_14  and  O_16
REMARK                            x       y       z     vdW  Elec       q    Type
REMARK                         _______ _______ _______ _____ _____    ______ ____
ROOT
ATOM      1  C   UNL     1       4.371   6.239  17.276  0.00  0.00    +0.000 A 
ATOM      2  N   UNL     1       5.658   6.221  17.051  0.00  0.00    +0.000 NA
ATOM      3  N   UNL     1       6.375   5.158  17.560  0.00  0.00    +0.000 N 
ATOM      4  C   UNL     1       5.953   4.871  18.871  0.00  0.00    +0.000 A 
ATOM      5  O   UNL     1       6.478   5.223  19.911  0.00  0.00    +0.000 OA
ATOM      6  C   UNL     1       4.634   4.283  18.838  0.00  0.00    +0.000 A 
ATOM      7  C   UNL     1       4.527   2.941  19.252  0.00  0.00    +0.000 A 
ATOM      8  C   UNL     1       3.458   2.203  18.798  0.00  0.00    +0.000 A 
ATOM      9  C   UNL     1       2.476   2.844  18.026  0.00  0.00    +0.000 A 
ATOM     10  C   UNL     1       2.589   4.230  17.631  0.00  0.00    +0.000 A 
ATOM     11  C   UNL     1       3.715   4.972  17.988  0.00  0.00    +0.000 A 
ENDROOT
BRANCH   1  12
ATOM     12  C   UNL     1       3.667   7.507  16.732  0.00  0.00    +0.000 C 
BRANCH  12  17
ATOM     13  C   UNL     1      -0.149   9.547  20.918  0.00  0.00    +0.000 A 
ATOM     14  C   UNL     1       0.864   8.567  20.740  0.00  0.00    +0.000 A 
ATOM     15  C   UNL     1       1.497   8.645  19.490  0.00  0.00    +0.000 A 
ATOM     16  C   UNL     1       2.487   7.805  19.014  0.00  0.00    +0.000 A 
ATOM     17  N   UNL     1       2.763   8.206  17.729  0.00  0.00    +0.000 N 
ATOM     18  N   UNL     1       2.008   9.297  17.382  0.00  0.00    +0.000 NA
ATOM     19  C   UNL     1       1.241   9.598  18.454  0.00  0.00    +0.000 A 
ATOM     20  C   UNL     1       0.298  10.633  18.674  0.00  0.00    +0.000 A 
ATOM     21  C   UNL     1      -0.380  10.568  19.927  0.00  0.00    +0.000 A 
ATOM     22 CL   UNL     1      -1.559  11.814  20.244  0.00  0.00    +0.000 Cl
BRANCH  13  23
ATOM     23  O   UNL     1      -0.976   9.588  22.034  0.00  0.00    +0.000 OA
BRANCH  23  25
ATOM     24  C   UNL     1      -1.839  11.414  23.411  0.00  0.00    +0.000 C 
ATOM     25  C   UNL     1      -0.640  10.531  23.064  0.00  0.00    +0.000 C 
ENDBRANCH  23  25
ENDBRANCH  13  23
ENDBRANCH  12  17
ENDBRANCH   1  12
BRANCH   3  26
ATOM     26  C   UNL     1       6.383   4.036  16.575  0.00  0.00    +0.000 C 
BRANCH  26  27
ATOM     27  C   UNL     1       6.589   4.555  15.175  0.00  0.00    +0.000 C 
ATOM     28  O   UNL     1       5.797   4.347  14.266  0.00  0.00    +0.000 OA
BRANCH  27  29
ATOM     29  O   UNL     1       7.682   5.333  15.029  0.00  0.00    +0.000 OA
ATOM     30  H   UNL     1       8.434   4.831  14.637  0.00  0.00    +0.000 HD
ENDBRANCH  27  29
ENDBRANCH  26  27
ENDBRANCH   3  26
TORSDOF 7
ENDMDL
MODEL 6
REMARK VINA RESULT:      -7.6      3.320      8.680
REMARK  Name = 
REMARK  8 active torsions:
REMARK  status: ('A' for Active; 'I' for Inactive)
REMARK    1  A    between atoms: C_1  and  C_2
REMARK    2  A    between atoms: C_2  and  O_3
REMARK    3  A    between atoms: O_3  and  C_4
REMARK    4  A    between atoms: N_8  and  C_9
REMARK    5  A    between atoms: C_9  and  C_10
REMARK    6  A    between atoms: N_12  and  C_13
REMARK    7  A    between atoms: C_13  and  C_14
REMARK    8  A    between atoms: C_14  and  O_16
REMARK                            x       y       z     vdW  Elec       q    Type
REMARK                         _______ _______ _______ _____ _____    ______ ____
ROOT
ATOM      1  C   UNL     1       0.660  10.879  18.805  0.00  0.00    +0.000 A 
ATOM      2  N   UNL     1       0.790  11.357  20.014  0.00  0.00    +0.000 NA
ATOM      3  N   UNL     1      -0.321  11.944  20.586  0.00  0.00    +0.000 N 
ATOM      4  C   UNL     1      -0.978  12.757  19.645  0.00  0.00    +0.000 A 
ATOM      5  O   UNL     1      -0.885  13.964  19.518  0.00  0.00    +0.000 OA
ATOM      6  C   UNL     1      -1.622  11.929  18.652  0.00  0.00    +0.000 A 
ATOM      7  C   UNL     1      -3.029  11.954  18.622  0.00  0.00    +0.000 A 
ATOM      8  C   UNL     1      -3.688  10.876  18.076  0.00  0.00    +0.000 A 
ATOM      9  C   UNL     1      -2.930   9.851  17.489  0.00  0.00    +0.000 A 
ATOM     10  C   UNL     1      -1.484   9.853  17.507  0.00  0.00    +0.000 A 
ATOM     11  C   UNL     1      -0.792  10.881  18.148  0.00  0.00    +0.000 A 
ENDROOT
BRANCH   1  12
ATOM     12  C   UNL     1       1.978  10.310  18.222  0.00  0.00    +0.000 C 
BRANCH  12  17
ATOM     13  C   UNL     1       2.883   4.586  19.852  0.00  0.00    +0.000 A 
ATOM     14  C   UNL     1       2.182   5.749  20.270  0.00  0.00    +0.000 A 
ATOM     15  C   UNL     1       2.296   6.819  19.369  0.00  0.00    +0.000 A 
ATOM     16  C   UNL     1       1.761   8.085  19.521  0.00  0.00    +0.000 A 
ATOM     17  N   UNL     1       2.175   8.823  18.438  0.00  0.00    +0.000 N 
ATOM     18  N   UNL     1       2.925   8.059  17.581  0.00  0.00    +0.000 NA
ATOM     19  C   UNL     1       2.994   6.821  18.119  0.00  0.00    +0.000 A 
ATOM     20  C   UNL     1       3.610   5.629  17.661  0.00  0.00    +0.000 A 
ATOM     21  C   UNL     1       3.531   4.530  18.565  0.00  0.00    +0.000 A 
ATOM     22 CL   UNL     1       4.283   3.041  18.054  0.00  0.00    +0.000 Cl
BRANCH  13  23
ATOM     23  O   UNL     1       2.996   3.446  20.639  0.00  0.00    +0.000 OA
BRANCH  23  25
ATOM     24  C   UNL     1       0.917   2.501  19.767  0.00  0.00    +0.000 C 
ATOM     25  C   UNL     1       1.777   2.777  21.000  0.00  0.00    +0.000 C 
ENDBRANCH  23  25
ENDBRANCH  13  23
ENDBRANCH  12  17
ENDBRANCH   1  12
BRANCH   3  26
ATOM     26  C   UNL     1      -1.134  10.908  21.290  0.00  0.00    +0.000 C 
BRANCH  26  27
ATOM     27  C   UNL     1      -1.124  11.142  22.779  0.00  0.00    +0.000 C 
ATOM     28  O   UNL     1      -1.980  11.802  23.354  0.00  0.00    +0.000 OA
BRANCH  27  29
ATOM     29  O   UNL     1      -0.134  10.500  23.433  0.00  0.00    +0.000 OA
ATOM     30  H   UNL     1       0.379  11.114  24.008  0.00  0.00    +0.000 HD
ENDBRANCH  27  29
ENDBRANCH  26  27
ENDBRANCH   3  26
TORSDOF 7
ENDMDL
MODEL 7
REMARK VINA RESULT:      -7.4      3.006      8.614
REMARK  Name = 
REMARK  8 active torsions:
REMARK  status: ('A' for Active; 'I' for Inactive)
REMARK    1  A    between atoms: C_1  and  C_2
REMARK    2  A    between atoms: C_2  and  O_3
REMARK    3  A    between atoms: O_3  and  C_4
REMARK    4  A    between atoms: N_8  and  C_9
REMARK    5  A    between atoms: C_9  and  C_10
REMARK    6  A    between atoms: N_12  and  C_13
REMARK    7  A    between atoms: C_13  and  C_14
REMARK    8  A    between atoms: C_14  and  O_16
REMARK                            x       y       z     vdW  Elec       q    Type
REMARK                         _______ _______ _______ _____ _____    ______ ____
ROOT
ATOM      1  C   UNL     1       0.991  10.835  18.926  0.00  0.00    +0.000 A 
ATOM      2  N   UNL     1      -0.237  10.395  19.003  0.00  0.00    +0.000 NA
ATOM      3  N   UNL     1      -1.088  11.042  19.876  0.00  0.00    +0.000 N 
ATOM      4  C   UNL     1      -0.429  11.308  21.089  0.00  0.00    +0.000 A 
ATOM      5  O   UNL     1      -0.487  10.663  22.120  0.00  0.00    +0.000 OA
ATOM      6  C   UNL     1       0.555  12.347  20.891  0.00  0.00    +0.000 A 
ATOM      7  C   UNL     1       0.326  13.571  21.549  0.00  0.00    +0.000 A 
ATOM      8  C   UNL     1       0.914  14.705  21.038  0.00  0.00    +0.000 A 
ATOM      9  C   UNL     1       1.788  14.577  19.947  0.00  0.00    +0.000 A 
ATOM     10  C   UNL     1       2.032  13.308  19.298  0.00  0.00    +0.000 A 
ATOM     11  C   UNL     1       1.366  12.161  19.729  0.00  0.00    +0.000 A 
ENDROOT
BRANCH   1  12
ATOM     12  C   UNL     1       1.888  10.000  17.979  0.00  0.00    +0.000 C 
BRANCH  12  17
ATOM     13  C   UNL     1       2.940   4.206  19.233  0.00  0.00    +0.000 A 
ATOM     14  C   UNL     1       3.177   5.170  18.216  0.00  0.00    +0.000 A 
ATOM     15  C   UNL     1       2.742   6.459  18.562  0.00  0.00    +0.000 A 
ATOM     16  C   UNL     1       2.800   7.589  17.767  0.00  0.00    +0.000 A 
ATOM     17  N   UNL     1       2.207   8.605  18.478  0.00  0.00    +0.000 N 
ATOM     18  N   UNL     1       1.806   8.169  19.715  0.00  0.00    +0.000 NA
ATOM     19  C   UNL     1       2.144   6.862  19.799  0.00  0.00    +0.000 A 
ATOM     20  C   UNL     1       1.999   5.918  20.845  0.00  0.00    +0.000 A 
ATOM     21  C   UNL     1       2.411   4.593  20.517  0.00  0.00    +0.000 A 
ATOM     22 CL   UNL     1       2.243   3.389  21.768  0.00  0.00    +0.000 Cl
BRANCH  13  23
ATOM     23  O   UNL     1       3.192   2.850  19.064  0.00  0.00    +0.000 OA
BRANCH  23  25
ATOM     24  C   UNL     1       0.882   2.184  18.617  0.00  0.00    +0.000 C 
ATOM     25  C   UNL     1       2.339   2.134  18.156  0.00  0.00    +0.000 C 
ENDBRANCH  23  25
ENDBRANCH  13  23
ENDBRANCH  12  17
ENDBRANCH   1  12
BRANCH   3  26
ATOM     26  C   UNL     1      -1.748  12.189  19.182  0.00  0.00    +0.000 C 
BRANCH  26  27
ATOM     27  C   UNL     1      -2.442  11.727  17.927  0.00  0.00    +0.000 C 
ATOM     28  O   UNL     1      -3.588  11.300  17.919  0.00  0.00    +0.000 OA
BRANCH  27  29
ATOM     29  O   UNL     1      -1.717  11.894  16.801  0.00  0.00    +0.000 OA
ATOM     30  H   UNL     1      -1.932  11.210  16.125  0.00  0.00    +0.000 HD
ENDBRANCH  27  29
ENDBRANCH  26  27
ENDBRANCH   3  26
TORSDOF 7
ENDMDL
MODEL 8
REMARK VINA RESULT:      -7.3      2.584      8.775
REMARK  Name = 
REMARK  8 active torsions:
REMARK  status: ('A' for Active; 'I' for Inactive)
REMARK    1  A    between atoms: C_1  and  C_2
REMARK    2  A    between atoms: C_2  and  O_3
REMARK    3  A    between atoms: O_3  and  C_4
REMARK    4  A    between atoms: N_8  and  C_9
REMARK    5  A    between atoms: C_9  and  C_10
REMARK    6  A    between atoms: N_12  and  C_13
REMARK    7  A    between atoms: C_13  and  C_14
REMARK    8  A    between atoms: C_14  and  O_16
REMARK                            x       y       z     vdW  Elec       q    Type
REMARK                         _______ _______ _______ _____ _____    ______ ____
ROOT
ATOM      1  C   UNL     1       0.675   9.850  18.771  0.00  0.00    +0.000 A 
ATOM      2  N   UNL     1       1.216   9.519  19.914  0.00  0.00    +0.000 NA
ATOM      3  N   UNL     1       0.834  10.240  21.027  0.00  0.00    +0.000 N 
ATOM      4  C   UNL     1       0.779  11.611  20.721  0.00  0.00    +0.000 A 
ATOM      5  O   UNL     1       1.628  12.454  20.944  0.00  0.00    +0.000 OA
ATOM      6  C   UNL     1      -0.353  11.872  19.861  0.00  0.00    +0.000 A 
ATOM      7  C   UNL     1      -1.389  12.659  20.399  0.00  0.00    +0.000 A 
ATOM      8  C   UNL     1      -2.647  12.537  19.856  0.00  0.00    +0.000 A 
ATOM      9  C   UNL     1      -2.820  11.711  18.735  0.00  0.00    +0.000 A 
ATOM     10  C   UNL     1      -1.738  10.928  18.180  0.00  0.00    +0.000 A 
ATOM     11  C   UNL     1      -0.478  10.951  18.776  0.00  0.00    +0.000 A 
ENDROOT
BRANCH   1  12
ATOM     12  C   UNL     1       1.221   9.035  17.571  0.00  0.00    +0.000 C 
BRANCH  12  17
ATOM     13  C   UNL     1       5.437   4.812  18.369  0.00  0.00    +0.000 A 
ATOM     14  C   UNL     1       5.304   6.171  17.974  0.00  0.00    +0.000 A 
ATOM     15  C   UNL     1       3.991   6.654  18.084  0.00  0.00    +0.000 A 
ATOM     16  C   UNL     1       3.547   7.917  17.737  0.00  0.00    +0.000 A 
ATOM     17  N   UNL     1       2.189   7.930  17.946  0.00  0.00    +0.000 N 
ATOM     18  N   UNL     1       1.758   6.730  18.450  0.00  0.00    +0.000 NA
ATOM     19  C   UNL     1       2.849   5.939  18.564  0.00  0.00    +0.000 A 
ATOM     20  C   UNL     1       3.004   4.616  19.048  0.00  0.00    +0.000 A 
ATOM     21  C   UNL     1       4.323   4.088  18.929  0.00  0.00    +0.000 A 
ATOM     22 CL   UNL     1       4.567   2.458  19.501  0.00  0.00    +0.000 Cl
BRANCH  13  23
ATOM     23  O   UNL     1       6.622   4.099  18.241  0.00  0.00    +0.000 OA
BRANCH  23  25
ATOM     24  C   UNL     1       6.846   4.210  15.810  0.00  0.00    +0.000 C 
ATOM     25  C   UNL     1       7.499   4.473  17.167  0.00  0.00    +0.000 C 
ENDBRANCH  23  25
ENDBRANCH  13  23
ENDBRANCH  12  17
ENDBRANCH   1  12
BRANCH   3  26
ATOM     26  C   UNL     1      -0.377   9.619  21.641  0.00  0.00    +0.000 C 
BRANCH  26  27
ATOM     27  C   UNL     1      -0.578  10.118  23.049  0.00  0.00    +0.000 C 
ATOM     28  O   UNL     1      -1.525  10.821  23.377  0.00  0.00    +0.000 OA
BRANCH  27  29
ATOM     29  O   UNL     1       0.334   9.661  23.933  0.00  0.00    +0.000 OA
ATOM     30  H   UNL     1       0.015   9.749  24.861  0.00  0.00    +0.000 HD
ENDBRANCH  27  29
ENDBRANCH  26  27
ENDBRANCH   3  26
TORSDOF 7
ENDMDL
MODEL 9
REMARK VINA RESULT:      -7.3      3.008      4.407
REMARK  Name = 
REMARK  8 active torsions:
REMARK  status: ('A' for Active; 'I' for Inactive)
REMARK    1  A    between atoms: C_1  and  C_2
REMARK    2  A    between atoms: C_2  and  O_3
REMARK    3  A    between atoms: O_3  and  C_4
REMARK    4  A    between atoms: N_8  and  C_9
REMARK    5  A    between atoms: C_9  and  C_10
REMARK    6  A    between atoms: N_12  and  C_13
REMARK    7  A    between atoms: C_13  and  C_14
REMARK    8  A    between atoms: C_14  and  O_16
REMARK                            x       y       z     vdW  Elec       q    Type
REMARK                         _______ _______ _______ _____ _____    ______ ____
ROOT
ATOM      1  C   UNL     1       2.255   5.691  20.051  0.00  0.00    +0.000 A 
ATOM      2  N   UNL     1       1.305   4.799  20.146  0.00  0.00    +0.000 NA
ATOM      3  N   UNL     1       1.300   3.777  19.219  0.00  0.00    +0.000 N 
ATOM      4  C   UNL     1       1.571   4.284  17.936  0.00  0.00    +0.000 A 
ATOM      5  O   UNL     1       0.768   4.560  17.064  0.00  0.00    +0.000 OA
ATOM      6  C   UNL     1       2.958   4.683  17.854  0.00  0.00    +0.000 A 
ATOM      7  C   UNL     1       3.778   3.946  16.979  0.00  0.00    +0.000 A 
ATOM      8  C   UNL     1       5.134   3.938  17.210  0.00  0.00    +0.000 A 
ATOM      9  C   UNL     1       5.647   4.738  18.242  0.00  0.00    +0.000 A 
ATOM     10  C   UNL     1       4.791   5.509  19.117  0.00  0.00    +0.000 A 
ATOM     11  C   UNL     1       3.405   5.450  18.973  0.00  0.00    +0.000 A 
ENDROOT
BRANCH   1  12
ATOM     12  C   UNL     1       2.133   6.837  21.086  0.00  0.00    +0.000 C 
BRANCH  12  17
ATOM     13  C   UNL     1      -0.182  11.959  18.928  0.00  0.00    +0.000 A 
ATOM     14  C   UNL     1       0.761  10.952  18.589  0.00  0.00    +0.000 A 
ATOM     15  C   UNL     1       0.796   9.892  19.509  0.00  0.00    +0.000 A 
ATOM     16  C   UNL     1       1.635   8.794  19.470  0.00  0.00    +0.000 A 
ATOM     17  N   UNL     1       1.370   8.052  20.596  0.00  0.00    +0.000 N 
ATOM     18  N   UNL     1       0.364   8.622  21.333  0.00  0.00    +0.000 NA
ATOM     19  C   UNL     1      -0.020   9.739  20.675  0.00  0.00    +0.000 A 
ATOM     20  C   UNL     1      -1.026  10.697  20.955  0.00  0.00    +0.000 A 
ATOM     21  C   UNL     1      -1.071  11.798  20.051  0.00  0.00    +0.000 A 
ATOM     22 CL   UNL     1      -2.286  13.012  20.357  0.00  0.00    +0.000 Cl
BRANCH  13  23
ATOM     23  O   UNL     1      -0.309  13.147  18.218  0.00  0.00    +0.000 OA
BRANCH  23  25
ATOM     24  C   UNL     1      -0.240  15.543  18.696  0.00  0.00    +0.000 C 
ATOM     25  C   UNL     1       0.546  14.235  18.604  0.00  0.00    +0.000 C 
ENDBRANCH  23  25
ENDBRANCH  13  23
ENDBRANCH  12  17
ENDBRANCH   1  12
BRANCH   3  26
ATOM     26  C   UNL     1       2.144   2.647  19.709  0.00  0.00    +0.000 C 
BRANCH  26  27
ATOM     27  C   UNL     1       2.040   2.511  21.206  0.00  0.00    +0.000 C 
ATOM     28  O   UNL     1       3.018   2.470  21.940  0.00  0.00    +0.000 OA
BRANCH  27  29
ATOM     29  O   UNL     1       0.774   2.515  21.675  0.00  0.00    +0.000 OA
ATOM     30  H   UNL     1       0.365   1.621  21.623  0.00  0.00    +0.000 HD
ENDBRANCH  27  29
ENDBRANCH  26  27
ENDBRANCH   3  26
TORSDOF 7
ENDMDL
