MODEL 1
REMARK VINA RESULT:      -7.3      0.000      0.000
REMARK  Name = 
REMARK  8 active torsions:
REMARK  status: ('A' for Active; 'I' for Inactive)
REMARK    1  A    between atoms: C_1  and  N_2
REMARK    2  A    between atoms: C_3  and  C_5
REMARK    3  A    between atoms: C_7  and  C_8
REMARK    4  A    between atoms: N_10  and  C_11
REMARK    5  A    between atoms: C_14  and  O_15
REMARK    6  A    between atoms: N_18  and  C_19
REMARK    7  A    between atoms: C_19  and  C_20
REMARK    8  A    between atoms: C_19  and  C_21
REMARK                            x       y       z     vdW  Elec       q    Type
REMARK                         _______ _______ _______ _____ _____    ______ ____
ROOT
ATOM      1  C   UNL     1      -1.339  10.878  17.723  0.00  0.00    +0.000 A 
ATOM      2  C   UNL     1      -0.500   9.738  17.628  0.00  0.00    +0.000 A 
ATOM      3  C   UNL     1       0.419   9.842  18.660  0.00  0.00    +0.000 A 
ATOM      4  N   UNL     1       0.192  11.097  19.195  0.00  0.00    +0.000 N 
ATOM      5  N   UNL     1      -0.904  11.716  18.673  0.00  0.00    +0.000 NA
ENDROOT
BRANCH   1   8
ATOM      6  C   UNL     1      -4.905  11.837  17.056  0.00  0.00    +0.000 C 
ATOM      7  N   UNL     1      -3.593  11.701  17.628  0.00  0.00    +0.000 N 
ATOM      8  C   UNL     1      -2.556  11.117  16.923  0.00  0.00    +0.000 C 
ATOM      9  O   UNL     1      -2.645  10.791  15.743  0.00  0.00    +0.000 OA
ATOM     10  H   UNL     1      -3.434  11.825  18.622  0.00  0.00    +0.000 HD
ENDBRANCH   1   8
BRANCH   3  11
ATOM     11  C   UNL     1       1.378   8.874  19.146  0.00  0.00    +0.000 C 
ATOM     12  O   UNL     1       1.506   8.592  20.334  0.00  0.00    +0.000 OA
ATOM     13  N   UNL     1       2.140   8.271  18.168  0.00  0.00    +0.000 N 
ATOM     14  H   UNL     1       1.967   8.533  17.207  0.00  0.00    +0.000 HD
BRANCH  13  15
ATOM     15  C   UNL     1       2.966   7.086  18.403  0.00  0.00    +0.000 C 
ATOM     16  C   UNL     1       2.099   5.826  18.244  0.00  0.00    +0.000 C 
ATOM     17  C   UNL     1       2.913   4.535  18.220  0.00  0.00    +0.000 C 
ATOM     18  C   UNL     1       4.017   4.597  17.167  0.00  0.00    +0.000 C 
ATOM     19  C   UNL     1       4.938   5.783  17.429  0.00  0.00    +0.000 C 
ATOM     20  C   UNL     1       4.161   7.096  17.439  0.00  0.00    +0.000 C 
BRANCH  18  21
ATOM     21  O   UNL     1       4.765   3.390  17.176  0.00  0.00    +0.000 OA
ATOM     22  H   UNL     1       5.452   3.457  17.860  0.00  0.00    +0.000 HD
ENDBRANCH  18  21
ENDBRANCH  13  15
ENDBRANCH   3  11
BRANCH   4  23
ATOM     23  C   UNL     1       1.093  11.856  20.084  0.00  0.00    +0.000 C 
ATOM     24  C   UNL     1       1.994  12.795  19.264  0.00  0.00    +0.000 C 
BRANCH  23  25
ATOM     25  C   UNL     1       0.321  12.536  21.207  0.00  0.00    +0.000 A 
ATOM     26  C   UNL     1      -0.544  11.771  22.010  0.00  0.00    +0.000 A 
ATOM     27  C   UNL     1      -1.297  12.365  23.025  0.00  0.00    +0.000 A 
ATOM     28  C   UNL     1      -1.189  13.733  23.255  0.00  0.00    +0.000 A 
ATOM     29 CL   UNL     1      -2.136  14.472  24.488  0.00  0.00    +0.000 Cl
ATOM     30  C   UNL     1      -0.328  14.508  22.485  0.00  0.00    +0.000 A 
ATOM     31  C   UNL     1       0.419  13.913  21.462  0.00  0.00    +0.000 A 
ENDBRANCH  23  25
ENDBRANCH   4  23
TORSDOF 6
ENDMDL
MODEL 2
REMARK VINA RESULT:      -7.2      3.858      7.152
REMARK  Name = 
REMARK  8 active torsions:
REMARK  status: ('A' for Active; 'I' for Inactive)
REMARK    1  A    between atoms: C_1  and  N_2
REMARK    2  A    between atoms: C_3  and  C_5
REMARK    3  A    between atoms: C_7  and  C_8
REMARK    4  A    between atoms: N_10  and  C_11
REMARK    5  A    between atoms: C_14  and  O_15
REMARK    6  A    between atoms: N_18  and  C_19
REMARK    7  A    between atoms: C_19  and  C_20
REMARK    8  A    between atoms: C_19  and  C_21
REMARK                            x       y       z     vdW  Elec       q    Type
REMARK                         _______ _______ _______ _____ _____    ______ ____
ROOT
ATOM      1  C   UNL     1      -1.597  10.785  18.224  0.00  0.00    +0.000 A 
ATOM      2  C   UNL     1      -1.113  12.014  18.741  0.00  0.00    +0.000 A 
ATOM      3  C   UNL     1       0.036  11.712  19.455  0.00  0.00    +0.000 A 
ATOM      4  N   UNL     1       0.077  10.330  19.470  0.00  0.00    +0.000 N 
ATOM      5  N   UNL     1      -0.875   9.754  18.684  0.00  0.00    +0.000 NA
ENDROOT
BRANCH   1   8
ATOM      6  C   UNL     1      -3.287  10.518  14.885  0.00  0.00    +0.000 C 
ATOM      7  N   UNL     1      -2.328  10.494  15.956  0.00  0.00    +0.000 N 
ATOM      8  C   UNL     1      -2.717  10.634  17.275  0.00  0.00    +0.000 C 
ATOM      9  O   UNL     1      -3.892  10.669  17.630  0.00  0.00    +0.000 OA
ATOM     10  H   UNL     1      -1.334  10.587  15.777  0.00  0.00    +0.000 HD
ENDBRANCH   1   8
BRANCH   3  11
ATOM     11  C   UNL     1       1.030  12.596  20.027  0.00  0.00    +0.000 C 
ATOM     12  O   UNL     1       1.337  12.584  21.215  0.00  0.00    +0.000 OA
ATOM     13  N   UNL     1       1.626  13.455  19.128  0.00  0.00    +0.000 N 
ATOM     14  H   UNL     1       1.343  13.396  18.159  0.00  0.00    +0.000 HD
BRANCH  13  15
ATOM     15  C   UNL     1       2.830  14.231  19.430  0.00  0.00    +0.000 C 
ATOM     16  C   UNL     1       3.769  14.202  18.214  0.00  0.00    +0.000 C 
ATOM     17  C   UNL     1       4.934  15.183  18.328  0.00  0.00    +0.000 C 
ATOM     18  C   UNL     1       4.438  16.596  18.624  0.00  0.00    +0.000 C 
ATOM     19  C   UNL     1       3.618  16.615  19.910  0.00  0.00    +0.000 C 
ATOM     20  C   UNL     1       2.431  15.661  19.824  0.00  0.00    +0.000 C 
BRANCH  18  21
ATOM     21  O   UNL     1       5.541  17.484  18.739  0.00  0.00    +0.000 OA
ATOM     22  H   UNL     1       5.202  18.374  18.933  0.00  0.00    +0.000 HD
ENDBRANCH  18  21
ENDBRANCH  13  15
ENDBRANCH   3  11
BRANCH   4  23
ATOM     23  C   UNL     1       0.887   9.478  20.362  0.00  0.00    +0.000 C 
ATOM     24  C   UNL     1       0.015   8.891  21.484  0.00  0.00    +0.000 C 
BRANCH  23  25
ATOM     25  C   UNL     1       1.685   8.449  19.572  0.00  0.00    +0.000 A 
ATOM     26  C   UNL     1       1.917   7.179  20.131  0.00  0.00    +0.000 A 
ATOM     27  C   UNL     1       2.676   6.222  19.453  0.00  0.00    +0.000 A 
ATOM     28  C   UNL     1       3.207   6.522  18.202  0.00  0.00    +0.000 A 
ATOM     29 CL   UNL     1       4.164   5.354  17.377  0.00  0.00    +0.000 Cl
ATOM     30  C   UNL     1       2.978   7.765  17.622  0.00  0.00    +0.000 A 
ATOM     31  C   UNL     1       2.226   8.726  18.306  0.00  0.00    +0.000 A 
ENDBRANCH  23  25
ENDBRANCH   4  23
TORSDOF 6
ENDMDL
MODEL 3
REMARK VINA RESULT:      -7.1      0.836      1.266
REMARK  Name = 
REMARK  8 active torsions:
REMARK  status: ('A' for Active; 'I' for Inactive)
REMARK    1  A    between atoms: C_1  and  N_2
REMARK    2  A    between atoms: C_3  and  C_5
REMARK    3  A    between atoms: C_7  and  C_8
REMARK    4  A    between atoms: N_10  and  C_11
REMARK    5  A    between atoms: C_14  and  O_15
REMARK    6  A    between atoms: N_18  and  C_19
REMARK    7  A    between atoms: C_19  and  C_20
REMARK    8  A    between atoms: C_19  and  C_21
REMARK                            x       y       z     vdW  Elec       q    Type
REMARK                         _______ _______ _______ _____ _____    ______ ____
ROOT
ATOM      1  C   UNL     1      -1.309  10.710  17.906  0.00  0.00    +0.000 A 
ATOM      2  C   UNL     1      -0.385   9.647  17.743  0.00  0.00    +0.000 A 
ATOM      3  C   UNL     1       0.479   9.709  18.824  0.00  0.00    +0.000 A 
ATOM      4  N   UNL     1       0.138  10.886  19.467  0.00  0.00    +0.000 N 
ATOM      5  N   UNL     1      -0.977  11.477  18.954  0.00  0.00    +0.000 NA
ENDROOT
BRANCH   1   8
ATOM      6  C   UNL     1      -3.463  10.581  14.837  0.00  0.00    +0.000 C 
ATOM      7  N   UNL     1      -2.470  10.316  15.842  0.00  0.00    +0.000 N 
ATOM      8  C   UNL     1      -2.505  10.944  17.074  0.00  0.00    +0.000 C 
ATOM      9  O   UNL     1      -3.431  11.665  17.435  0.00  0.00    +0.000 OA
ATOM     10  H   UNL     1      -1.605   9.835  15.617  0.00  0.00    +0.000 HD
ENDBRANCH   1   8
BRANCH   3  11
ATOM     11  C   UNL     1       1.485   8.766  19.262  0.00  0.00    +0.000 C 
ATOM     12  O   UNL     1       1.677   8.486  20.441  0.00  0.00    +0.000 OA
ATOM     13  N   UNL     1       2.214   8.184  18.246  0.00  0.00    +0.000 N 
ATOM     14  H   UNL     1       1.988   8.442  17.295  0.00  0.00    +0.000 HD
BRANCH  13  15
ATOM     15  C   UNL     1       3.081   7.020  18.439  0.00  0.00    +0.000 C 
ATOM     16  C   UNL     1       2.244   5.738  18.301  0.00  0.00    +0.000 C 
ATOM     17  C   UNL     1       3.091   4.470  18.234  0.00  0.00    +0.000 C 
ATOM     18  C   UNL     1       4.151   4.571  17.140  0.00  0.00    +0.000 C 
ATOM     19  C   UNL     1       5.049   5.781  17.377  0.00  0.00    +0.000 C 
ATOM     20  C   UNL     1       4.237   7.071  17.429  0.00  0.00    +0.000 C 
BRANCH  18  21
ATOM     21  O   UNL     1       4.932   3.385  17.108  0.00  0.00    +0.000 OA
ATOM     22  H   UNL     1       4.653   2.852  16.346  0.00  0.00    +0.000 HD
ENDBRANCH  18  21
ENDBRANCH  13  15
ENDBRANCH   3  11
BRANCH   4  23
ATOM     23  C   UNL     1       0.942  11.612  20.469  0.00  0.00    +0.000 C 
ATOM     24  C   UNL     1       1.961  12.533  19.777  0.00  0.00    +0.000 C 
BRANCH  23  25
ATOM     25  C   UNL     1       0.055  12.303  21.496  0.00  0.00    +0.000 A 
ATOM     26  C   UNL     1       0.157  13.695  21.670  0.00  0.00    +0.000 A 
ATOM     27  C   UNL     1      -0.613  14.358  22.628  0.00  0.00    +0.000 A 
ATOM     28  C   UNL     1      -1.501  13.638  23.421  0.00  0.00    +0.000 A 
ATOM     29 CL   UNL     1      -2.431  14.449  24.620  0.00  0.00    +0.000 Cl
ATOM     30  C   UNL     1      -1.630  12.262  23.257  0.00  0.00    +0.000 A 
ATOM     31  C   UNL     1      -0.852  11.598  22.303  0.00  0.00    +0.000 A 
ENDBRANCH  23  25
ENDBRANCH   4  23
TORSDOF 6
ENDMDL
MODEL 4
REMARK VINA RESULT:      -7.1      4.604      9.693
REMARK  Name = 
REMARK  8 active torsions:
REMARK  status: ('A' for Active; 'I' for Inactive)
REMARK    1  A    between atoms: C_1  and  N_2
REMARK    2  A    between atoms: C_3  and  C_5
REMARK    3  A    between atoms: C_7  and  C_8
REMARK    4  A    between atoms: N_10  and  C_11
REMARK    5  A    between atoms: C_14  and  O_15
REMARK    6  A    between atoms: N_18  and  C_19
REMARK    7  A    between atoms: C_19  and  C_20
REMARK    8  A    between atoms: C_19  and  C_21
REMARK                            x       y       z     vdW  Elec       q    Type
REMARK                         _______ _______ _______ _____ _____    ______ ____
ROOT
ATOM      1  C   UNL     1       3.443   4.505  19.624  0.00  0.00    +0.000 A 
ATOM      2  C   UNL     1       2.707   5.714  19.536  0.00  0.00    +0.000 A 
ATOM      3  C   UNL     1       3.321   6.475  18.554  0.00  0.00    +0.000 A 
ATOM      4  N   UNL     1       4.467   5.769  18.240  0.00  0.00    +0.000 N 
ATOM      5  N   UNL     1       4.529   4.548  18.841  0.00  0.00    +0.000 NA
ENDROOT
BRANCH   1   8
ATOM      6  C   UNL     1       1.370   2.449  21.981  0.00  0.00    +0.000 C 
ATOM      7  N   UNL     1       1.818   3.419  21.019  0.00  0.00    +0.000 N 
ATOM      8  C   UNL     1       3.067   3.328  20.431  0.00  0.00    +0.000 C 
ATOM      9  O   UNL     1       3.819   2.371  20.593  0.00  0.00    +0.000 OA
ATOM     10  H   UNL     1       1.338   4.304  20.897  0.00  0.00    +0.000 HD
ENDBRANCH   1   8
BRANCH   3  11
ATOM     11  C   UNL     1       2.883   7.703  17.925  0.00  0.00    +0.000 C 
ATOM     12  O   UNL     1       3.163   8.003  16.768  0.00  0.00    +0.000 OA
ATOM     13  N   UNL     1       2.107   8.518  18.722  0.00  0.00    +0.000 N 
ATOM     14  H   UNL     1       1.895   8.199  19.658  0.00  0.00    +0.000 HD
BRANCH  13  15
ATOM     15  C   UNL     1       1.343   9.657  18.211  0.00  0.00    +0.000 C 
ATOM     16  C   UNL     1      -0.083   9.197  17.868  0.00  0.00    +0.000 C 
ATOM     17  C   UNL     1      -1.033  10.353  17.566  0.00  0.00    +0.000 C 
ATOM     18  C   UNL     1      -1.028  11.381  18.694  0.00  0.00    +0.000 C 
ATOM     19  C   UNL     1       0.381  11.916  18.923  0.00  0.00    +0.000 C 
ATOM     20  C   UNL     1       1.356  10.789  19.249  0.00  0.00    +0.000 C 
BRANCH  18  21
ATOM     21  O   UNL     1      -1.909  12.451  18.382  0.00  0.00    +0.000 OA
ATOM     22  H   UNL     1      -2.399  12.693  19.186  0.00  0.00    +0.000 HD
ENDBRANCH  18  21
ENDBRANCH  13  15
ENDBRANCH   3  11
BRANCH   4  23
ATOM     23  C   UNL     1       5.647   6.274  17.512  0.00  0.00    +0.000 C 
ATOM     24  C   UNL     1       6.873   6.324  18.440  0.00  0.00    +0.000 C 
BRANCH  23  25
ATOM     25  C   UNL     1       5.865   5.513  16.212  0.00  0.00    +0.000 A 
ATOM     26  C   UNL     1       7.155   5.453  15.655  0.00  0.00    +0.000 A 
ATOM     27  C   UNL     1       7.387   4.796  14.444  0.00  0.00    +0.000 A 
ATOM     28  C   UNL     1       6.330   4.183  13.778  0.00  0.00    +0.000 A 
ATOM     29 CL   UNL     1       6.609   3.395  12.273  0.00  0.00    +0.000 Cl
ATOM     30  C   UNL     1       5.048   4.214  14.317  0.00  0.00    +0.000 A 
ATOM     31  C   UNL     1       4.816   4.881  15.524  0.00  0.00    +0.000 A 
ENDBRANCH  23  25
ENDBRANCH   4  23
TORSDOF 6
ENDMDL
MODEL 5
REMARK VINA RESULT:      -7.0      4.788      9.351
REMARK  Name = 
REMARK  8 active torsions:
REMARK  status: ('A' for Active; 'I' for Inactive)
REMARK    1  A    between atoms: C_1  and  N_2
REMARK    2  A    between atoms: C_3  and  C_5
REMARK    3  A    between atoms: C_7  and  C_8
REMARK    4  A    between atoms: N_10  and  C_11
REMARK    5  A    between atoms: C_14  and  O_15
REMARK    6  A    between atoms: N_18  and  C_19
REMARK    7  A    between atoms: C_19  and  C_20
REMARK    8  A    between atoms: C_19  and  C_21
REMARK                            x       y       z     vdW  Elec       q    Type
REMARK                         _______ _______ _______ _____ _____    ______ ____
ROOT
ATOM      1  C   UNL     1       6.334   4.989  14.938  0.00  0.00    +0.000 A 
ATOM      2  C   UNL     1       5.288   5.912  15.196  0.00  0.00    +0.000 A 
ATOM      3  C   UNL     1       5.119   5.937  16.570  0.00  0.00    +0.000 A 
ATOM      4  N   UNL     1       5.934   4.922  17.035  0.00  0.00    +0.000 N 
ATOM      5  N   UNL     1       6.717   4.372  16.064  0.00  0.00    +0.000 NA
ENDROOT
BRANCH   1   8
ATOM      6  C   UNL     1       7.059   3.169  11.738  0.00  0.00    +0.000 C 
ATOM      7  N   UNL     1       6.447   3.657  12.943  0.00  0.00    +0.000 N 
ATOM      8  C   UNL     1       6.961   4.746  13.624  0.00  0.00    +0.000 C 
ATOM      9  O   UNL     1       7.884   5.432  13.196  0.00  0.00    +0.000 OA
ATOM     10  H   UNL     1       5.760   3.106  13.448  0.00  0.00    +0.000 HD
ENDBRANCH   1   8
BRANCH   3  11
ATOM     11  C   UNL     1       4.329   6.832  17.390  0.00  0.00    +0.000 C 
ATOM     12  O   UNL     1       4.743   7.914  17.795  0.00  0.00    +0.000 OA
ATOM     13  N   UNL     1       3.056   6.384  17.675  0.00  0.00    +0.000 N 
ATOM     14  H   UNL     1       2.772   5.494  17.290  0.00  0.00    +0.000 HD
BRANCH  13  15
ATOM     15  C   UNL     1       2.011   7.234  18.248  0.00  0.00    +0.000 C 
ATOM     16  C   UNL     1       2.216   7.332  19.769  0.00  0.00    +0.000 C 
ATOM     17  C   UNL     1       1.337   8.391  20.428  0.00  0.00    +0.000 C 
ATOM     18  C   UNL     1       1.502   9.748  19.748  0.00  0.00    +0.000 C 
ATOM     19  C   UNL     1       1.165   9.646  18.264  0.00  0.00    +0.000 C 
ATOM     20  C   UNL     1       2.041   8.610  17.567  0.00  0.00    +0.000 C 
BRANCH  18  21
ATOM     21  O   UNL     1       0.664  10.710  20.372  0.00  0.00    +0.000 OA
ATOM     22  H   UNL     1       0.989  10.864  21.275  0.00  0.00    +0.000 HD
ENDBRANCH  18  21
ENDBRANCH  13  15
ENDBRANCH   3  11
BRANCH   4  23
ATOM     23  C   UNL     1       5.888   4.289  18.368  0.00  0.00    +0.000 C 
ATOM     24  C   UNL     1       6.404   5.259  19.443  0.00  0.00    +0.000 C 
BRANCH  23  25
ATOM     25  C   UNL     1       4.515   3.695  18.653  0.00  0.00    +0.000 A 
ATOM     26  C   UNL     1       3.912   2.862  17.694  0.00  0.00    +0.000 A 
ATOM     27  C   UNL     1       2.638   2.329  17.903  0.00  0.00    +0.000 A 
ATOM     28  C   UNL     1       1.953   2.617  19.079  0.00  0.00    +0.000 A 
ATOM     29 CL   UNL     1       0.373   1.984  19.328  0.00  0.00    +0.000 Cl
ATOM     30  C   UNL     1       2.536   3.426  20.050  0.00  0.00    +0.000 A 
ATOM     31  C   UNL     1       3.808   3.967  19.835  0.00  0.00    +0.000 A 
ENDBRANCH  23  25
ENDBRANCH   4  23
TORSDOF 6
ENDMDL
MODEL 6
REMARK VINA RESULT:      -6.9      4.888      9.386
REMARK  Name = 
REMARK  8 active torsions:
REMARK  status: ('A' for Active; 'I' for Inactive)
REMARK    1  A    between atoms: C_1  and  N_2
REMARK    2  A    between atoms: C_3  and  C_5
REMARK    3  A    between atoms: C_7  and  C_8
REMARK    4  A    between atoms: N_10  and  C_11
REMARK    5  A    between atoms: C_14  and  O_15
REMARK    6  A    between atoms: N_18  and  C_19
REMARK    7  A    between atoms: C_19  and  C_20
REMARK    8  A    between atoms: C_19  and  C_21
REMARK                            x       y       z     vdW  Elec       q    Type
REMARK                         _______ _______ _______ _____ _____    ______ ____
ROOT
ATOM      1  C   UNL     1       6.055   4.474  14.559  0.00  0.00    +0.000 A 
ATOM      2  C   UNL     1       5.377   5.670  14.906  0.00  0.00    +0.000 A 
ATOM      3  C   UNL     1       5.446   5.772  16.286  0.00  0.00    +0.000 A 
ATOM      4  N   UNL     1       5.997   4.570  16.692  0.00  0.00    +0.000 N 
ATOM      5  N   UNL     1       6.420   3.794  15.655  0.00  0.00    +0.000 NA
ENDROOT
BRANCH   1   8
ATOM      6  C   UNL     1       5.889   2.290  11.513  0.00  0.00    +0.000 C 
ATOM      7  N   UNL     1       5.599   2.964  12.749  0.00  0.00    +0.000 N 
ATOM      8  C   UNL     1       6.364   4.030  13.186  0.00  0.00    +0.000 C 
ATOM      9  O   UNL     1       7.251   4.543  12.509  0.00  0.00    +0.000 OA
ATOM     10  H   UNL     1       4.973   2.559  13.438  0.00  0.00    +0.000 HD
ENDBRANCH   1   8
BRANCH   3  11
ATOM     11  C   UNL     1       5.092   6.877  17.152  0.00  0.00    +0.000 C 
ATOM     12  O   UNL     1       5.843   7.821  17.380  0.00  0.00    +0.000 OA
ATOM     13  N   UNL     1       3.829   6.802  17.700  0.00  0.00    +0.000 N 
ATOM     14  H   UNL     1       3.254   6.008  17.451  0.00  0.00    +0.000 HD
BRANCH  13  15
ATOM     15  C   UNL     1       3.173   7.923  18.374  0.00  0.00    +0.000 C 
ATOM     16  C   UNL     1       2.287   8.671  17.365  0.00  0.00    +0.000 C 
ATOM     17  C   UNL     1       1.366   9.700  18.019  0.00  0.00    +0.000 C 
ATOM     18  C   UNL     1       0.540   9.070  19.137  0.00  0.00    +0.000 C 
ATOM     19  C   UNL     1       1.453   8.450  20.190  0.00  0.00    +0.000 C 
ATOM     20  C   UNL     1       2.373   7.400  19.576  0.00  0.00    +0.000 C 
BRANCH  18  21
ATOM     21  O   UNL     1      -0.295  10.051  19.735  0.00  0.00    +0.000 OA
ATOM     22  H   UNL     1      -0.258  10.859  19.197  0.00  0.00    +0.000 HD
ENDBRANCH  18  21
ENDBRANCH  13  15
ENDBRANCH   3  11
BRANCH   4  23
ATOM     23  C   UNL     1       5.986   4.007  18.056  0.00  0.00    +0.000 C 
ATOM     24  C   UNL     1       6.730   4.936  19.029  0.00  0.00    +0.000 C 
BRANCH  23  25
ATOM     25  C   UNL     1       4.575   3.631  18.489  0.00  0.00    +0.000 A 
ATOM     26  C   UNL     1       3.766   2.874  17.622  0.00  0.00    +0.000 A 
ATOM     27  C   UNL     1       2.455   2.541  17.968  0.00  0.00    +0.000 A 
ATOM     28  C   UNL     1       1.937   2.956  19.191  0.00  0.00    +0.000 A 
ATOM     29 CL   UNL     1       0.313   2.571  19.609  0.00  0.00    +0.000 Cl
ATOM     30  C   UNL     1       2.723   3.692  20.072  0.00  0.00    +0.000 A 
ATOM     31  C   UNL     1       4.033   4.033  19.720  0.00  0.00    +0.000 A 
ENDBRANCH  23  25
ENDBRANCH   4  23
TORSDOF 6
ENDMDL
MODEL 7
REMARK VINA RESULT:      -6.9      1.385      1.802
REMARK  Name = 
REMARK  8 active torsions:
REMARK  status: ('A' for Active; 'I' for Inactive)
REMARK    1  A    between atoms: C_1  and  N_2
REMARK    2  A    between atoms: C_3  and  C_5
REMARK    3  A    between atoms: C_7  and  C_8
REMARK    4  A    between atoms: N_10  and  C_11
REMARK    5  A    between atoms: C_14  and  O_15
REMARK    6  A    between atoms: N_18  and  C_19
REMARK    7  A    between atoms: C_19  and  C_20
REMARK    8  A    between atoms: C_19  and  C_21
REMARK                            x       y       z     vdW  Elec       q    Type
REMARK                         _______ _______ _______ _____ _____    ______ ____
ROOT
ATOM      1  C   UNL     1      -1.426  10.893  17.803  0.00  0.00    +0.000 A 
ATOM      2  C   UNL     1      -0.647   9.734  18.048  0.00  0.00    +0.000 A 
ATOM      3  C   UNL     1       0.210  10.051  19.090  0.00  0.00    +0.000 A 
ATOM      4  N   UNL     1       0.020  11.406  19.288  0.00  0.00    +0.000 N 
ATOM      5  N   UNL     1      -1.005  11.921  18.553  0.00  0.00    +0.000 NA
ENDROOT
BRANCH   1   8
ATOM      6  C   UNL     1      -3.335  10.415  14.609  0.00  0.00    +0.000 C 
ATOM      7  N   UNL     1      -2.398  10.291  15.692  0.00  0.00    +0.000 N 
ATOM      8  C   UNL     1      -2.575  10.976  16.880  0.00  0.00    +0.000 C 
ATOM      9  O   UNL     1      -3.582  11.628  17.137  0.00  0.00    +0.000 OA
ATOM     10  H   UNL     1      -1.481   9.880  15.553  0.00  0.00    +0.000 HD
ENDBRANCH   1   8
BRANCH   3  11
ATOM     11  C   UNL     1       1.082   9.195  19.866  0.00  0.00    +0.000 C 
ATOM     12  O   UNL     1       1.180   9.265  21.087  0.00  0.00    +0.000 OA
ATOM     13  N   UNL     1       1.795   8.274  19.128  0.00  0.00    +0.000 N 
ATOM     14  H   UNL     1       1.649   8.255  18.128  0.00  0.00    +0.000 HD
BRANCH  13  15
ATOM     15  C   UNL     1       2.517   7.148  19.723  0.00  0.00    +0.000 C 
ATOM     16  C   UNL     1       1.513   6.217  20.423  0.00  0.00    +0.000 C 
ATOM     17  C   UNL     1       2.127   4.888  20.857  0.00  0.00    +0.000 C 
ATOM     18  C   UNL     1       2.822   4.193  19.690  0.00  0.00    +0.000 C 
ATOM     19  C   UNL     1       3.903   5.092  19.100  0.00  0.00    +0.000 C 
ATOM     20  C   UNL     1       3.322   6.424  18.634  0.00  0.00    +0.000 C 
BRANCH  18  21
ATOM     21  O   UNL     1       3.395   2.968  20.124  0.00  0.00    +0.000 OA
ATOM     22  H   UNL     1       3.976   3.149  20.882  0.00  0.00    +0.000 HD
ENDBRANCH  18  21
ENDBRANCH  13  15
ENDBRANCH   3  11
BRANCH   4  23
ATOM     23  C   UNL     1       0.904  12.325  20.032  0.00  0.00    +0.000 C 
ATOM     24  C   UNL     1       1.565  13.331  19.075  0.00  0.00    +0.000 C 
BRANCH  23  25
ATOM     25  C   UNL     1       0.180  12.954  21.216  0.00  0.00    +0.000 A 
ATOM     26  C   UNL     1       0.388  14.314  21.508  0.00  0.00    +0.000 A 
ATOM     27  C   UNL     1      -0.228  14.916  22.607  0.00  0.00    +0.000 A 
ATOM     28  C   UNL     1      -1.069  14.167  23.424  0.00  0.00    +0.000 A 
ATOM     29 CL   UNL     1      -1.809  14.900  24.794  0.00  0.00    +0.000 Cl
ATOM     30  C   UNL     1      -1.303  12.824  23.146  0.00  0.00    +0.000 A 
ATOM     31  C   UNL     1      -0.677  12.219  22.051  0.00  0.00    +0.000 A 
ENDBRANCH  23  25
ENDBRANCH   4  23
TORSDOF 6
ENDMDL
MODEL 8
REMARK VINA RESULT:      -6.9      4.569      9.556
REMARK  Name = 
REMARK  8 active torsions:
REMARK  status: ('A' for Active; 'I' for Inactive)
REMARK    1  A    between atoms: C_1  and  N_2
REMARK    2  A    between atoms: C_3  and  C_5
REMARK    3  A    between atoms: C_7  and  C_8
REMARK    4  A    between atoms: N_10  and  C_11
REMARK    5  A    between atoms: C_14  and  O_15
REMARK    6  A    between atoms: N_18  and  C_19
REMARK    7  A    between atoms: C_19  and  C_20
REMARK    8  A    between atoms: C_19  and  C_21
REMARK                            x       y       z     vdW  Elec       q    Type
REMARK                         _______ _______ _______ _____ _____    ______ ____
ROOT
ATOM      1  C   UNL     1       2.851   4.392  19.434  0.00  0.00    +0.000 A 
ATOM      2  C   UNL     1       2.234   5.667  19.347  0.00  0.00    +0.000 A 
ATOM      3  C   UNL     1       3.049   6.441  18.537  0.00  0.00    +0.000 A 
ATOM      4  N   UNL     1       4.170   5.658  18.332  0.00  0.00    +0.000 N 
ATOM      5  N   UNL     1       4.044   4.395  18.825  0.00  0.00    +0.000 NA
ENDROOT
BRANCH   1   8
ATOM      6  C   UNL     1       1.304   2.340  22.168  0.00  0.00    +0.000 C 
ATOM      7  N   UNL     1       1.746   3.423  21.333  0.00  0.00    +0.000 N 
ATOM      8  C   UNL     1       2.265   3.197  20.071  0.00  0.00    +0.000 C 
ATOM      9  O   UNL     1       2.274   2.092  19.536  0.00  0.00    +0.000 OA
ATOM     10  H   UNL     1       1.894   4.354  21.709  0.00  0.00    +0.000 HD
ENDBRANCH   1   8
BRANCH   3  11
ATOM     11  C   UNL     1       2.810   7.747  17.962  0.00  0.00    +0.000 C 
ATOM     12  O   UNL     1       3.369   8.146  16.944  0.00  0.00    +0.000 OA
ATOM     13  N   UNL     1       1.888   8.518  18.637  0.00  0.00    +0.000 N 
ATOM     14  H   UNL     1       1.448   8.119  19.455  0.00  0.00    +0.000 HD
BRANCH  13  15
ATOM     15  C   UNL     1       1.302   9.742  18.089  0.00  0.00    +0.000 C 
ATOM     16  C   UNL     1      -0.210   9.746  18.364  0.00  0.00    +0.000 C 
ATOM     17  C   UNL     1      -0.874  11.087  18.059  0.00  0.00    +0.000 C 
ATOM     18  C   UNL     1      -0.167  12.231  18.781  0.00  0.00    +0.000 C 
ATOM     19  C   UNL     1       1.305  12.282  18.386  0.00  0.00    +0.000 C 
ATOM     20  C   UNL     1       2.008  10.964  18.697  0.00  0.00    +0.000 C 
BRANCH  18  21
ATOM     21  O   UNL     1      -0.796  13.466  18.469  0.00  0.00    +0.000 OA
ATOM     22  H   UNL     1      -1.325  13.745  19.235  0.00  0.00    +0.000 HD
ENDBRANCH  18  21
ENDBRANCH  13  15
ENDBRANCH   3  11
BRANCH   4  23
ATOM     23  C   UNL     1       5.484   6.108  17.831  0.00  0.00    +0.000 C 
ATOM     24  C   UNL     1       6.571   5.887  18.896  0.00  0.00    +0.000 C 
BRANCH  23  25
ATOM     25  C   UNL     1       5.796   5.502  16.469  0.00  0.00    +0.000 A 
ATOM     26  C   UNL     1       4.755   4.933  15.713  0.00  0.00    +0.000 A 
ATOM     27  C   UNL     1       5.007   4.335  14.477  0.00  0.00    +0.000 A 
ATOM     28  C   UNL     1       6.305   4.304  13.976  0.00  0.00    +0.000 A 
ATOM     29 CL   UNL     1       6.623   3.544  12.466  0.00  0.00    +0.000 Cl
ATOM     30  C   UNL     1       7.349   4.874  14.699  0.00  0.00    +0.000 A 
ATOM     31  C   UNL     1       7.096   5.465  15.941  0.00  0.00    +0.000 A 
ENDBRANCH  23  25
ENDBRANCH   4  23
TORSDOF 6
ENDMDL
MODEL 9
REMARK VINA RESULT:      -6.9      1.192      1.628
REMARK  Name = 
REMARK  8 active torsions:
REMARK  status: ('A' for Active; 'I' for Inactive)
REMARK    1  A    between atoms: C_1  and  N_2
REMARK    2  A    between atoms: C_3  and  C_5
REMARK    3  A    between atoms: C_7  and  C_8
REMARK    4  A    between atoms: N_10  and  C_11
REMARK    5  A    between atoms: C_14  and  O_15
REMARK    6  A    between atoms: N_18  and  C_19
REMARK    7  A    between atoms: C_19  and  C_20
REMARK    8  A    between atoms: C_19  and  C_21
REMARK                            x       y       z     vdW  Elec       q    Type
REMARK                         _______ _______ _______ _____ _____    ______ ____
ROOT
ATOM      1  C   UNL     1      -1.329  10.868  18.118  0.00  0.00    +0.000 A 
ATOM      2  C   UNL     1      -0.428   9.777  18.204  0.00  0.00    +0.000 A 
ATOM      3  C   UNL     1       0.277   9.944  19.385  0.00  0.00    +0.000 A 
ATOM      4  N   UNL     1      -0.111  11.190  19.843  0.00  0.00    +0.000 N 
ATOM      5  N   UNL     1      -1.123  11.740  19.114  0.00  0.00    +0.000 NA
ENDROOT
BRANCH   1   8
ATOM      6  C   UNL     1      -4.684  11.837  16.745  0.00  0.00    +0.000 C 
ATOM      7  N   UNL     1      -3.490  11.741  17.540  0.00  0.00    +0.000 N 
ATOM      8  C   UNL     1      -2.387  11.030  17.102  0.00  0.00    +0.000 C 
ATOM      9  O   UNL     1      -2.305  10.541  15.979  0.00  0.00    +0.000 OA
ATOM     10  H   UNL     1      -3.485  12.002  18.520  0.00  0.00    +0.000 HD
ENDBRANCH   1   8
BRANCH   3  11
ATOM     11  C   UNL     1       1.180   9.037  20.062  0.00  0.00    +0.000 C 
ATOM     12  O   UNL     1       1.355   9.044  21.276  0.00  0.00    +0.000 OA
ATOM     13  N   UNL     1       1.827   8.141  19.237  0.00  0.00    +0.000 N 
ATOM     14  H   UNL     1       1.617   8.175  18.248  0.00  0.00    +0.000 HD
BRANCH  13  15
ATOM     15  C   UNL     1       2.563   6.976  19.729  0.00  0.00    +0.000 C 
ATOM     16  C   UNL     1       1.574   5.985  20.364  0.00  0.00    +0.000 C 
ATOM     17  C   UNL     1       2.201   4.629  20.682  0.00  0.00    +0.000 C 
ATOM     18  C   UNL     1       2.884   4.035  19.453  0.00  0.00    +0.000 C 
ATOM     19  C   UNL     1       3.952   4.986  18.923  0.00  0.00    +0.000 C 
ATOM     20  C   UNL     1       3.357   6.347  18.575  0.00  0.00    +0.000 C 
BRANCH  18  21
ATOM     21  O   UNL     1       3.469   2.783  19.779  0.00  0.00    +0.000 OA
ATOM     22  H   UNL     1       3.855   2.402  18.973  0.00  0.00    +0.000 HD
ENDBRANCH  18  21
ENDBRANCH  13  15
ENDBRANCH   3  11
BRANCH   4  23
ATOM     23  C   UNL     1       0.567  12.009  20.866  0.00  0.00    +0.000 C 
ATOM     24  C   UNL     1       1.487  13.048  20.203  0.00  0.00    +0.000 C 
BRANCH  23  25
ATOM     25  C   UNL     1      -0.428  12.585  21.865  0.00  0.00    +0.000 A 
ATOM     26  C   UNL     1      -0.325  13.937  22.239  0.00  0.00    +0.000 A 
ATOM     27  C   UNL     1      -1.196  14.492  23.179  0.00  0.00    +0.000 A 
ATOM     28  C   UNL     1      -2.187  13.702  23.753  0.00  0.00    +0.000 A 
ATOM     29 CL   UNL     1      -3.244  14.376  24.932  0.00  0.00    +0.000 Cl
ATOM     30  C   UNL     1      -2.319  12.366  23.387  0.00  0.00    +0.000 A 
ATOM     31  C   UNL     1      -1.440  11.809  22.452  0.00  0.00    +0.000 A 
ENDBRANCH  23  25
ENDBRANCH   4  23
TORSDOF 6
ENDMDL
