MODEL 1
REMARK VINA RESULT:      -8.1      0.000      0.000
REMARK  Name = 
REMARK  3 active torsions:
REMARK  status: ('A' for Active; 'I' for Inactive)
REMARK    1  A    between atoms: C_2  and  C_3
REMARK    2  A    between atoms: C_4  and  C_5
REMARK    3  A    between atoms: C_15  and  C_16
REMARK                            x       y       z     vdW  Elec       q    Type
REMARK                         _______ _______ _______ _____ _____    ______ ____
ROOT
ATOM      1  O   UNL     1       2.549   3.355  20.676  0.00  0.00    +0.000 OA
ATOM      2  C   UNL     1       2.834   3.992  19.661  0.00  0.00    +0.000 C 
ATOM      3  N   UNL     1       3.581   3.428  18.663  0.00  0.00    +0.000 N 
ATOM      4  C   UNL     1       4.215   4.067  17.614  0.00  0.00    +0.000 A 
ATOM      5  C   UNL     1       4.782   3.414  16.496  0.00  0.00    +0.000 A 
ATOM      6  C   UNL     1       5.291   4.412  15.685  0.00  0.00    +0.000 A 
ATOM      7  N   UNL     1       5.050   5.567  16.378  0.00  0.00    +0.000 N 
ATOM      8  N   UNL     1       4.391   5.385  17.526  0.00  0.00    +0.000 NA
ATOM      9  H   UNL     1       3.750   2.438  18.768  0.00  0.00    +0.000 HD
ATOM     10  H   UNL     1       5.315   6.512  16.126  0.00  0.00    +0.000 HD
ENDROOT
BRANCH   6  11
ATOM     11  C   UNL     1       5.983   4.374  14.399  0.00  0.00    +0.000 A 
ATOM     12  C   UNL     1       7.137   5.137  14.166  0.00  0.00    +0.000 A 
ATOM     13  C   UNL     1       7.797   5.072  12.936  0.00  0.00    +0.000 A 
ATOM     14  C   UNL     1       7.308   4.249  11.924  0.00  0.00    +0.000 A 
ATOM     15  C   UNL     1       6.158   3.495  12.139  0.00  0.00    +0.000 A 
ATOM     16  C   UNL     1       5.498   3.560  13.368  0.00  0.00    +0.000 A 
ENDBRANCH   6  11
BRANCH   2  17
ATOM     17  C   UNL     1       2.271   5.343  19.417  0.00  0.00    +0.000 C 
ATOM     18  C   UNL     1       2.424   6.386  20.244  0.00  0.00    +0.000 C 
BRANCH  18  19
ATOM     19  C   UNL     1       1.852   7.707  19.927  0.00  0.00    +0.000 A 
ATOM     20  C   UNL     1       1.097   8.440  20.859  0.00  0.00    +0.000 A 
ATOM     21  C   UNL     1       0.551   9.681  20.530  0.00  0.00    +0.000 A 
ATOM     22  C   UNL     1       0.772  10.214  19.266  0.00  0.00    +0.000 A 
ATOM     23 BR   UNL     1       0.042  11.899  18.822  0.00  0.00    +0.000 Br
ATOM     24  C   UNL     1       1.533   9.514  18.331  0.00  0.00    +0.000 A 
ATOM     25  C   UNL     1       2.072   8.265  18.662  0.00  0.00    +0.000 A 
ENDBRANCH  18  19
ENDBRANCH   2  17
TORSDOF 3
ENDMDL
MODEL 2
REMARK VINA RESULT:      -8.1      0.251      1.036
REMARK  Name = 
REMARK  3 active torsions:
REMARK  status: ('A' for Active; 'I' for Inactive)
REMARK    1  A    between atoms: C_2  and  C_3
REMARK    2  A    between atoms: C_4  and  C_5
REMARK    3  A    between atoms: C_15  and  C_16
REMARK                            x       y       z     vdW  Elec       q    Type
REMARK                         _______ _______ _______ _____ _____    ______ ____
ROOT
ATOM      1  O   UNL     1       2.612   3.712  20.666  0.00  0.00    +0.000 OA
ATOM      2  C   UNL     1       2.902   4.308  19.629  0.00  0.00    +0.000 C 
ATOM      3  N   UNL     1       3.639   3.697  18.650  0.00  0.00    +0.000 N 
ATOM      4  C   UNL     1       4.280   4.289  17.577  0.00  0.00    +0.000 A 
ATOM      5  C   UNL     1       4.836   3.588  16.483  0.00  0.00    +0.000 A 
ATOM      6  C   UNL     1       5.356   4.549  15.635  0.00  0.00    +0.000 A 
ATOM      7  N   UNL     1       5.133   5.731  16.287  0.00  0.00    +0.000 N 
ATOM      8  N   UNL     1       4.474   5.601  17.441  0.00  0.00    +0.000 NA
ATOM      9  H   UNL     1       3.795   2.710  18.790  0.00  0.00    +0.000 HD
ATOM     10  H   UNL     1       5.411   6.663  16.000  0.00  0.00    +0.000 HD
ENDROOT
BRANCH   6  11
ATOM     11  C   UNL     1       6.045   4.455  14.350  0.00  0.00    +0.000 A 
ATOM     12  C   UNL     1       7.208   5.194  14.087  0.00  0.00    +0.000 A 
ATOM     13  C   UNL     1       7.864   5.075  12.859  0.00  0.00    +0.000 A 
ATOM     14  C   UNL     1       7.362   4.222  11.879  0.00  0.00    +0.000 A 
ATOM     15  C   UNL     1       6.204   3.490  12.125  0.00  0.00    +0.000 A 
ATOM     16  C   UNL     1       5.547   3.609  13.352  0.00  0.00    +0.000 A 
ENDBRANCH   6  11
BRANCH   2  17
ATOM     17  C   UNL     1       2.358   5.657  19.337  0.00  0.00    +0.000 C 
ATOM     18  C   UNL     1       2.315   6.663  20.222  0.00  0.00    +0.000 C 
BRANCH  18  19
ATOM     19  C   UNL     1       1.776   7.984  19.855  0.00  0.00    +0.000 A 
ATOM     20  C   UNL     1       1.934   8.526  18.567  0.00  0.00    +0.000 A 
ATOM     21  C   UNL     1       1.430   9.788  18.247  0.00  0.00    +0.000 A 
ATOM     22  C   UNL     1       0.743  10.516  19.211  0.00  0.00    +0.000 A 
ATOM     23 BR   UNL     1       0.052  12.219  18.777  0.00  0.00    +0.000 Br
ATOM     24  C   UNL     1       0.559   9.992  20.489  0.00  0.00    +0.000 A 
ATOM     25  C   UNL     1       1.073   8.729  20.808  0.00  0.00    +0.000 A 
ENDBRANCH  18  19
ENDBRANCH   2  17
TORSDOF 3
ENDMDL
MODEL 3
REMARK VINA RESULT:      -8.0      0.112      1.425
REMARK  Name = 
REMARK  3 active torsions:
REMARK  status: ('A' for Active; 'I' for Inactive)
REMARK    1  A    between atoms: C_2  and  C_3
REMARK    2  A    between atoms: C_4  and  C_5
REMARK    3  A    between atoms: C_15  and  C_16
REMARK                            x       y       z     vdW  Elec       q    Type
REMARK                         _______ _______ _______ _____ _____    ______ ____
ROOT
ATOM      1  O   UNL     1       2.539   3.505  20.727  0.00  0.00    +0.000 OA
ATOM      2  C   UNL     1       2.825   4.115  19.696  0.00  0.00    +0.000 C 
ATOM      3  N   UNL     1       3.562   3.521  18.708  0.00  0.00    +0.000 N 
ATOM      4  C   UNL     1       4.198   4.129  17.642  0.00  0.00    +0.000 A 
ATOM      5  C   UNL     1       4.755   3.445  16.538  0.00  0.00    +0.000 A 
ATOM      6  C   UNL     1       5.270   4.419  15.701  0.00  0.00    +0.000 A 
ATOM      7  N   UNL     1       5.042   5.592  16.369  0.00  0.00    +0.000 N 
ATOM      8  N   UNL     1       4.386   5.443  17.523  0.00  0.00    +0.000 NA
ATOM      9  H   UNL     1       3.723   2.532  18.836  0.00  0.00    +0.000 HD
ATOM     10  H   UNL     1       5.315   6.528  16.093  0.00  0.00    +0.000 HD
ENDROOT
BRANCH   6  11
ATOM     11  C   UNL     1       5.956   4.345  14.414  0.00  0.00    +0.000 A 
ATOM     12  C   UNL     1       5.465   3.548  13.368  0.00  0.00    +0.000 A 
ATOM     13  C   UNL     1       6.124   3.507  12.137  0.00  0.00    +0.000 A 
ATOM     14  C   UNL     1       7.282   4.254  11.938  0.00  0.00    +0.000 A 
ATOM     15  C   UNL     1       7.785   5.040  12.972  0.00  0.00    +0.000 A 
ATOM     16  C   UNL     1       7.127   5.082  14.203  0.00  0.00    +0.000 A 
ENDBRANCH   6  11
BRANCH   2  17
ATOM     17  C   UNL     1       2.274   5.465  19.423  0.00  0.00    +0.000 C 
ATOM     18  C   UNL     1       2.366   6.504  20.264  0.00  0.00    +0.000 C 
BRANCH  18  19
ATOM     19  C   UNL     1       1.810   7.824  19.917  0.00  0.00    +0.000 A 
ATOM     20  C   UNL     1       1.924   8.368  18.625  0.00  0.00    +0.000 A 
ATOM     21  C   UNL     1       1.405   9.628  18.323  0.00  0.00    +0.000 A 
ATOM     22  C   UNL     1       0.745  10.351  19.310  0.00  0.00    +0.000 A 
ATOM     23 BR   UNL     1       0.033  12.052  18.901  0.00  0.00    +0.000 Br
ATOM     24  C   UNL     1       0.605   9.825  20.592  0.00  0.00    +0.000 A 
ATOM     25  C   UNL     1       1.134   8.564  20.893  0.00  0.00    +0.000 A 
ENDBRANCH  18  19
ENDBRANCH   2  17
TORSDOF 3
ENDMDL
MODEL 4
REMARK VINA RESULT:      -8.0      0.077      1.008
REMARK  Name = 
REMARK  3 active torsions:
REMARK  status: ('A' for Active; 'I' for Inactive)
REMARK    1  A    between atoms: C_2  and  C_3
REMARK    2  A    between atoms: C_4  and  C_5
REMARK    3  A    between atoms: C_15  and  C_16
REMARK                            x       y       z     vdW  Elec       q    Type
REMARK                         _______ _______ _______ _____ _____    ______ ____
ROOT
ATOM      1  O   UNL     1       2.551   3.418  20.685  0.00  0.00    +0.000 OA
ATOM      2  C   UNL     1       2.845   4.046  19.668  0.00  0.00    +0.000 C 
ATOM      3  N   UNL     1       3.576   3.462  18.668  0.00  0.00    +0.000 N 
ATOM      4  C   UNL     1       4.220   4.083  17.615  0.00  0.00    +0.000 A 
ATOM      5  C   UNL     1       4.769   3.414  16.497  0.00  0.00    +0.000 A 
ATOM      6  C   UNL     1       5.296   4.398  15.680  0.00  0.00    +0.000 A 
ATOM      7  N   UNL     1       5.084   5.560  16.372  0.00  0.00    +0.000 N 
ATOM      8  N   UNL     1       4.425   5.397  17.522  0.00  0.00    +0.000 NA
ATOM      9  H   UNL     1       3.723   2.469  18.775  0.00  0.00    +0.000 HD
ATOM     10  H   UNL     1       5.370   6.498  16.115  0.00  0.00    +0.000 HD
ENDROOT
BRANCH   6  11
ATOM     11  C   UNL     1       5.982   4.341  14.392  0.00  0.00    +0.000 A 
ATOM     12  C   UNL     1       5.493   3.557  13.337  0.00  0.00    +0.000 A 
ATOM     13  C   UNL     1       6.151   3.531  12.105  0.00  0.00    +0.000 A 
ATOM     14  C   UNL     1       7.308   4.283  11.915  0.00  0.00    +0.000 A 
ATOM     15  C   UNL     1       7.809   5.057  12.958  0.00  0.00    +0.000 A 
ATOM     16  C   UNL     1       7.151   5.084  14.190  0.00  0.00    +0.000 A 
ENDBRANCH   6  11
BRANCH   2  17
ATOM     17  C   UNL     1       2.313   5.409  19.421  0.00  0.00    +0.000 C 
ATOM     18  C   UNL     1       2.362   6.412  20.309  0.00  0.00    +0.000 C 
BRANCH  18  19
ATOM     19  C   UNL     1       1.829   7.747  19.988  0.00  0.00    +0.000 A 
ATOM     20  C   UNL     1       1.170   8.541  20.944  0.00  0.00    +0.000 A 
ATOM     21  C   UNL     1       0.658   9.796  20.611  0.00  0.00    +0.000 A 
ATOM     22  C   UNL     1       0.819  10.281  19.319  0.00  0.00    +0.000 A 
ATOM     23 BR   UNL     1       0.135  11.984  18.870  0.00  0.00    +0.000 Br
ATOM     24  C   UNL     1       1.483   9.520  18.360  0.00  0.00    +0.000 A 
ATOM     25  C   UNL     1       1.988   8.258  18.694  0.00  0.00    +0.000 A 
ENDBRANCH  18  19
ENDBRANCH   2  17
TORSDOF 3
ENDMDL
MODEL 5
REMARK VINA RESULT:      -7.2      3.168      8.029
REMARK  Name = 
REMARK  3 active torsions:
REMARK  status: ('A' for Active; 'I' for Inactive)
REMARK    1  A    between atoms: C_2  and  C_3
REMARK    2  A    between atoms: C_4  and  C_5
REMARK    3  A    between atoms: C_15  and  C_16
REMARK                            x       y       z     vdW  Elec       q    Type
REMARK                         _______ _______ _______ _____ _____    ______ ____
ROOT
ATOM      1  O   UNL     1       3.266   4.145  20.567  0.00  0.00    +0.000 OA
ATOM      2  C   UNL     1       3.238   5.157  19.866  0.00  0.00    +0.000 C 
ATOM      3  N   UNL     1       2.506   6.252  20.240  0.00  0.00    +0.000 N 
ATOM      4  C   UNL     1       2.142   7.335  19.462  0.00  0.00    +0.000 A 
ATOM      5  C   UNL     1       1.579   8.532  19.959  0.00  0.00    +0.000 A 
ATOM      6  C   UNL     1       1.386   9.352  18.861  0.00  0.00    +0.000 A 
ATOM      7  N   UNL     1       1.786   8.590  17.797  0.00  0.00    +0.000 N 
ATOM      8  N   UNL     1       2.259   7.387  18.136  0.00  0.00    +0.000 NA
ATOM      9  H   UNL     1       2.121   6.206  21.173  0.00  0.00    +0.000 HD
ATOM     10  H   UNL     1       1.756   8.830  16.813  0.00  0.00    +0.000 HD
ENDROOT
BRANCH   6  11
ATOM     11  C   UNL     1       0.851  10.704  18.728  0.00  0.00    +0.000 A 
ATOM     12  C   UNL     1       1.696  11.824  18.679  0.00  0.00    +0.000 A 
ATOM     13  C   UNL     1       1.165  13.108  18.530  0.00  0.00    +0.000 A 
ATOM     14  C   UNL     1      -0.212  13.289  18.435  0.00  0.00    +0.000 A 
ATOM     15  C   UNL     1      -1.061  12.187  18.492  0.00  0.00    +0.000 A 
ATOM     16  C   UNL     1      -0.532  10.903  18.641  0.00  0.00    +0.000 A 
ENDBRANCH   6  11
BRANCH   2  17
ATOM     17  C   UNL     1       4.096   5.285  18.663  0.00  0.00    +0.000 C 
ATOM     18  C   UNL     1       4.415   4.268  17.851  0.00  0.00    +0.000 C 
BRANCH  18  19
ATOM     19  C   UNL     1       5.259   4.474  16.660  0.00  0.00    +0.000 A 
ATOM     20  C   UNL     1       4.805   4.182  15.361  0.00  0.00    +0.000 A 
ATOM     21  C   UNL     1       5.629   4.369  14.250  0.00  0.00    +0.000 A 
ATOM     22  C   UNL     1       6.913   4.871  14.425  0.00  0.00    +0.000 A 
ATOM     23 BR   UNL     1       8.025   5.133  12.921  0.00  0.00    +0.000 Br
ATOM     24  C   UNL     1       7.378   5.184  15.701  0.00  0.00    +0.000 A 
ATOM     25  C   UNL     1       6.552   4.987  16.814  0.00  0.00    +0.000 A 
ENDBRANCH  18  19
ENDBRANCH   2  17
TORSDOF 3
ENDMDL
MODEL 6
REMARK VINA RESULT:      -7.2      3.220      8.126
REMARK  Name = 
REMARK  3 active torsions:
REMARK  status: ('A' for Active; 'I' for Inactive)
REMARK    1  A    between atoms: C_2  and  C_3
REMARK    2  A    between atoms: C_4  and  C_5
REMARK    3  A    between atoms: C_15  and  C_16
REMARK                            x       y       z     vdW  Elec       q    Type
REMARK                         _______ _______ _______ _____ _____    ______ ____
ROOT
ATOM      1  O   UNL     1       3.164   4.262  20.570  0.00  0.00    +0.000 OA
ATOM      2  C   UNL     1       3.126   5.262  19.853  0.00  0.00    +0.000 C 
ATOM      3  N   UNL     1       2.433   6.378  20.239  0.00  0.00    +0.000 N 
ATOM      4  C   UNL     1       2.058   7.455  19.459  0.00  0.00    +0.000 A 
ATOM      5  C   UNL     1       1.541   8.672  19.959  0.00  0.00    +0.000 A 
ATOM      6  C   UNL     1       1.318   9.477  18.856  0.00  0.00    +0.000 A 
ATOM      7  N   UNL     1       1.654   8.689  17.789  0.00  0.00    +0.000 N 
ATOM      8  N   UNL     1       2.117   7.483  18.128  0.00  0.00    +0.000 NA
ATOM      9  H   UNL     1       2.089   6.356  21.188  0.00  0.00    +0.000 HD
ATOM     10  H   UNL     1       1.585   8.913  16.803  0.00  0.00    +0.000 HD
ENDROOT
BRANCH   6  11
ATOM     11  C   UNL     1       0.805  10.838  18.722  0.00  0.00    +0.000 A 
ATOM     12  C   UNL     1      -0.573  11.104  18.725  0.00  0.00    +0.000 A 
ATOM     13  C   UNL     1      -1.044  12.416  18.617  0.00  0.00    +0.000 A 
ATOM     14  C   UNL     1      -0.146  13.473  18.499  0.00  0.00    +0.000 A 
ATOM     15  C   UNL     1       1.223  13.221  18.486  0.00  0.00    +0.000 A 
ATOM     16  C   UNL     1       1.695  11.911  18.593  0.00  0.00    +0.000 A 
ENDBRANCH   6  11
BRANCH   2  17
ATOM     17  C   UNL     1       3.933   5.351  18.611  0.00  0.00    +0.000 C 
ATOM     18  C   UNL     1       4.734   4.377  18.159  0.00  0.00    +0.000 C 
BRANCH  18  19
ATOM     19  C   UNL     1       5.493   4.529  16.904  0.00  0.00    +0.000 A 
ATOM     20  C   UNL     1       6.847   4.909  16.889  0.00  0.00    +0.000 A 
ATOM     21  C   UNL     1       7.540   5.063  15.688  0.00  0.00    +0.000 A 
ATOM     22  C   UNL     1       6.889   4.818  14.484  0.00  0.00    +0.000 A 
ATOM     23 BR   UNL     1       7.829   5.016  12.858  0.00  0.00    +0.000 Br
ATOM     24  C   UNL     1       5.553   4.422  14.476  0.00  0.00    +0.000 A 
ATOM     25  C   UNL     1       4.859   4.277  15.682  0.00  0.00    +0.000 A 
ENDBRANCH  18  19
ENDBRANCH   2  17
TORSDOF 3
ENDMDL
MODEL 7
REMARK VINA RESULT:      -7.2      3.216      8.074
REMARK  Name = 
REMARK  3 active torsions:
REMARK  status: ('A' for Active; 'I' for Inactive)
REMARK    1  A    between atoms: C_2  and  C_3
REMARK    2  A    between atoms: C_4  and  C_5
REMARK    3  A    between atoms: C_15  and  C_16
REMARK                            x       y       z     vdW  Elec       q    Type
REMARK                         _______ _______ _______ _____ _____    ______ ____
ROOT
ATOM      1  O   UNL     1       3.141   4.238  20.540  0.00  0.00    +0.000 OA
ATOM      2  C   UNL     1       3.097   5.238  19.824  0.00  0.00    +0.000 C 
ATOM      3  N   UNL     1       2.420   6.359  20.223  0.00  0.00    +0.000 N 
ATOM      4  C   UNL     1       2.039   7.440  19.450  0.00  0.00    +0.000 A 
ATOM      5  C   UNL     1       1.540   8.660  19.959  0.00  0.00    +0.000 A 
ATOM      6  C   UNL     1       1.303   9.467  18.860  0.00  0.00    +0.000 A 
ATOM      7  N   UNL     1       1.615   8.677  17.787  0.00  0.00    +0.000 N 
ATOM      8  N   UNL     1       2.075   7.467  18.118  0.00  0.00    +0.000 NA
ATOM      9  H   UNL     1       2.092   6.339  21.178  0.00  0.00    +0.000 HD
ATOM     10  H   UNL     1       1.530   8.902  16.803  0.00  0.00    +0.000 HD
ENDROOT
BRANCH   6  11
ATOM     11  C   UNL     1       0.797  10.832  18.736  0.00  0.00    +0.000 A 
ATOM     12  C   UNL     1       1.667  11.926  18.614  0.00  0.00    +0.000 A 
ATOM     13  C   UNL     1       1.164  13.222  18.475  0.00  0.00    +0.000 A 
ATOM     14  C   UNL     1      -0.211  13.440  18.462  0.00  0.00    +0.000 A 
ATOM     15  C   UNL     1      -1.084  12.364  18.592  0.00  0.00    +0.000 A 
ATOM     16  C   UNL     1      -0.583  11.068  18.731  0.00  0.00    +0.000 A 
ENDBRANCH   6  11
BRANCH   2  17
ATOM     17  C   UNL     1       3.883   5.323  18.569  0.00  0.00    +0.000 C 
ATOM     18  C   UNL     1       4.778   4.407  18.174  0.00  0.00    +0.000 C 
BRANCH  18  19
ATOM     19  C   UNL     1       5.509   4.547  16.903  0.00  0.00    +0.000 A 
ATOM     20  C   UNL     1       6.883   4.844  16.857  0.00  0.00    +0.000 A 
ATOM     21  C   UNL     1       7.551   4.989  15.640  0.00  0.00    +0.000 A 
ATOM     22  C   UNL     1       6.853   4.816  14.451  0.00  0.00    +0.000 A 
ATOM     23 BR   UNL     1       7.757   5.002  12.803  0.00  0.00    +0.000 Br
ATOM     24  C   UNL     1       5.495   4.504  14.471  0.00  0.00    +0.000 A 
ATOM     25  C   UNL     1       4.827   4.368  15.694  0.00  0.00    +0.000 A 
ENDBRANCH  18  19
ENDBRANCH   2  17
TORSDOF 3
ENDMDL
MODEL 8
REMARK VINA RESULT:      -7.1      3.311      8.082
REMARK  Name = 
REMARK  3 active torsions:
REMARK  status: ('A' for Active; 'I' for Inactive)
REMARK    1  A    between atoms: C_2  and  C_3
REMARK    2  A    between atoms: C_4  and  C_5
REMARK    3  A    between atoms: C_15  and  C_16
REMARK                            x       y       z     vdW  Elec       q    Type
REMARK                         _______ _______ _______ _____ _____    ______ ____
ROOT
ATOM      1  O   UNL     1       2.232   4.677  21.256  0.00  0.00    +0.000 OA
ATOM      2  C   UNL     1       2.391   5.658  20.529  0.00  0.00    +0.000 C 
ATOM      3  N   UNL     1       1.788   6.853  20.818  0.00  0.00    +0.000 N 
ATOM      4  C   UNL     1       1.632   7.947  19.988  0.00  0.00    +0.000 A 
ATOM      5  C   UNL     1       1.200   9.225  20.410  0.00  0.00    +0.000 A 
ATOM      6  C   UNL     1       1.200  10.023  19.280  0.00  0.00    +0.000 A 
ATOM      7  N   UNL     1       1.568   9.178  18.269  0.00  0.00    +0.000 N 
ATOM      8  N   UNL     1       1.849   7.936  18.673  0.00  0.00    +0.000 NA
ATOM      9  H   UNL     1       1.335   6.892  21.719  0.00  0.00    +0.000 HD
ATOM     10  H   UNL     1       1.642   9.385  17.279  0.00  0.00    +0.000 HD
ENDROOT
BRANCH   6  11
ATOM     11  C   UNL     1       0.863  11.429  19.071  0.00  0.00    +0.000 A 
ATOM     12  C   UNL     1       1.852  12.385  18.793  0.00  0.00    +0.000 A 
ATOM     13  C   UNL     1       1.508  13.722  18.576  0.00  0.00    +0.000 A 
ATOM     14  C   UNL     1       0.174  14.119  18.641  0.00  0.00    +0.000 A 
ATOM     15  C   UNL     1      -0.814  13.182  18.926  0.00  0.00    +0.000 A 
ATOM     16  C   UNL     1      -0.471  11.846  19.143  0.00  0.00    +0.000 A 
ENDBRANCH   6  11
BRANCH   2  17
ATOM     17  C   UNL     1       3.343   5.628  19.392  0.00  0.00    +0.000 C 
ATOM     18  C   UNL     1       3.261   4.777  18.360  0.00  0.00    +0.000 C 
BRANCH  18  19
ATOM     19  C   UNL     1       4.234   4.818  17.253  0.00  0.00    +0.000 A 
ATOM     20  C   UNL     1       4.800   3.651  16.710  0.00  0.00    +0.000 A 
ATOM     21  C   UNL     1       5.732   3.716  15.673  0.00  0.00    +0.000 A 
ATOM     22  C   UNL     1       6.094   4.952  15.152  0.00  0.00    +0.000 A 
ATOM     23 BR   UNL     1       7.347   5.041  13.742  0.00  0.00    +0.000 Br
ATOM     24  C   UNL     1       5.532   6.121  15.663  0.00  0.00    +0.000 A 
ATOM     25  C   UNL     1       4.604   6.053  16.708  0.00  0.00    +0.000 A 
ENDBRANCH  18  19
ENDBRANCH   2  17
TORSDOF 3
ENDMDL
MODEL 9
REMARK VINA RESULT:      -7.1      3.339      8.140
REMARK  Name = 
REMARK  3 active torsions:
REMARK  status: ('A' for Active; 'I' for Inactive)
REMARK    1  A    between atoms: C_2  and  C_3
REMARK    2  A    between atoms: C_4  and  C_5
REMARK    3  A    between atoms: C_15  and  C_16
REMARK                            x       y       z     vdW  Elec       q    Type
REMARK                         _______ _______ _______ _____ _____    ______ ____
ROOT
ATOM      1  O   UNL     1       2.200   4.694  21.202  0.00  0.00    +0.000 OA
ATOM      2  C   UNL     1       2.364   5.690  20.496  0.00  0.00    +0.000 C 
ATOM      3  N   UNL     1       1.763   6.880  20.809  0.00  0.00    +0.000 N 
ATOM      4  C   UNL     1       1.611   7.991  20.001  0.00  0.00    +0.000 A 
ATOM      5  C   UNL     1       1.182   9.261  20.448  0.00  0.00    +0.000 A 
ATOM      6  C   UNL     1       1.187  10.083  19.335  0.00  0.00    +0.000 A 
ATOM      7  N   UNL     1       1.556   9.258  18.308  0.00  0.00    +0.000 N 
ATOM      8  N   UNL     1       1.833   8.007  18.687  0.00  0.00    +0.000 NA
ATOM      9  H   UNL     1       1.306   6.900  21.709  0.00  0.00    +0.000 HD
ATOM     10  H   UNL     1       1.633   9.485  17.323  0.00  0.00    +0.000 HD
ENDROOT
BRANCH   6  11
ATOM     11  C   UNL     1       0.854  11.493  19.156  0.00  0.00    +0.000 A 
ATOM     12  C   UNL     1       1.807  12.419  18.705  0.00  0.00    +0.000 A 
ATOM     13  C   UNL     1       1.464  13.761  18.520  0.00  0.00    +0.000 A 
ATOM     14  C   UNL     1       0.168  14.193  18.788  0.00  0.00    +0.000 A 
ATOM     15  C   UNL     1      -0.785  13.287  19.244  0.00  0.00    +0.000 A 
ATOM     16  C   UNL     1      -0.442  11.946  19.430  0.00  0.00    +0.000 A 
ENDBRANCH   6  11
BRANCH   2  17
ATOM     17  C   UNL     1       3.319   5.681  19.362  0.00  0.00    +0.000 C 
ATOM     18  C   UNL     1       3.289   4.798  18.355  0.00  0.00    +0.000 C 
BRANCH  18  19
ATOM     19  C   UNL     1       4.261   4.862  17.249  0.00  0.00    +0.000 A 
ATOM     20  C   UNL     1       4.656   6.081  16.669  0.00  0.00    +0.000 A 
ATOM     21  C   UNL     1       5.565   6.116  15.610  0.00  0.00    +0.000 A 
ATOM     22  C   UNL     1       6.107   4.928  15.133  0.00  0.00    +0.000 A 
ATOM     23 BR   UNL     1       7.345   4.975  13.707  0.00  0.00    +0.000 Br
ATOM     24  C   UNL     1       5.744   3.710  15.704  0.00  0.00    +0.000 A 
ATOM     25  C   UNL     1       4.826   3.678  16.760  0.00  0.00    +0.000 A 
ENDBRANCH  18  19
ENDBRANCH   2  17
TORSDOF 3
ENDMDL
