MODEL 1
REMARK VINA RESULT:      -7.7      0.000      0.000
REMARK  Name = 
REMARK  8 active torsions:
REMARK  status: ('A' for Active; 'I' for Inactive)
REMARK    1  A    between atoms: C_1  and  C_2
REMARK    2  A    between atoms: C_5  and  C_6
REMARK    3  A    between atoms: N_8  and  C_9
REMARK    4  A    between atoms: C_12  and  C_13
REMARK    5  A    between atoms: C_13  and  O_15
REMARK    6  A    between atoms: C_16  and  O_17
REMARK    7  A    between atoms: C_20  and  C_21
REMARK    8  A    between atoms: C_23  and  C_24
REMARK                            x       y       z     vdW  Elec       q    Type
REMARK                         _______ _______ _______ _____ _____    ______ ____
ROOT
ATOM      1  C   UNL     1       4.335   5.632  17.782  0.00  0.00    +0.000 A 
ATOM      2  C   UNL     1       3.533   6.760  17.846  0.00  0.00    +0.000 A 
ATOM      3  N   UNL     1       2.871   6.818  19.059  0.00  0.00    +0.000 N 
ATOM      4  C   UNL     1       3.165   5.649  19.729  0.00  0.00    +0.000 A 
ATOM      5  C   UNL     1       4.045   4.898  18.972  0.00  0.00    +0.000 A 
ENDROOT
BRANCH   1  10
ATOM      6  C   UNL     1       7.393   4.303  13.018  0.00  0.00    +0.000 C 
ATOM      7  C   UNL     1       6.628   4.620  14.268  0.00  0.00    +0.000 A 
ATOM      8  C   UNL     1       5.351   4.115  14.478  0.00  0.00    +0.000 A 
ATOM      9  C   UNL     1       4.635   4.463  15.627  0.00  0.00    +0.000 A 
ATOM     10  C   UNL     1       5.178   5.300  16.621  0.00  0.00    +0.000 A 
ATOM     11  C   UNL     1       6.499   5.772  16.436  0.00  0.00    +0.000 A 
ATOM     12  C   UNL     1       7.258   6.643  17.404  0.00  0.00    +0.000 C 
ATOM     13  C   UNL     1       7.189   5.447  15.246  0.00  0.00    +0.000 A 
ENDBRANCH   1  10
BRANCH   3  14
ATOM     14  C   UNL     1       2.026   7.877  19.520  0.00  0.00    +0.000 A 
ATOM     15  C   UNL     1       1.549   7.889  20.841  0.00  0.00    +0.000 A 
ATOM     16  C   UNL     1       0.735   8.934  21.297  0.00  0.00    +0.000 A 
ATOM     17  C   UNL     1       0.385   9.980  20.441  0.00  0.00    +0.000 A 
ATOM     18  C   UNL     1       0.822   9.946  19.116  0.00  0.00    +0.000 A 
ATOM     19  C   UNL     1       1.646   8.918  18.657  0.00  0.00    +0.000 A 
BRANCH  17  20
ATOM     20  C   UNL     1      -0.437  11.085  20.990  0.00  0.00    +0.000 C 
ATOM     21  O   UNL     1      -1.366  11.583  20.384  0.00  0.00    +0.000 OA
BRANCH  20  22
ATOM     22  O   UNL     1      -0.075  11.455  22.237  0.00  0.00    +0.000 OA
ATOM     23  H   UNL     1      -0.811  11.802  22.785  0.00  0.00    +0.000 HD
ENDBRANCH  20  22
ENDBRANCH  17  20
BRANCH  18  24
ATOM     24  O   UNL     1       0.480  10.914  18.213  0.00  0.00    +0.000 OA
ATOM     25  H   UNL     1      -0.345  11.337  18.526  0.00  0.00    +0.000 HD
ENDBRANCH  18  24
ENDBRANCH   3  14
BRANCH   5  26
ATOM     26  C   UNL     1       4.511   3.602  19.377  0.00  0.00    +0.000 C 
ATOM     27  N   UNL     1       4.842   2.550  19.738  0.00  0.00    +0.000 NA
ENDBRANCH   5  26
TORSDOF 6
ENDMDL
MODEL 2
REMARK VINA RESULT:      -7.6      1.453      2.702
REMARK  Name = 
REMARK  8 active torsions:
REMARK  status: ('A' for Active; 'I' for Inactive)
REMARK    1  A    between atoms: C_1  and  C_2
REMARK    2  A    between atoms: C_5  and  C_6
REMARK    3  A    between atoms: N_8  and  C_9
REMARK    4  A    between atoms: C_12  and  C_13
REMARK    5  A    between atoms: C_13  and  O_15
REMARK    6  A    between atoms: C_16  and  O_17
REMARK    7  A    between atoms: C_20  and  C_21
REMARK    8  A    between atoms: C_23  and  C_24
REMARK                            x       y       z     vdW  Elec       q    Type
REMARK                         _______ _______ _______ _____ _____    ______ ____
ROOT
ATOM      1  C   UNL     1       3.200   5.938  18.959  0.00  0.00    +0.000 A 
ATOM      2  C   UNL     1       2.603   7.185  19.063  0.00  0.00    +0.000 A 
ATOM      3  N   UNL     1       1.867   7.276  20.231  0.00  0.00    +0.000 N 
ATOM      4  C   UNL     1       1.902   6.030  20.821  0.00  0.00    +0.000 A 
ATOM      5  C   UNL     1       2.695   5.188  20.064  0.00  0.00    +0.000 A 
ENDROOT
BRANCH   1  10
ATOM      6  C   UNL     1       6.852   4.498  14.670  0.00  0.00    +0.000 C 
ATOM      7  C   UNL     1       5.883   4.882  15.748  0.00  0.00    +0.000 A 
ATOM      8  C   UNL     1       6.078   6.021  16.518  0.00  0.00    +0.000 A 
ATOM      9  C   UNL     1       5.191   6.334  17.552  0.00  0.00    +0.000 A 
ATOM     10  C   UNL     1       4.061   5.542  17.833  0.00  0.00    +0.000 A 
ATOM     11  C   UNL     1       3.830   4.410  17.015  0.00  0.00    +0.000 A 
ATOM     12  C   UNL     1       2.660   3.469  17.138  0.00  0.00    +0.000 C 
ATOM     13  C   UNL     1       4.764   4.085  16.005  0.00  0.00    +0.000 A 
ENDBRANCH   1  10
BRANCH   3  14
ATOM     14  C   UNL     1       1.185   8.435  20.721  0.00  0.00    +0.000 A 
ATOM     15  C   UNL     1       0.886   9.505  19.862  0.00  0.00    +0.000 A 
ATOM     16  C   UNL     1       0.204  10.632  20.338  0.00  0.00    +0.000 A 
ATOM     17  C   UNL     1      -0.187  10.708  21.676  0.00  0.00    +0.000 A 
ATOM     18  C   UNL     1       0.149   9.664  22.539  0.00  0.00    +0.000 A 
ATOM     19  C   UNL     1       0.814   8.530  22.071  0.00  0.00    +0.000 A 
BRANCH  17  20
ATOM     20  C   UNL     1      -0.950  11.901  22.114  0.00  0.00    +0.000 C 
ATOM     21  O   UNL     1      -0.714  12.495  23.149  0.00  0.00    +0.000 OA
BRANCH  20  22
ATOM     22  O   UNL     1      -1.902  12.282  21.236  0.00  0.00    +0.000 OA
ATOM     23  H   UNL     1      -2.818  12.231  21.585  0.00  0.00    +0.000 HD
ENDBRANCH  20  22
ENDBRANCH  17  20
BRANCH  18  24
ATOM     24  O   UNL     1      -0.164   9.692  23.871  0.00  0.00    +0.000 OA
ATOM     25  H   UNL     1      -0.230   8.766  24.181  0.00  0.00    +0.000 HD
ENDBRANCH  18  24
ENDBRANCH   3  14
BRANCH   5  26
ATOM     26  C   UNL     1       2.896   3.805  20.391  0.00  0.00    +0.000 C 
ATOM     27  N   UNL     1       3.116   2.697  20.658  0.00  0.00    +0.000 NA
ENDBRANCH   5  26
TORSDOF 6
ENDMDL
MODEL 3
REMARK VINA RESULT:      -7.4      4.050      8.455
REMARK  Name = 
REMARK  8 active torsions:
REMARK  status: ('A' for Active; 'I' for Inactive)
REMARK    1  A    between atoms: C_1  and  C_2
REMARK    2  A    between atoms: C_5  and  C_6
REMARK    3  A    between atoms: N_8  and  C_9
REMARK    4  A    between atoms: C_12  and  C_13
REMARK    5  A    between atoms: C_13  and  O_15
REMARK    6  A    between atoms: C_16  and  O_17
REMARK    7  A    between atoms: C_20  and  C_21
REMARK    8  A    between atoms: C_23  and  C_24
REMARK                            x       y       z     vdW  Elec       q    Type
REMARK                         _______ _______ _______ _____ _____    ______ ____
ROOT
ATOM      1  C   UNL     1       0.903   9.876  20.117  0.00  0.00    +0.000 A 
ATOM      2  C   UNL     1       1.575   8.992  19.287  0.00  0.00    +0.000 A 
ATOM      3  N   UNL     1       1.744   7.770  19.913  0.00  0.00    +0.000 N 
ATOM      4  C   UNL     1       1.278   7.917  21.203  0.00  0.00    +0.000 A 
ATOM      5  C   UNL     1       0.771   9.193  21.363  0.00  0.00    +0.000 A 
ENDROOT
BRANCH   1  10
ATOM      6  C   UNL     1      -0.141  15.392  18.603  0.00  0.00    +0.000 C 
ATOM      7  C   UNL     1       0.095  13.971  19.017  0.00  0.00    +0.000 A 
ATOM      8  C   UNL     1       1.101  13.640  19.916  0.00  0.00    +0.000 A 
ATOM      9  C   UNL     1       1.338  12.304  20.250  0.00  0.00    +0.000 A 
ATOM     10  C   UNL     1       0.559  11.253  19.726  0.00  0.00    +0.000 A 
ATOM     11  C   UNL     1      -0.501  11.591  18.851  0.00  0.00    +0.000 A 
ATOM     12  C   UNL     1      -1.459  10.613  18.224  0.00  0.00    +0.000 C 
ATOM     13  C   UNL     1      -0.694  12.944  18.489  0.00  0.00    +0.000 A 
ENDBRANCH   1  10
BRANCH   3  14
ATOM     14  C   UNL     1       2.314   6.589  19.340  0.00  0.00    +0.000 A 
ATOM     15  C   UNL     1       3.063   6.660  18.154  0.00  0.00    +0.000 A 
ATOM     16  C   UNL     1       3.634   5.507  17.601  0.00  0.00    +0.000 A 
ATOM     17  C   UNL     1       3.463   4.267  18.222  0.00  0.00    +0.000 A 
ATOM     18  C   UNL     1       2.682   4.191  19.375  0.00  0.00    +0.000 A 
ATOM     19  C   UNL     1       2.122   5.336  19.943  0.00  0.00    +0.000 A 
BRANCH  17  20
ATOM     20  C   UNL     1       4.131   3.088  17.621  0.00  0.00    +0.000 C 
ATOM     21  O   UNL     1       3.721   1.952  17.763  0.00  0.00    +0.000 OA
BRANCH  20  22
ATOM     22  O   UNL     1       5.211   3.404  16.875  0.00  0.00    +0.000 OA
ATOM     23  H   UNL     1       5.410   4.364  16.839  0.00  0.00    +0.000 HD
ENDBRANCH  20  22
ENDBRANCH  17  20
BRANCH  18  24
ATOM     24  O   UNL     1       2.436   3.004  20.010  0.00  0.00    +0.000 OA
ATOM     25  H   UNL     1       1.553   2.692  19.728  0.00  0.00    +0.000 HD
ENDBRANCH  18  24
ENDBRANCH   3  14
BRANCH   5  26
ATOM     26  C   UNL     1       0.248   9.672  22.611  0.00  0.00    +0.000 C 
ATOM     27  N   UNL     1      -0.219  10.085  23.591  0.00  0.00    +0.000 NA
ENDBRANCH   5  26
TORSDOF 6
ENDMDL
MODEL 4
REMARK VINA RESULT:      -7.3      1.694      3.128
REMARK  Name = 
REMARK  8 active torsions:
REMARK  status: ('A' for Active; 'I' for Inactive)
REMARK    1  A    between atoms: C_1  and  C_2
REMARK    2  A    between atoms: C_5  and  C_6
REMARK    3  A    between atoms: N_8  and  C_9
REMARK    4  A    between atoms: C_12  and  C_13
REMARK    5  A    between atoms: C_13  and  O_15
REMARK    6  A    between atoms: C_16  and  O_17
REMARK    7  A    between atoms: C_20  and  C_21
REMARK    8  A    between atoms: C_23  and  C_24
REMARK                            x       y       z     vdW  Elec       q    Type
REMARK                         _______ _______ _______ _____ _____    ______ ____
ROOT
ATOM      1  C   UNL     1       2.707   6.479  19.115  0.00  0.00    +0.000 A 
ATOM      2  C   UNL     1       2.208   7.760  18.940  0.00  0.00    +0.000 A 
ATOM      3  N   UNL     1       1.459   8.144  20.038  0.00  0.00    +0.000 N 
ATOM      4  C   UNL     1       1.384   7.048  20.871  0.00  0.00    +0.000 A 
ATOM      5  C   UNL     1       2.123   6.012  20.331  0.00  0.00    +0.000 A 
ENDROOT
BRANCH   1  10
ATOM      6  C   UNL     1       6.319   3.891  15.363  0.00  0.00    +0.000 C 
ATOM      7  C   UNL     1       5.365   4.571  16.299  0.00  0.00    +0.000 A 
ATOM      8  C   UNL     1       5.697   5.767  16.922  0.00  0.00    +0.000 A 
ATOM      9  C   UNL     1       4.814   6.358  17.831  0.00  0.00    +0.000 A 
ATOM     10  C   UNL     1       3.556   5.797  18.124  0.00  0.00    +0.000 A 
ATOM     11  C   UNL     1       3.193   4.606  17.450  0.00  0.00    +0.000 A 
ATOM     12  C   UNL     1       1.881   3.882  17.605  0.00  0.00    +0.000 C 
ATOM     13  C   UNL     1       4.119   3.999  16.571  0.00  0.00    +0.000 A 
ENDBRANCH   1  10
BRANCH   3  14
ATOM     14  C   UNL     1       0.861   9.426  20.256  0.00  0.00    +0.000 A 
ATOM     15  C   UNL     1       0.649  10.308  19.184  0.00  0.00    +0.000 A 
ATOM     16  C   UNL     1       0.049  11.556  19.395  0.00  0.00    +0.000 A 
ATOM     17  C   UNL     1      -0.346  11.941  20.678  0.00  0.00    +0.000 A 
ATOM     18  C   UNL     1      -0.096  11.083  21.749  0.00  0.00    +0.000 A 
ATOM     19  C   UNL     1       0.486   9.831  21.547  0.00  0.00    +0.000 A 
BRANCH  17  20
ATOM     20  C   UNL     1      -1.022  13.251  20.836  0.00  0.00    +0.000 C 
ATOM     21  O   UNL     1      -1.025  13.872  21.881  0.00  0.00    +0.000 OA
BRANCH  20  22
ATOM     22  O   UNL     1      -1.599  13.699  19.700  0.00  0.00    +0.000 OA
ATOM     23  H   UNL     1      -2.002  14.590  19.775  0.00  0.00    +0.000 HD
ENDBRANCH  20  22
ENDBRANCH  17  20
BRANCH  18  24
ATOM     24  O   UNL     1      -0.417  11.414  23.037  0.00  0.00    +0.000 OA
ATOM     25  H   UNL     1      -0.102  10.693  23.618  0.00  0.00    +0.000 HD
ENDBRANCH  18  24
ENDBRANCH   3  14
BRANCH   5  26
ATOM     26  C   UNL     1       2.209   4.715  20.940  0.00  0.00    +0.000 C 
ATOM     27  N   UNL     1       2.255   3.689  21.481  0.00  0.00    +0.000 NA
ENDBRANCH   5  26
TORSDOF 6
ENDMDL
MODEL 5
REMARK VINA RESULT:      -7.3      1.810      3.000
REMARK  Name = 
REMARK  8 active torsions:
REMARK  status: ('A' for Active; 'I' for Inactive)
REMARK    1  A    between atoms: C_1  and  C_2
REMARK    2  A    between atoms: C_5  and  C_6
REMARK    3  A    between atoms: N_8  and  C_9
REMARK    4  A    between atoms: C_12  and  C_13
REMARK    5  A    between atoms: C_13  and  O_15
REMARK    6  A    between atoms: C_16  and  O_17
REMARK    7  A    between atoms: C_20  and  C_21
REMARK    8  A    between atoms: C_23  and  C_24
REMARK                            x       y       z     vdW  Elec       q    Type
REMARK                         _______ _______ _______ _____ _____    ______ ____
ROOT
ATOM      1  C   UNL     1       2.696   6.821  18.814  0.00  0.00    +0.000 A 
ATOM      2  C   UNL     1       2.157   8.060  18.501  0.00  0.00    +0.000 A 
ATOM      3  N   UNL     1       1.426   8.555  19.567  0.00  0.00    +0.000 N 
ATOM      4  C   UNL     1       1.403   7.565  20.526  0.00  0.00    +0.000 A 
ATOM      5  C   UNL     1       2.156   6.490  20.093  0.00  0.00    +0.000 A 
ENDROOT
BRANCH   1  10
ATOM      6  C   UNL     1       6.281   3.896  15.292  0.00  0.00    +0.000 C 
ATOM      7  C   UNL     1       5.332   4.658  16.168  0.00  0.00    +0.000 A 
ATOM      8  C   UNL     1       5.631   5.940  16.611  0.00  0.00    +0.000 A 
ATOM      9  C   UNL     1       4.757   6.613  17.468  0.00  0.00    +0.000 A 
ATOM     10  C   UNL     1       3.538   6.046  17.888  0.00  0.00    +0.000 A 
ATOM     11  C   UNL     1       3.205   4.761  17.397  0.00  0.00    +0.000 A 
ATOM     12  C   UNL     1       1.934   4.012  17.704  0.00  0.00    +0.000 C 
ATOM     13  C   UNL     1       4.124   4.078  16.569  0.00  0.00    +0.000 A 
ENDBRANCH   1  10
BRANCH   3  14
ATOM     14  C   UNL     1       0.798   9.839  19.647  0.00  0.00    +0.000 A 
ATOM     15  C   UNL     1       0.862  10.593  20.830  0.00  0.00    +0.000 A 
ATOM     16  C   UNL     1       0.261  11.856  20.903  0.00  0.00    +0.000 A 
ATOM     17  C   UNL     1      -0.412  12.383  19.799  0.00  0.00    +0.000 A 
ATOM     18  C   UNL     1      -0.513  11.614  18.638  0.00  0.00    +0.000 A 
ATOM     19  C   UNL     1       0.096  10.362  18.550  0.00  0.00    +0.000 A 
BRANCH  17  20
ATOM     20  C   UNL     1      -0.986  13.745  19.916  0.00  0.00    +0.000 C 
ATOM     21  O   UNL     1      -1.572  14.133  20.908  0.00  0.00    +0.000 OA
BRANCH  20  22
ATOM     22  O   UNL     1      -0.760  14.517  18.832  0.00  0.00    +0.000 OA
ATOM     23  H   UNL     1      -1.465  15.175  18.650  0.00  0.00    +0.000 HD
ENDBRANCH  20  22
ENDBRANCH  17  20
BRANCH  18  24
ATOM     24  O   UNL     1      -1.195  12.050  17.535  0.00  0.00    +0.000 OA
ATOM     25  H   UNL     1      -0.879  11.533  16.766  0.00  0.00    +0.000 HD
ENDBRANCH  18  24
ENDBRANCH   3  14
BRANCH   5  26
ATOM     26  C   UNL     1       2.293   5.279  20.851  0.00  0.00    +0.000 C 
ATOM     27  N   UNL     1       2.351   4.308  21.486  0.00  0.00    +0.000 NA
ENDBRANCH   5  26
TORSDOF 6
ENDMDL
MODEL 6
REMARK VINA RESULT:      -7.3      0.590      1.362
REMARK  Name = 
REMARK  8 active torsions:
REMARK  status: ('A' for Active; 'I' for Inactive)
REMARK    1  A    between atoms: C_1  and  C_2
REMARK    2  A    between atoms: C_5  and  C_6
REMARK    3  A    between atoms: N_8  and  C_9
REMARK    4  A    between atoms: C_12  and  C_13
REMARK    5  A    between atoms: C_13  and  O_15
REMARK    6  A    between atoms: C_16  and  O_17
REMARK    7  A    between atoms: C_20  and  C_21
REMARK    8  A    between atoms: C_23  and  C_24
REMARK                            x       y       z     vdW  Elec       q    Type
REMARK                         _______ _______ _______ _____ _____    ______ ____
ROOT
ATOM      1  C   UNL     1       4.296   5.714  17.819  0.00  0.00    +0.000 A 
ATOM      2  C   UNL     1       3.493   6.844  17.858  0.00  0.00    +0.000 A 
ATOM      3  N   UNL     1       2.811   6.914  19.059  0.00  0.00    +0.000 N 
ATOM      4  C   UNL     1       3.094   5.752  19.745  0.00  0.00    +0.000 A 
ATOM      5  C   UNL     1       3.985   4.993  19.011  0.00  0.00    +0.000 A 
ENDROOT
BRANCH   1  10
ATOM      6  C   UNL     1       7.430   4.333  13.119  0.00  0.00    +0.000 C 
ATOM      7  C   UNL     1       6.645   4.664  14.354  0.00  0.00    +0.000 A 
ATOM      8  C   UNL     1       5.368   4.155  14.553  0.00  0.00    +0.000 A 
ATOM      9  C   UNL     1       4.633   4.516  15.685  0.00  0.00    +0.000 A 
ATOM     10  C   UNL     1       5.157   5.370  16.675  0.00  0.00    +0.000 A 
ATOM     11  C   UNL     1       6.478   5.848  16.501  0.00  0.00    +0.000 A 
ATOM     12  C   UNL     1       7.217   6.738  17.467  0.00  0.00    +0.000 C 
ATOM     13  C   UNL     1       7.186   5.509  15.326  0.00  0.00    +0.000 A 
ENDBRANCH   1  10
BRANCH   3  14
ATOM     14  C   UNL     1       1.959   7.979  19.495  0.00  0.00    +0.000 A 
ATOM     15  C   UNL     1       1.581   9.001  18.610  0.00  0.00    +0.000 A 
ATOM     16  C   UNL     1       0.735  10.034  19.032  0.00  0.00    +0.000 A 
ATOM     17  C   UNL     1       0.256  10.062  20.343  0.00  0.00    +0.000 A 
ATOM     18  C   UNL     1       0.667   9.071  21.235  0.00  0.00    +0.000 A 
ATOM     19  C   UNL     1       1.497   8.029  20.820  0.00  0.00    +0.000 A 
BRANCH  17  20
ATOM     20  C   UNL     1      -0.677  11.150  20.722  0.00  0.00    +0.000 C 
ATOM     21  O   UNL     1      -1.580  11.529  20.001  0.00  0.00    +0.000 OA
BRANCH  20  22
ATOM     22  O   UNL     1      -0.448  11.649  21.956  0.00  0.00    +0.000 OA
ATOM     23  H   UNL     1      -1.131  11.414  22.620  0.00  0.00    +0.000 HD
ENDBRANCH  20  22
ENDBRANCH  17  20
BRANCH  18  24
ATOM     24  O   UNL     1       0.272   9.062  22.545  0.00  0.00    +0.000 OA
ATOM     25  H   UNL     1      -0.705   9.126  22.563  0.00  0.00    +0.000 HD
ENDBRANCH  18  24
ENDBRANCH   3  14
BRANCH   5  26
ATOM     26  C   UNL     1       4.444   3.701  19.436  0.00  0.00    +0.000 C 
ATOM     27  N   UNL     1       4.869   2.672  19.766  0.00  0.00    +0.000 NA
ENDBRANCH   5  26
TORSDOF 6
ENDMDL
MODEL 7
REMARK VINA RESULT:      -7.3      1.368      2.253
REMARK  Name = 
REMARK  8 active torsions:
REMARK  status: ('A' for Active; 'I' for Inactive)
REMARK    1  A    between atoms: C_1  and  C_2
REMARK    2  A    between atoms: C_5  and  C_6
REMARK    3  A    between atoms: N_8  and  C_9
REMARK    4  A    between atoms: C_12  and  C_13
REMARK    5  A    between atoms: C_13  and  O_15
REMARK    6  A    between atoms: C_16  and  O_17
REMARK    7  A    between atoms: C_20  and  C_21
REMARK    8  A    between atoms: C_23  and  C_24
REMARK                            x       y       z     vdW  Elec       q    Type
REMARK                         _______ _______ _______ _____ _____    ______ ____
ROOT
ATOM      1  C   UNL     1       3.167   5.951  18.997  0.00  0.00    +0.000 A 
ATOM      2  C   UNL     1       2.559   7.193  19.097  0.00  0.00    +0.000 A 
ATOM      3  N   UNL     1       1.821   7.280  20.264  0.00  0.00    +0.000 N 
ATOM      4  C   UNL     1       1.867   6.036  20.857  0.00  0.00    +0.000 A 
ATOM      5  C   UNL     1       2.668   5.199  20.103  0.00  0.00    +0.000 A 
ENDROOT
BRANCH   1  10
ATOM      6  C   UNL     1       6.836   4.529  14.716  0.00  0.00    +0.000 C 
ATOM      7  C   UNL     1       5.863   4.908  15.792  0.00  0.00    +0.000 A 
ATOM      8  C   UNL     1       6.059   6.041  16.572  0.00  0.00    +0.000 A 
ATOM      9  C   UNL     1       5.168   6.349  17.604  0.00  0.00    +0.000 A 
ATOM     10  C   UNL     1       4.032   5.560  17.872  0.00  0.00    +0.000 A 
ATOM     11  C   UNL     1       3.801   4.436  17.044  0.00  0.00    +0.000 A 
ATOM     12  C   UNL     1       2.626   3.499  17.154  0.00  0.00    +0.000 C 
ATOM     13  C   UNL     1       4.740   4.114  16.037  0.00  0.00    +0.000 A 
ENDBRANCH   1  10
BRANCH   3  14
ATOM     14  C   UNL     1       1.128   8.434  20.751  0.00  0.00    +0.000 A 
ATOM     15  C   UNL     1       0.641   8.473  22.067  0.00  0.00    +0.000 A 
ATOM     16  C   UNL     1      -0.024   9.608  22.549  0.00  0.00    +0.000 A 
ATOM     17  C   UNL     1      -0.212  10.719  21.723  0.00  0.00    +0.000 A 
ATOM     18  C   UNL     1       0.234  10.663  20.402  0.00  0.00    +0.000 A 
ATOM     19  C   UNL     1       0.911   9.543  19.918  0.00  0.00    +0.000 A 
BRANCH  17  20
ATOM     20  C   UNL     1      -0.876  11.912  22.300  0.00  0.00    +0.000 C 
ATOM     21  O   UNL     1      -1.997  11.882  22.772  0.00  0.00    +0.000 OA
BRANCH  20  22
ATOM     22  O   UNL     1      -0.103  13.019  22.282  0.00  0.00    +0.000 OA
ATOM     23  H   UNL     1       0.850  12.844  22.125  0.00  0.00    +0.000 HD
ENDBRANCH  20  22
ENDBRANCH  17  20
BRANCH  18  24
ATOM     24  O   UNL     1       0.045  11.697  19.527  0.00  0.00    +0.000 OA
ATOM     25  H   UNL     1       0.850  11.774  18.976  0.00  0.00    +0.000 HD
ENDBRANCH  18  24
ENDBRANCH   3  14
BRANCH   5  26
ATOM     26  C   UNL     1       2.881   3.819  20.433  0.00  0.00    +0.000 C 
ATOM     27  N   UNL     1       3.043   2.715  20.756  0.00  0.00    +0.000 NA
ENDBRANCH   5  26
TORSDOF 6
ENDMDL
MODEL 8
REMARK VINA RESULT:      -7.2      4.023      8.367
REMARK  Name = 
REMARK  8 active torsions:
REMARK  status: ('A' for Active; 'I' for Inactive)
REMARK    1  A    between atoms: C_1  and  C_2
REMARK    2  A    between atoms: C_5  and  C_6
REMARK    3  A    between atoms: N_8  and  C_9
REMARK    4  A    between atoms: C_12  and  C_13
REMARK    5  A    between atoms: C_13  and  O_15
REMARK    6  A    between atoms: C_16  and  O_17
REMARK    7  A    between atoms: C_20  and  C_21
REMARK    8  A    between atoms: C_23  and  C_24
REMARK                            x       y       z     vdW  Elec       q    Type
REMARK                         _______ _______ _______ _____ _____    ______ ____
ROOT
ATOM      1  C   UNL     1       0.749  10.040  20.219  0.00  0.00    +0.000 A 
ATOM      2  C   UNL     1       1.547   9.141  19.530  0.00  0.00    +0.000 A 
ATOM      3  N   UNL     1       1.621   7.938  20.208  0.00  0.00    +0.000 N 
ATOM      4  C   UNL     1       0.957   8.114  21.403  0.00  0.00    +0.000 A 
ATOM      5  C   UNL     1       0.425   9.389  21.447  0.00  0.00    +0.000 A 
ENDROOT
BRANCH   1  10
ATOM      6  C   UNL     1      -0.061  15.497  18.379  0.00  0.00    +0.000 C 
ATOM      7  C   UNL     1       0.113  14.093  18.875  0.00  0.00    +0.000 A 
ATOM      8  C   UNL     1       1.051  13.785  19.852  0.00  0.00    +0.000 A 
ATOM      9  C   UNL     1       1.233  12.462  20.264  0.00  0.00    +0.000 A 
ATOM     10  C   UNL     1       0.464  11.404  19.742  0.00  0.00    +0.000 A 
ATOM     11  C   UNL     1      -0.529  11.721  18.784  0.00  0.00    +0.000 A 
ATOM     12  C   UNL     1      -1.469  10.734  18.143  0.00  0.00    +0.000 C 
ATOM     13  C   UNL     1      -0.665  13.058  18.347  0.00  0.00    +0.000 A 
ENDBRANCH   1  10
BRANCH   3  14
ATOM     14  C   UNL     1       2.280   6.747  19.764  0.00  0.00    +0.000 A 
ATOM     15  C   UNL     1       2.205   5.565  20.518  0.00  0.00    +0.000 A 
ATOM     16  C   UNL     1       2.836   4.395  20.075  0.00  0.00    +0.000 A 
ATOM     17  C   UNL     1       3.551   4.390  18.875  0.00  0.00    +0.000 A 
ATOM     18  C   UNL     1       3.661   5.576  18.148  0.00  0.00    +0.000 A 
ATOM     19  C   UNL     1       3.023   6.742  18.573  0.00  0.00    +0.000 A 
BRANCH  17  20
ATOM     20  C   UNL     1       4.156   3.112  18.429  0.00  0.00    +0.000 C 
ATOM     21  O   UNL     1       3.911   2.605  17.351  0.00  0.00    +0.000 OA
BRANCH  20  22
ATOM     22  O   UNL     1       5.028   2.591  19.318  0.00  0.00    +0.000 OA
ATOM     23  H   UNL     1       4.611   2.231  20.131  0.00  0.00    +0.000 HD
ENDBRANCH  20  22
ENDBRANCH  17  20
BRANCH  18  24
ATOM     24  O   UNL     1       4.382   5.653  16.989  0.00  0.00    +0.000 OA
ATOM     25  H   UNL     1       3.863   5.214  16.284  0.00  0.00    +0.000 HD
ENDBRANCH  18  24
ENDBRANCH   3  14
BRANCH   5  26
ATOM     26  C   UNL     1      -0.291   9.896  22.583  0.00  0.00    +0.000 C 
ATOM     27  N   UNL     1      -0.852  10.360  23.488  0.00  0.00    +0.000 NA
ENDBRANCH   5  26
TORSDOF 6
ENDMDL
MODEL 9
REMARK VINA RESULT:      -7.1      1.230      2.007
REMARK  Name = 
REMARK  8 active torsions:
REMARK  status: ('A' for Active; 'I' for Inactive)
REMARK    1  A    between atoms: C_1  and  C_2
REMARK    2  A    between atoms: C_5  and  C_6
REMARK    3  A    between atoms: N_8  and  C_9
REMARK    4  A    between atoms: C_12  and  C_13
REMARK    5  A    between atoms: C_13  and  O_15
REMARK    6  A    between atoms: C_16  and  O_17
REMARK    7  A    between atoms: C_20  and  C_21
REMARK    8  A    between atoms: C_23  and  C_24
REMARK                            x       y       z     vdW  Elec       q    Type
REMARK                         _______ _______ _______ _____ _____    ______ ____
ROOT
ATOM      1  C   UNL     1       3.437   5.748  18.584  0.00  0.00    +0.000 A 
ATOM      2  C   UNL     1       2.838   6.994  18.683  0.00  0.00    +0.000 A 
ATOM      3  N   UNL     1       2.163   7.115  19.885  0.00  0.00    +0.000 N 
ATOM      4  C   UNL     1       2.236   5.886  20.506  0.00  0.00    +0.000 A 
ATOM      5  C   UNL     1       2.994   5.026  19.733  0.00  0.00    +0.000 A 
ENDROOT
BRANCH   1  10
ATOM      6  C   UNL     1       6.347   3.933  13.888  0.00  0.00    +0.000 C 
ATOM      7  C   UNL     1       5.629   4.391  15.122  0.00  0.00    +0.000 A 
ATOM      8  C   UNL     1       4.592   3.646  15.669  0.00  0.00    +0.000 A 
ATOM      9  C   UNL     1       3.901   4.115  16.790  0.00  0.00    +0.000 A 
ATOM     10  C   UNL     1       4.241   5.325  17.425  0.00  0.00    +0.000 A 
ATOM     11  C   UNL     1       5.332   6.060  16.902  0.00  0.00    +0.000 A 
ATOM     12  C   UNL     1       5.863   7.352  17.466  0.00  0.00    +0.000 C 
ATOM     13  C   UNL     1       5.986   5.593  15.740  0.00  0.00    +0.000 A 
ENDBRANCH   1  10
BRANCH   3  14
ATOM     14  C   UNL     1       1.500   8.284  20.378  0.00  0.00    +0.000 A 
ATOM     15  C   UNL     1       1.080   9.293  19.496  0.00  0.00    +0.000 A 
ATOM     16  C   UNL     1       0.417  10.429  19.976  0.00  0.00    +0.000 A 
ATOM     17  C   UNL     1       0.166  10.575  21.342  0.00  0.00    +0.000 A 
ATOM     18  C   UNL     1       0.622   9.593  22.222  0.00  0.00    +0.000 A 
ATOM     19  C   UNL     1       1.269   8.450  21.752  0.00  0.00    +0.000 A 
BRANCH  17  20
ATOM     20  C   UNL     1      -0.584  11.773  21.789  0.00  0.00    +0.000 C 
ATOM     21  O   UNL     1      -0.559  12.180  22.935  0.00  0.00    +0.000 OA
BRANCH  20  22
ATOM     22  O   UNL     1      -1.263  12.384  20.795  0.00  0.00    +0.000 OA
ATOM     23  H   UNL     1      -1.402  13.346  20.931  0.00  0.00    +0.000 HD
ENDBRANCH  20  22
ENDBRANCH  17  20
BRANCH  18  24
ATOM     24  O   UNL     1       0.449   9.694  23.575  0.00  0.00    +0.000 OA
ATOM     25  H   UNL     1       0.554   8.798  23.957  0.00  0.00    +0.000 HD
ENDBRANCH  18  24
ENDBRANCH   3  14
BRANCH   5  26
ATOM     26  C   UNL     1       3.220   3.654  20.087  0.00  0.00    +0.000 C 
ATOM     27  N   UNL     1       3.404   2.560  20.428  0.00  0.00    +0.000 NA
ENDBRANCH   5  26
TORSDOF 6
ENDMDL
