MODEL 1
REMARK VINA RESULT:      -6.9      0.000      0.000
REMARK  Name = 
REMARK  5 active torsions:
REMARK  status: ('A' for Active; 'I' for Inactive)
REMARK    1  A    between atoms: C_1  and  C_2
REMARK    2  A    between atoms: C_2  and  C_16
REMARK    3  A    between atoms: N_3  and  N_4
REMARK    4  A    between atoms: C_5  and  S_6
REMARK    5  A    between atoms: C_21  and  C_22
REMARK                            x       y       z     vdW  Elec       q    Type
REMARK                         _______ _______ _______ _____ _____    ______ ____
ROOT
ATOM      1  N   UNL     1       4.707   3.853  17.059  0.00  0.00    +0.000 NA
ATOM      2  C   UNL     1       4.258   4.816  17.823  0.00  0.00    +0.000 C 
ATOM      3  N   UNL     1       3.869   4.581  19.140  0.00  0.00    +0.000 N 
ATOM      4  C   UNL     1       2.913   5.414  19.873  0.00  0.00    +0.000 C 
ATOM      5  C   UNL     1       1.676   4.635  20.375  0.00  0.00    +0.000 C 
ATOM      6  C   UNL     1       1.964   3.873  21.678  0.00  0.00    +0.000 C 
ATOM      7  C   UNL     1       2.573   2.493  21.446  0.00  0.00    +0.000 C 
ATOM      8  C   UNL     1       3.151   2.346  20.034  0.00  0.00    +0.000 C 
ATOM      9  C   UNL     1       2.009   2.484  19.013  0.00  0.00    +0.000 C 
ATOM     10  C   UNL     1       1.102   3.688  19.308  0.00  0.00    +0.000 C 
ATOM     11  C   UNL     1       4.302   3.347  19.808  0.00  0.00    +0.000 C 
ENDROOT
BRANCH   1  14
ATOM     12  C   UNL     1       7.346   4.250  16.664  0.00  0.00    +0.000 C 
ATOM     13  C   UNL     1       6.313   4.326  15.543  0.00  0.00    +0.000 C 
ATOM     14  N   UNL     1       5.033   4.152  15.734  0.00  0.00    +0.000 NA
BRANCH  13  15
ATOM     15  C   UNL     1       6.868   4.634  14.177  0.00  0.00    +0.000 A 
ATOM     16  N   UNL     1       7.904   5.526  14.194  0.00  0.00    +0.000 NA
ATOM     17  C   UNL     1       8.455   5.842  13.003  0.00  0.00    +0.000 A 
ATOM     18  C   UNL     1       8.004   5.302  11.818  0.00  0.00    +0.000 A 
ATOM     19  N   UNL     1       6.984   4.421  11.779  0.00  0.00    +0.000 NA
ATOM     20  C   UNL     1       6.411   4.083  12.975  0.00  0.00    +0.000 A 
ATOM     21  C   UNL     1       5.287   3.103  12.867  0.00  0.00    +0.000 C 
ENDBRANCH  13  15
ENDBRANCH   1  14
BRANCH   2  22
ATOM     22  S   UNL     1       4.165   6.468  17.208  0.00  0.00    +0.000 S 
ATOM     23  H   UNL     1       3.028   6.713  17.869  0.00  0.00    +0.000 HD
ENDBRANCH   2  22
TORSDOF 3
ENDMDL
MODEL 2
REMARK VINA RESULT:      -6.8      3.880      7.787
REMARK  Name = 
REMARK  5 active torsions:
REMARK  status: ('A' for Active; 'I' for Inactive)
REMARK    1  A    between atoms: C_1  and  C_2
REMARK    2  A    between atoms: C_2  and  C_16
REMARK    3  A    between atoms: N_3  and  N_4
REMARK    4  A    between atoms: C_5  and  S_6
REMARK    5  A    between atoms: C_21  and  C_22
REMARK                            x       y       z     vdW  Elec       q    Type
REMARK                         _______ _______ _______ _____ _____    ______ ____
ROOT
ATOM      1  N   UNL     1       3.339   6.577  19.205  0.00  0.00    +0.000 NA
ATOM      2  C   UNL     1       3.177   5.527  18.443  0.00  0.00    +0.000 C 
ATOM      3  N   UNL     1       4.263   4.802  17.958  0.00  0.00    +0.000 N 
ATOM      4  C   UNL     1       4.226   3.984  16.744  0.00  0.00    +0.000 C 
ATOM      5  C   UNL     1       5.258   4.417  15.678  0.00  0.00    +0.000 C 
ATOM      6  C   UNL     1       6.661   3.860  15.973  0.00  0.00    +0.000 C 
ATOM      7  C   UNL     1       7.470   4.739  16.923  0.00  0.00    +0.000 C 
ATOM      8  C   UNL     1       6.585   5.725  17.694  0.00  0.00    +0.000 C 
ATOM      9  C   UNL     1       5.917   6.682  16.693  0.00  0.00    +0.000 C 
ATOM     10  C   UNL     1       5.309   5.942  15.491  0.00  0.00    +0.000 C 
ATOM     11  C   UNL     1       5.579   4.971  18.588  0.00  0.00    +0.000 C 
ENDROOT
BRANCH   1  14
ATOM     12  C   UNL     1       2.938   8.860  17.826  0.00  0.00    +0.000 C 
ATOM     13  C   UNL     1       2.006   8.379  18.934  0.00  0.00    +0.000 C 
ATOM     14  N   UNL     1       2.206   7.284  19.616  0.00  0.00    +0.000 NA
BRANCH  13  15
ATOM     15  C   UNL     1       0.823   9.270  19.209  0.00  0.00    +0.000 A 
ATOM     16  N   UNL     1       0.164   9.673  18.081  0.00  0.00    +0.000 NA
ATOM     17  C   UNL     1      -0.913  10.469  18.256  0.00  0.00    +0.000 A 
ATOM     18  C   UNL     1      -1.338  10.866  19.504  0.00  0.00    +0.000 A 
ATOM     19  N   UNL     1      -0.703  10.481  20.630  0.00  0.00    +0.000 NA
ATOM     20  C   UNL     1       0.390   9.672  20.479  0.00  0.00    +0.000 A 
ATOM     21  C   UNL     1       1.051   9.279  21.760  0.00  0.00    +0.000 C 
ENDBRANCH  13  15
ENDBRANCH   1  14
BRANCH   2  22
ATOM     22  S   UNL     1       1.553   4.969  18.032  0.00  0.00    +0.000 S 
ATOM     23  H   UNL     1       1.701   5.300  16.745  0.00  0.00    +0.000 HD
ENDBRANCH   2  22
TORSDOF 3
ENDMDL
MODEL 3
REMARK VINA RESULT:      -6.8      5.694      8.307
REMARK  Name = 
REMARK  5 active torsions:
REMARK  status: ('A' for Active; 'I' for Inactive)
REMARK    1  A    between atoms: C_1  and  C_2
REMARK    2  A    between atoms: C_2  and  C_16
REMARK    3  A    between atoms: N_3  and  N_4
REMARK    4  A    between atoms: C_5  and  S_6
REMARK    5  A    between atoms: C_21  and  C_22
REMARK                            x       y       z     vdW  Elec       q    Type
REMARK                         _______ _______ _______ _____ _____    ______ ____
ROOT
ATOM      1  N   UNL     1       1.198   9.094  19.837  0.00  0.00    +0.000 NA
ATOM      2  C   UNL     1       0.700   9.814  20.809  0.00  0.00    +0.000 C 
ATOM      3  N   UNL     1       0.089  11.043  20.568  0.00  0.00    +0.000 N 
ATOM      4  C   UNL     1      -0.020  12.113  21.562  0.00  0.00    +0.000 C 
ATOM      5  C   UNL     1       0.645  13.435  21.118  0.00  0.00    +0.000 C 
ATOM      6  C   UNL     1      -0.262  14.253  20.184  0.00  0.00    +0.000 C 
ATOM      7  C   UNL     1      -0.134  13.851  18.718  0.00  0.00    +0.000 C 
ATOM      8  C   UNL     1       0.521  12.476  18.550  0.00  0.00    +0.000 C 
ATOM      9  C   UNL     1       1.956  12.538  19.101  0.00  0.00    +0.000 C 
ATOM     10  C   UNL     1       2.026  13.216  20.478  0.00  0.00    +0.000 C 
ATOM     11  C   UNL     1      -0.341  11.376  19.204  0.00  0.00    +0.000 C 
ENDROOT
BRANCH   1  14
ATOM     12  C   UNL     1       2.266   7.842  17.700  0.00  0.00    +0.000 C 
ATOM     13  C   UNL     1       2.371   7.302  19.123  0.00  0.00    +0.000 C 
ATOM     14  N   UNL     1       1.840   7.895  20.157  0.00  0.00    +0.000 NA
BRANCH  13  15
ATOM     15  C   UNL     1       3.127   6.006  19.265  0.00  0.00    +0.000 A 
ATOM     16  N   UNL     1       4.388   6.046  18.737  0.00  0.00    +0.000 NA
ATOM     17  C   UNL     1       5.125   4.919  18.836  0.00  0.00    +0.000 A 
ATOM     18  C   UNL     1       4.643   3.776  19.435  0.00  0.00    +0.000 A 
ATOM     19  N   UNL     1       3.403   3.715  19.961  0.00  0.00    +0.000 NA
ATOM     20  C   UNL     1       2.637   4.846  19.875  0.00  0.00    +0.000 A 
ATOM     21  C   UNL     1       1.274   4.717  20.476  0.00  0.00    +0.000 C 
ENDBRANCH  13  15
ENDBRANCH   1  14
BRANCH   2  22
ATOM     22  S   UNL     1       0.759   9.224  22.472  0.00  0.00    +0.000 S 
ATOM     23  H   UNL     1       0.477  10.432  22.973  0.00  0.00    +0.000 HD
ENDBRANCH   2  22
TORSDOF 3
ENDMDL
MODEL 4
REMARK VINA RESULT:      -6.5     10.629     12.822
REMARK  Name = 
REMARK  5 active torsions:
REMARK  status: ('A' for Active; 'I' for Inactive)
REMARK    1  A    between atoms: C_1  and  C_2
REMARK    2  A    between atoms: C_2  and  C_16
REMARK    3  A    between atoms: N_3  and  N_4
REMARK    4  A    between atoms: C_5  and  S_6
REMARK    5  A    between atoms: C_21  and  C_22
REMARK                            x       y       z     vdW  Elec       q    Type
REMARK                         _______ _______ _______ _____ _____    ______ ____
ROOT
ATOM      1  N   UNL     1       7.470  14.571  19.292  0.00  0.00    +0.000 NA
ATOM      2  C   UNL     1       8.311  14.227  20.233  0.00  0.00    +0.000 C 
ATOM      3  N   UNL     1       9.584  13.746  19.934  0.00  0.00    +0.000 N 
ATOM      4  C   UNL     1      10.366  12.885  20.823  0.00  0.00    +0.000 C 
ATOM      5  C   UNL     1      10.745  11.527  20.190  0.00  0.00    +0.000 C 
ATOM      6  C   UNL     1      11.974  11.641  19.273  0.00  0.00    +0.000 C 
ATOM      7  C   UNL     1      11.624  12.058  17.848  0.00  0.00    +0.000 C 
ATOM      8  C   UNL     1      10.224  12.676  17.753  0.00  0.00    +0.000 C 
ATOM      9  C   UNL     1       9.185  11.616  18.152  0.00  0.00    +0.000 C 
ATOM     10  C   UNL     1       9.569  10.876  19.443  0.00  0.00    +0.000 C 
ATOM     11  C   UNL     1      10.139  13.967  18.592  0.00  0.00    +0.000 C 
ENDROOT
BRANCH   1  14
ATOM     12  C   UNL     1       6.953  17.129  18.614  0.00  0.00    +0.000 C 
ATOM     13  C   UNL     1       5.941  16.232  19.319  0.00  0.00    +0.000 C 
ATOM     14  N   UNL     1       6.193  14.999  19.664  0.00  0.00    +0.000 NA
BRANCH  13  15
ATOM     15  C   UNL     1       4.608  16.871  19.611  0.00  0.00    +0.000 A 
ATOM     16  N   UNL     1       4.572  17.544  20.801  0.00  0.00    +0.000 NA
ATOM     17  C   UNL     1       3.408  18.148  21.123  0.00  0.00    +0.000 A 
ATOM     18  C   UNL     1       2.302  18.097  20.304  0.00  0.00    +0.000 A 
ATOM     19  N   UNL     1       2.316  17.439  19.126  0.00  0.00    +0.000 NA
ATOM     20  C   UNL     1       3.486  16.820  18.777  0.00  0.00    +0.000 A 
ATOM     21  C   UNL     1       3.440  16.110  17.462  0.00  0.00    +0.000 C 
ENDBRANCH  13  15
ENDBRANCH   1  14
BRANCH   2  22
ATOM     22  S   UNL     1       7.864  14.399  21.932  0.00  0.00    +0.000 S 
ATOM     23  H   UNL     1       8.660  15.461  22.096  0.00  0.00    +0.000 HD
ENDBRANCH   2  22
TORSDOF 3
ENDMDL
MODEL 5
REMARK VINA RESULT:      -6.5      4.546      7.243
REMARK  Name = 
REMARK  5 active torsions:
REMARK  status: ('A' for Active; 'I' for Inactive)
REMARK    1  A    between atoms: C_1  and  C_2
REMARK    2  A    between atoms: C_2  and  C_16
REMARK    3  A    between atoms: N_3  and  N_4
REMARK    4  A    between atoms: C_5  and  S_6
REMARK    5  A    between atoms: C_21  and  C_22
REMARK                            x       y       z     vdW  Elec       q    Type
REMARK                         _______ _______ _______ _____ _____    ______ ____
ROOT
ATOM      1  N   UNL     1       2.089   7.150  18.663  0.00  0.00    +0.000 NA
ATOM      2  C   UNL     1       2.999   6.466  18.019  0.00  0.00    +0.000 C 
ATOM      3  N   UNL     1       2.819   5.120  17.709  0.00  0.00    +0.000 N 
ATOM      4  C   UNL     1       3.916   4.177  17.480  0.00  0.00    +0.000 C 
ATOM      5  C   UNL     1       3.905   2.973  18.447  0.00  0.00    +0.000 C 
ATOM      6  C   UNL     1       2.917   1.883  18.002  0.00  0.00    +0.000 C 
ATOM      7  C   UNL     1       1.493   2.123  18.496  0.00  0.00    +0.000 C 
ATOM      8  C   UNL     1       1.274   3.572  18.945  0.00  0.00    +0.000 C 
ATOM      9  C   UNL     1       2.195   3.867  20.141  0.00  0.00    +0.000 C 
ATOM     10  C   UNL     1       3.635   3.387  19.903  0.00  0.00    +0.000 C 
ATOM     11  C   UNL     1       1.469   4.545  17.765  0.00  0.00    +0.000 C 
ENDROOT
BRANCH   1  14
ATOM     12  C   UNL     1       0.314   8.886  17.610  0.00  0.00    +0.000 C 
ATOM     13  C   UNL     1       1.487   9.319  18.485  0.00  0.00    +0.000 C 
ATOM     14  N   UNL     1       2.358   8.483  18.982  0.00  0.00    +0.000 NA
BRANCH  13  15
ATOM     15  C   UNL     1       1.591  10.801  18.735  0.00  0.00    +0.000 A 
ATOM     16  N   UNL     1       2.469  11.438  17.903  0.00  0.00    +0.000 NA
ATOM     17  C   UNL     1       2.606  12.771  18.068  0.00  0.00    +0.000 A 
ATOM     18  C   UNL     1       1.903  13.469  19.025  0.00  0.00    +0.000 A 
ATOM     19  N   UNL     1       1.032  12.861  19.856  0.00  0.00    +0.000 NA
ATOM     20  C   UNL     1       0.874  11.510  19.707  0.00  0.00    +0.000 A 
ATOM     21  C   UNL     1      -0.103  10.893  20.654  0.00  0.00    +0.000 C 
ENDBRANCH  13  15
ENDBRANCH   1  14
BRANCH   2  22
ATOM     22  S   UNL     1       4.487   7.252  17.483  0.00  0.00    +0.000 S 
ATOM     23  H   UNL     1       3.887   8.441  17.366  0.00  0.00    +0.000 HD
ENDBRANCH   2  22
TORSDOF 3
ENDMDL
MODEL 6
REMARK VINA RESULT:      -6.4      9.891     12.287
REMARK  Name = 
REMARK  5 active torsions:
REMARK  status: ('A' for Active; 'I' for Inactive)
REMARK    1  A    between atoms: C_1  and  C_2
REMARK    2  A    between atoms: C_2  and  C_16
REMARK    3  A    between atoms: N_3  and  N_4
REMARK    4  A    between atoms: C_5  and  S_6
REMARK    5  A    between atoms: C_21  and  C_22
REMARK                            x       y       z     vdW  Elec       q    Type
REMARK                         _______ _______ _______ _____ _____    ______ ____
ROOT
ATOM      1  N   UNL     1       7.399  14.559  19.607  0.00  0.00    +0.000 NA
ATOM      2  C   UNL     1       8.322  14.185  20.455  0.00  0.00    +0.000 C 
ATOM      3  N   UNL     1       9.556  13.704  20.025  0.00  0.00    +0.000 N 
ATOM      4  C   UNL     1      10.410  12.814  20.815  0.00  0.00    +0.000 C 
ATOM      5  C   UNL     1      10.716  11.471  20.114  0.00  0.00    +0.000 C 
ATOM      6  C   UNL     1      11.854  11.601  19.089  0.00  0.00    +0.000 C 
ATOM      7  C   UNL     1      11.375  12.057  17.714  0.00  0.00    +0.000 C 
ATOM      8  C   UNL     1       9.979  12.686  17.767  0.00  0.00    +0.000 C 
ATOM      9  C   UNL     1       8.972  11.623  18.236  0.00  0.00    +0.000 C 
ATOM     10  C   UNL     1       9.469  10.847  19.465  0.00  0.00    +0.000 C 
ATOM     11  C   UNL     1       9.984  13.956  18.643  0.00  0.00    +0.000 C 
ENDROOT
BRANCH   1  14
ATOM     12  C   UNL     1       5.540  14.961  17.695  0.00  0.00    +0.000 C 
ATOM     13  C   UNL     1       5.265  15.162  19.182  0.00  0.00    +0.000 C 
ATOM     14  N   UNL     1       6.166  14.985  20.109  0.00  0.00    +0.000 NA
BRANCH  13  15
ATOM     15  C   UNL     1       3.864  15.599  19.523  0.00  0.00    +0.000 A 
ATOM     16  N   UNL     1       3.774  16.912  19.895  0.00  0.00    +0.000 NA
ATOM     17  C   UNL     1       2.544  17.373  20.208  0.00  0.00    +0.000 A 
ATOM     18  C   UNL     1       1.425  16.571  20.162  0.00  0.00    +0.000 A 
ATOM     19  N   UNL     1       1.491  15.273  19.798  0.00  0.00    +0.000 NA
ATOM     20  C   UNL     1       2.727  14.784  19.474  0.00  0.00    +0.000 A 
ATOM     21  C   UNL     1       2.737  13.342  19.080  0.00  0.00    +0.000 C 
ENDBRANCH  13  15
ENDBRANCH   1  14
BRANCH   2  22
ATOM     22  S   UNL     1       8.038  14.315  22.193  0.00  0.00    +0.000 S 
ATOM     23  H   UNL     1       9.344  14.432  22.458  0.00  0.00    +0.000 HD
ENDBRANCH   2  22
TORSDOF 3
ENDMDL
MODEL 7
REMARK VINA RESULT:      -6.3      5.822      8.317
REMARK  Name = 
REMARK  5 active torsions:
REMARK  status: ('A' for Active; 'I' for Inactive)
REMARK    1  A    between atoms: C_1  and  C_2
REMARK    2  A    between atoms: C_2  and  C_16
REMARK    3  A    between atoms: N_3  and  N_4
REMARK    4  A    between atoms: C_5  and  S_6
REMARK    5  A    between atoms: C_21  and  C_22
REMARK                            x       y       z     vdW  Elec       q    Type
REMARK                         _______ _______ _______ _____ _____    ______ ____
ROOT
ATOM      1  N   UNL     1       1.207   9.261  19.774  0.00  0.00    +0.000 NA
ATOM      2  C   UNL     1       0.684   9.941  20.762  0.00  0.00    +0.000 C 
ATOM      3  N   UNL     1       0.083  11.181  20.557  0.00  0.00    +0.000 N 
ATOM      4  C   UNL     1      -0.050  12.209  21.593  0.00  0.00    +0.000 C 
ATOM      5  C   UNL     1       0.631  13.546  21.225  0.00  0.00    +0.000 C 
ATOM      6  C   UNL     1      -0.247  14.407  20.302  0.00  0.00    +0.000 C 
ATOM      7  C   UNL     1      -0.079  14.067  18.824  0.00  0.00    +0.000 C 
ATOM      8  C   UNL     1       0.577  12.698  18.616  0.00  0.00    +0.000 C 
ATOM      9  C   UNL     1       1.995  12.730  19.208  0.00  0.00    +0.000 C 
ATOM     10  C   UNL     1       2.029  13.348  20.614  0.00  0.00    +0.000 C 
ATOM     11  C   UNL     1      -0.307  11.575  19.197  0.00  0.00    +0.000 C 
ENDROOT
BRANCH   1  14
ATOM     12  C   UNL     1       2.173   8.009  17.590  0.00  0.00    +0.000 C 
ATOM     13  C   UNL     1       2.317   7.453  19.003  0.00  0.00    +0.000 C 
ATOM     14  N   UNL     1       1.835   8.047  20.061  0.00  0.00    +0.000 NA
BRANCH  13  15
ATOM     15  C   UNL     1       3.052   6.142  19.106  0.00  0.00    +0.000 A 
ATOM     16  N   UNL     1       2.456   5.243  19.947  0.00  0.00    +0.000 NA
ATOM     17  C   UNL     1       3.059   4.043  20.081  0.00  0.00    +0.000 A 
ATOM     18  C   UNL     1       4.219   3.724  19.411  0.00  0.00    +0.000 A 
ATOM     19  N   UNL     1       4.824   4.595  18.576  0.00  0.00    +0.000 NA
ATOM     20  C   UNL     1       4.230   5.819  18.423  0.00  0.00    +0.000 A 
ATOM     21  C   UNL     1       4.945   6.740  17.487  0.00  0.00    +0.000 C 
ENDBRANCH  13  15
ENDBRANCH   1  14
BRANCH   2  22
ATOM     22  S   UNL     1       0.693   9.280  22.399  0.00  0.00    +0.000 S 
ATOM     23  H   UNL     1      -0.398   8.541  22.171  0.00  0.00    +0.000 HD
ENDBRANCH   2  22
TORSDOF 3
ENDMDL
MODEL 8
REMARK VINA RESULT:      -6.2     10.091     12.610
REMARK  Name = 
REMARK  5 active torsions:
REMARK  status: ('A' for Active; 'I' for Inactive)
REMARK    1  A    between atoms: C_1  and  C_2
REMARK    2  A    between atoms: C_2  and  C_16
REMARK    3  A    between atoms: N_3  and  N_4
REMARK    4  A    between atoms: C_5  and  S_6
REMARK    5  A    between atoms: C_21  and  C_22
REMARK                            x       y       z     vdW  Elec       q    Type
REMARK                         _______ _______ _______ _____ _____    ______ ____
ROOT
ATOM      1  N   UNL     1       7.456  14.495  19.592  0.00  0.00    +0.000 NA
ATOM      2  C   UNL     1       8.503  14.343  20.362  0.00  0.00    +0.000 C 
ATOM      3  N   UNL     1       9.714  13.871  19.862  0.00  0.00    +0.000 N 
ATOM      4  C   UNL     1      10.730  13.198  20.674  0.00  0.00    +0.000 C 
ATOM      5  C   UNL     1      11.065  11.772  20.183  0.00  0.00    +0.000 C 
ATOM      6  C   UNL     1      12.058  11.784  19.009  0.00  0.00    +0.000 C 
ATOM      7  C   UNL     1      11.381  11.950  17.651  0.00  0.00    +0.000 C 
ATOM      8  C   UNL     1       9.951  12.487  17.779  0.00  0.00    +0.000 C 
ATOM      9  C   UNL     1       9.104  11.465  18.555  0.00  0.00    +0.000 C 
ATOM     10  C   UNL     1       9.810  10.961  19.823  0.00  0.00    +0.000 C 
ATOM     11  C   UNL     1       9.951  13.893  18.413  0.00  0.00    +0.000 C 
ENDROOT
BRANCH   1  14
ATOM     12  C   UNL     1       5.467  14.860  17.807  0.00  0.00    +0.000 C 
ATOM     13  C   UNL     1       5.295  15.085  19.307  0.00  0.00    +0.000 C 
ATOM     14  N   UNL     1       6.260  14.927  20.172  0.00  0.00    +0.000 NA
BRANCH  13  15
ATOM     15  C   UNL     1       3.920  15.524  19.737  0.00  0.00    +0.000 A 
ATOM     16  N   UNL     1       2.954  14.577  19.535  0.00  0.00    +0.000 NA
ATOM     17  C   UNL     1       1.697  14.903  19.906  0.00  0.00    +0.000 A 
ATOM     18  C   UNL     1       1.387  16.125  20.460  0.00  0.00    +0.000 A 
ATOM     19  N   UNL     1       2.324  17.073  20.668  0.00  0.00    +0.000 NA
ATOM     20  C   UNL     1       3.606  16.765  20.302  0.00  0.00    +0.000 A 
ATOM     21  C   UNL     1       4.599  17.853  20.556  0.00  0.00    +0.000 C 
ENDBRANCH  13  15
ENDBRANCH   1  14
BRANCH   2  22
ATOM     22  S   UNL     1       8.417  14.771  22.073  0.00  0.00    +0.000 S 
ATOM     23  H   UNL     1       7.432  15.651  21.865  0.00  0.00    +0.000 HD
ENDBRANCH   2  22
TORSDOF 3
ENDMDL
MODEL 9
REMARK VINA RESULT:      -6.2     10.253     13.452
REMARK  Name = 
REMARK  5 active torsions:
REMARK  status: ('A' for Active; 'I' for Inactive)
REMARK    1  A    between atoms: C_1  and  C_2
REMARK    2  A    between atoms: C_2  and  C_16
REMARK    3  A    between atoms: N_3  and  N_4
REMARK    4  A    between atoms: C_5  and  S_6
REMARK    5  A    between atoms: C_21  and  C_22
REMARK                            x       y       z     vdW  Elec       q    Type
REMARK                         _______ _______ _______ _____ _____    ______ ____
ROOT
ATOM      1  N   UNL     1       8.039  13.658  21.505  0.00  0.00    +0.000 NA
ATOM      2  C   UNL     1       9.095  14.310  21.088  0.00  0.00    +0.000 C 
ATOM      3  N   UNL     1       9.718  13.996  19.883  0.00  0.00    +0.000 N 
ATOM      4  C   UNL     1      11.125  14.278  19.589  0.00  0.00    +0.000 C 
ATOM      5  C   UNL     1      11.948  13.017  19.245  0.00  0.00    +0.000 C 
ATOM      6  C   UNL     1      11.761  12.587  17.781  0.00  0.00    +0.000 C 
ATOM      7  C   UNL     1      10.545  11.690  17.568  0.00  0.00    +0.000 C 
ATOM      8  C   UNL     1       9.559  11.765  18.738  0.00  0.00    +0.000 C 
ATOM      9  C   UNL     1      10.254  11.244  20.008  0.00  0.00    +0.000 C 
ATOM     10  C   UNL     1      11.656  11.844  20.196  0.00  0.00    +0.000 C 
ATOM     11  C   UNL     1       8.995  13.192  18.888  0.00  0.00    +0.000 C 
ENDROOT
BRANCH   1  14
ATOM     12  C   UNL     1       7.964  11.596  23.241  0.00  0.00    +0.000 C 
ATOM     13  C   UNL     1       7.477  12.999  23.590  0.00  0.00    +0.000 C 
ATOM     14  N   UNL     1       7.495  13.996  22.746  0.00  0.00    +0.000 NA
BRANCH  13  15
ATOM     15  C   UNL     1       6.948  13.167  24.990  0.00  0.00    +0.000 A 
ATOM     16  N   UNL     1       5.742  12.558  25.198  0.00  0.00    +0.000 NA
ATOM     17  C   UNL     1       5.213  12.663  26.436  0.00  0.00    +0.000 A 
ATOM     18  C   UNL     1       5.845  13.348  27.450  0.00  0.00    +0.000 A 
ATOM     19  N   UNL     1       7.035  13.955  27.267  0.00  0.00    +0.000 NA
ATOM     20  C   UNL     1       7.593  13.861  26.021  0.00  0.00    +0.000 A 
ATOM     21  C   UNL     1       8.910  14.553  25.879  0.00  0.00    +0.000 C 
ENDBRANCH  13  15
ENDBRANCH   1  14
BRANCH   2  22
ATOM     22  S   UNL     1       9.745  15.648  22.039  0.00  0.00    +0.000 S 
ATOM     23  H   UNL     1      10.053  14.847  23.065  0.00  0.00    +0.000 HD
ENDBRANCH   2  22
TORSDOF 3
ENDMDL
