MODEL 1
REMARK VINA RESULT:      -6.9      0.000      0.000
REMARK  Name = 
REMARK  13 active torsions:
REMARK  status: ('A' for Active; 'I' for Inactive)
REMARK    1  A    between atoms: C_2  and  C_3
REMARK    2  A    between atoms: C_3  and  O_4
REMARK    3  A    between atoms: O_4  and  C_5
REMARK    4  A    between atoms: C_7  and  C_8
REMARK    5  A    between atoms: C_8  and  O_10
REMARK    6  A    between atoms: C_12  and  O_13
REMARK    7  A    between atoms: O_13  and  C_14
REMARK    8  A    between atoms: C_14  and  C_15
REMARK    9  A    between atoms: C_14  and  C_17
REMARK   10  A    between atoms: C_15  and  C_16
REMARK   11  A    between atoms: C_17  and  C_18
REMARK   12  A    between atoms: C_19  and  N_20
REMARK   13  A    between atoms: C_21  and  C_22
REMARK                            x       y       z     vdW  Elec       q    Type
REMARK                         _______ _______ _______ _____ _____    ______ ____
ROOT
ATOM      1  C   UNL     1       3.878   5.582  18.244  0.00  0.00    +0.000 C 
ATOM      2  C   UNL     1       3.568   4.188  18.652  0.00  0.00    +0.000 C 
ATOM      3  C   UNL     1       3.816   3.109  17.901  0.00  0.00    +0.000 C 
ATOM      4  O   UNL     1       4.487   3.133  16.719  0.00  0.00    +0.000 OA
ATOM      5  C   UNL     1       5.212   4.308  16.355  0.00  0.00    +0.000 C 
ATOM      6  C   UNL     1       4.604   5.666  16.861  0.00  0.00    +0.000 C 
ENDROOT
BRANCH   6   7
ATOM      7  N   UNL     1       5.588   6.787  16.824  0.00  0.00    +0.000 N 
ATOM      8  C   UNL     1       6.772   6.775  17.522  0.00  0.00    +0.000 C 
ATOM      9  C   UNL     1       7.596   8.034  17.398  0.00  0.00    +0.000 C 
ATOM     10  O   UNL     1       7.138   5.811  18.186  0.00  0.00    +0.000 OA
ATOM     11  H   UNL     1       5.388   7.561  16.202  0.00  0.00    +0.000 HD
ENDBRANCH   6   7
BRANCH   3  12
ATOM     12  C   UNL     1       3.246   1.804  18.348  0.00  0.00    +0.000 C 
ATOM     13  O   UNL     1       2.097   1.624  18.716  0.00  0.00    +0.000 OA
BRANCH  12  14
ATOM     14  O   UNL     1       4.173   0.825  18.274  0.00  0.00    +0.000 OA
ATOM     15  H   UNL     1       4.220   0.481  17.359  0.00  0.00    +0.000 HD
ENDBRANCH  12  14
ENDBRANCH   3  12
BRANCH   1  16
ATOM     16  O   UNL     1       2.631   6.318  18.119  0.00  0.00    +0.000 OA
BRANCH  16  17
ATOM     17  C   UNL     1       2.590   7.574  18.800  0.00  0.00    +0.000 C 
BRANCH  17  19
ATOM     18  C   UNL     1       1.198   9.506  18.003  0.00  0.00    +0.000 C 
ATOM     19  C   UNL     1       2.213   8.646  17.821  0.00  0.00    +0.000 C 
ENDBRANCH  17  19
ENDBRANCH  16  17
ENDBRANCH   1  16
BRANCH   5  20
ATOM     20  O   UNL     1       5.205   4.363  14.907  0.00  0.00    +0.000 OA
BRANCH  20  21
ATOM     21  C   UNL     1       6.396   3.945  14.225  0.00  0.00    +0.000 C 
BRANCH  21  22
ATOM     22  C   UNL     1       6.203   3.431  12.780  0.00  0.00    +0.000 C 
ATOM     23  C   UNL     1       4.778   3.507  12.236  0.00  0.00    +0.000 C 
ENDBRANCH  21  22
BRANCH  21  24
ATOM     24  C   UNL     1       7.346   5.159  14.201  0.00  0.00    +0.000 C 
ATOM     25  C   UNL     1       8.001   5.381  12.847  0.00  0.00    +0.000 C 
ENDBRANCH  21  24
ENDBRANCH  20  21
ENDBRANCH   5  20
TORSDOF 10
ENDMDL
MODEL 2
REMARK VINA RESULT:      -6.8      1.889      6.808
REMARK  Name = 
REMARK  13 active torsions:
REMARK  status: ('A' for Active; 'I' for Inactive)
REMARK    1  A    between atoms: C_2  and  C_3
REMARK    2  A    between atoms: C_3  and  O_4
REMARK    3  A    between atoms: O_4  and  C_5
REMARK    4  A    between atoms: C_7  and  C_8
REMARK    5  A    between atoms: C_8  and  O_10
REMARK    6  A    between atoms: C_12  and  O_13
REMARK    7  A    between atoms: O_13  and  C_14
REMARK    8  A    between atoms: C_14  and  C_15
REMARK    9  A    between atoms: C_14  and  C_17
REMARK   10  A    between atoms: C_15  and  C_16
REMARK   11  A    between atoms: C_17  and  C_18
REMARK   12  A    between atoms: C_19  and  N_20
REMARK   13  A    between atoms: C_21  and  C_22
REMARK                            x       y       z     vdW  Elec       q    Type
REMARK                         _______ _______ _______ _____ _____    ______ ____
ROOT
ATOM      1  C   UNL     1       5.388   4.019  16.870  0.00  0.00    +0.000 C 
ATOM      2  C   UNL     1       6.511   4.959  17.110  0.00  0.00    +0.000 C 
ATOM      3  C   UNL     1       6.410   6.091  17.817  0.00  0.00    +0.000 C 
ATOM      4  O   UNL     1       5.301   6.471  18.504  0.00  0.00    +0.000 OA
ATOM      5  C   UNL     1       4.261   5.518  18.727  0.00  0.00    +0.000 C 
ATOM      6  C   UNL     1       4.070   4.443  17.597  0.00  0.00    +0.000 C 
ENDROOT
BRANCH   6   7
ATOM      7  N   UNL     1       3.289   3.258  18.056  0.00  0.00    +0.000 N 
ATOM      8  C   UNL     1       1.930   3.139  17.891  0.00  0.00    +0.000 C 
ATOM      9  C   UNL     1       1.325   1.889  18.484  0.00  0.00    +0.000 C 
ATOM     10  O   UNL     1       1.260   3.978  17.297  0.00  0.00    +0.000 OA
ATOM     11  H   UNL     1       3.809   2.484  18.453  0.00  0.00    +0.000 HD
ENDBRANCH   6   7
BRANCH   3  12
ATOM     12  C   UNL     1       7.563   7.038  17.781  0.00  0.00    +0.000 C 
ATOM     13  O   UNL     1       7.801   7.829  16.883  0.00  0.00    +0.000 OA
BRANCH  12  14
ATOM     14  O   UNL     1       8.312   6.925  18.900  0.00  0.00    +0.000 OA
ATOM     15  H   UNL     1       7.978   7.536  19.587  0.00  0.00    +0.000 HD
ENDBRANCH  12  14
ENDBRANCH   3  12
BRANCH   1  16
ATOM     16  O   UNL     1       5.101   3.991  15.445  0.00  0.00    +0.000 OA
BRANCH  16  17
ATOM     17  C   UNL     1       6.247   4.016  14.589  0.00  0.00    +0.000 C 
BRANCH  17  19
ATOM     18  C   UNL     1       6.644   3.482  12.167  0.00  0.00    +0.000 C 
ATOM     19  C   UNL     1       5.805   3.762  13.179  0.00  0.00    +0.000 C 
ENDBRANCH  17  19
ENDBRANCH  16  17
ENDBRANCH   1  16
BRANCH   5  20
ATOM     20  O   UNL     1       3.024   6.271  18.800  0.00  0.00    +0.000 OA
BRANCH  20  21
ATOM     21  C   UNL     1       2.514   6.576  20.104  0.00  0.00    +0.000 C 
BRANCH  21  22
ATOM     22  C   UNL     1       1.757   7.918  20.238  0.00  0.00    +0.000 C 
ATOM     23  C   UNL     1       1.675   8.759  18.966  0.00  0.00    +0.000 C 
ENDBRANCH  21  22
BRANCH  21  24
ATOM     24  C   UNL     1       1.563   5.426  20.493  0.00  0.00    +0.000 C 
ATOM     25  C   UNL     1       2.231   4.355  21.341  0.00  0.00    +0.000 C 
ENDBRANCH  21  24
ENDBRANCH  20  21
ENDBRANCH   5  20
TORSDOF 10
ENDMDL
MODEL 3
REMARK VINA RESULT:      -6.7      1.712      5.026
REMARK  Name = 
REMARK  13 active torsions:
REMARK  status: ('A' for Active; 'I' for Inactive)
REMARK    1  A    between atoms: C_2  and  C_3
REMARK    2  A    between atoms: C_3  and  O_4
REMARK    3  A    between atoms: O_4  and  C_5
REMARK    4  A    between atoms: C_7  and  C_8
REMARK    5  A    between atoms: C_8  and  O_10
REMARK    6  A    between atoms: C_12  and  O_13
REMARK    7  A    between atoms: O_13  and  C_14
REMARK    8  A    between atoms: C_14  and  C_15
REMARK    9  A    between atoms: C_14  and  C_17
REMARK   10  A    between atoms: C_15  and  C_16
REMARK   11  A    between atoms: C_17  and  C_18
REMARK   12  A    between atoms: C_19  and  N_20
REMARK   13  A    between atoms: C_21  and  C_22
REMARK                            x       y       z     vdW  Elec       q    Type
REMARK                         _______ _______ _______ _____ _____    ______ ____
ROOT
ATOM      1  C   UNL     1       3.522   4.412  17.176  0.00  0.00    +0.000 C 
ATOM      2  C   UNL     1       2.735   5.364  17.999  0.00  0.00    +0.000 C 
ATOM      3  C   UNL     1       3.077   6.639  18.213  0.00  0.00    +0.000 C 
ATOM      4  O   UNL     1       4.125   7.264  17.615  0.00  0.00    +0.000 OA
ATOM      5  C   UNL     1       4.757   6.644  16.495  0.00  0.00    +0.000 C 
ATOM      6  C   UNL     1       4.774   5.072  16.509  0.00  0.00    +0.000 C 
ENDROOT
BRANCH   6   7
ATOM      7  N   UNL     1       5.052   4.489  15.164  0.00  0.00    +0.000 N 
ATOM      8  C   UNL     1       6.321   4.291  14.675  0.00  0.00    +0.000 C 
ATOM      9  C   UNL     1       6.383   3.747  13.268  0.00  0.00    +0.000 C 
ATOM     10  O   UNL     1       7.328   4.526  15.335  0.00  0.00    +0.000 OA
ATOM     11  H   UNL     1       4.258   4.173  14.621  0.00  0.00    +0.000 HD
ENDBRANCH   6   7
BRANCH   3  12
ATOM     12  C   UNL     1       2.307   7.402  19.240  0.00  0.00    +0.000 C 
ATOM     13  O   UNL     1       1.784   8.490  19.067  0.00  0.00    +0.000 OA
BRANCH  12  14
ATOM     14  O   UNL     1       2.242   6.713  20.400  0.00  0.00    +0.000 OA
ATOM     15  H   UNL     1       3.098   6.270  20.572  0.00  0.00    +0.000 HD
ENDBRANCH  12  14
ENDBRANCH   3  12
BRANCH   1  16
ATOM     16  O   UNL     1       4.009   3.345  18.036  0.00  0.00    +0.000 OA
BRANCH  16  17
ATOM     17  C   UNL     1       3.309   2.103  17.926  0.00  0.00    +0.000 C 
BRANCH  17  19
ATOM     18  C   UNL     1       0.993   2.256  18.885  0.00  0.00    +0.000 C 
ATOM     19  C   UNL     1       2.305   2.012  19.036  0.00  0.00    +0.000 C 
ENDBRANCH  17  19
ENDBRANCH  16  17
ENDBRANCH   1  16
BRANCH   5  20
ATOM     20  O   UNL     1       6.141   7.075  16.516  0.00  0.00    +0.000 OA
BRANCH  20  21
ATOM     21  C   UNL     1       6.781   7.178  17.795  0.00  0.00    +0.000 C 
BRANCH  21  22
ATOM     22  C   UNL     1       6.989   5.848  18.556  0.00  0.00    +0.000 C 
ATOM     23  C   UNL     1       8.200   5.802  19.485  0.00  0.00    +0.000 C 
ENDBRANCH  21  22
BRANCH  21  24
ATOM     24  C   UNL     1       8.155   7.836  17.556  0.00  0.00    +0.000 C 
ATOM     25  C   UNL     1       8.232   9.265  18.071  0.00  0.00    +0.000 C 
ENDBRANCH  21  24
ENDBRANCH  20  21
ENDBRANCH   5  20
TORSDOF 10
ENDMDL
MODEL 4
REMARK VINA RESULT:      -6.6      1.814      6.609
REMARK  Name = 
REMARK  13 active torsions:
REMARK  status: ('A' for Active; 'I' for Inactive)
REMARK    1  A    between atoms: C_2  and  C_3
REMARK    2  A    between atoms: C_3  and  O_4
REMARK    3  A    between atoms: O_4  and  C_5
REMARK    4  A    between atoms: C_7  and  C_8
REMARK    5  A    between atoms: C_8  and  O_10
REMARK    6  A    between atoms: C_12  and  O_13
REMARK    7  A    between atoms: O_13  and  C_14
REMARK    8  A    between atoms: C_14  and  C_15
REMARK    9  A    between atoms: C_14  and  C_17
REMARK   10  A    between atoms: C_15  and  C_16
REMARK   11  A    between atoms: C_17  and  C_18
REMARK   12  A    between atoms: C_19  and  N_20
REMARK   13  A    between atoms: C_21  and  C_22
REMARK                            x       y       z     vdW  Elec       q    Type
REMARK                         _______ _______ _______ _____ _____    ______ ____
ROOT
ATOM      1  C   UNL     1       5.885   3.904  16.953  0.00  0.00    +0.000 C 
ATOM      2  C   UNL     1       6.872   4.977  17.230  0.00  0.00    +0.000 C 
ATOM      3  C   UNL     1       6.570   6.155  17.789  0.00  0.00    +0.000 C 
ATOM      4  O   UNL     1       5.346   6.480  18.281  0.00  0.00    +0.000 OA
ATOM      5  C   UNL     1       4.378   5.448  18.473  0.00  0.00    +0.000 C 
ATOM      6  C   UNL     1       4.445   4.255  17.452  0.00  0.00    +0.000 C 
ENDROOT
BRANCH   6   7
ATOM      7  N   UNL     1       3.720   3.043  17.936  0.00  0.00    +0.000 N 
ATOM      8  C   UNL     1       2.391   2.808  17.681  0.00  0.00    +0.000 C 
ATOM      9  C   UNL     1       1.835   1.555  18.314  0.00  0.00    +0.000 C 
ATOM     10  O   UNL     1       1.709   3.552  16.983  0.00  0.00    +0.000 OA
ATOM     11  H   UNL     1       4.263   2.340  18.422  0.00  0.00    +0.000 HD
ENDBRANCH   6   7
BRANCH   3  12
ATOM     12  C   UNL     1       7.625   7.211  17.798  0.00  0.00    +0.000 C 
ATOM     13  O   UNL     1       7.772   8.070  16.944  0.00  0.00    +0.000 OA
BRANCH  12  14
ATOM     14  O   UNL     1       8.398   7.109  18.901  0.00  0.00    +0.000 OA
ATOM     15  H   UNL     1       8.255   7.885  19.480  0.00  0.00    +0.000 HD
ENDBRANCH  12  14
ENDBRANCH   3  12
BRANCH   1  16
ATOM     16  O   UNL     1       5.803   3.708  15.514  0.00  0.00    +0.000 OA
BRANCH  16  17
ATOM     17  C   UNL     1       6.753   4.446  14.741  0.00  0.00    +0.000 C 
BRANCH  17  19
ATOM     18  C   UNL     1       5.596   3.434  12.754  0.00  0.00    +0.000 C 
ATOM     19  C   UNL     1       6.687   3.980  13.317  0.00  0.00    +0.000 C 
ENDBRANCH  17  19
ENDBRANCH  16  17
ENDBRANCH   1  16
BRANCH   5  20
ATOM     20  O   UNL     1       3.079   6.069  18.302  0.00  0.00    +0.000 OA
BRANCH  20  21
ATOM     21  C   UNL     1       2.200   6.081  19.435  0.00  0.00    +0.000 C 
BRANCH  21  22
ATOM     22  C   UNL     1       2.638   5.217  20.640  0.00  0.00    +0.000 C 
ATOM     23  C   UNL     1       1.675   4.099  21.035  0.00  0.00    +0.000 C 
ENDBRANCH  21  22
BRANCH  21  24
ATOM     24  C   UNL     1       2.079   7.549  19.892  0.00  0.00    +0.000 C 
ATOM     25  C   UNL     1       1.973   8.531  18.735  0.00  0.00    +0.000 C 
ENDBRANCH  21  24
ENDBRANCH  20  21
ENDBRANCH   5  20
TORSDOF 10
ENDMDL
MODEL 5
REMARK VINA RESULT:      -6.4      1.819      6.675
REMARK  Name = 
REMARK  13 active torsions:
REMARK  status: ('A' for Active; 'I' for Inactive)
REMARK    1  A    between atoms: C_2  and  C_3
REMARK    2  A    between atoms: C_3  and  O_4
REMARK    3  A    between atoms: O_4  and  C_5
REMARK    4  A    between atoms: C_7  and  C_8
REMARK    5  A    between atoms: C_8  and  O_10
REMARK    6  A    between atoms: C_12  and  O_13
REMARK    7  A    between atoms: O_13  and  C_14
REMARK    8  A    between atoms: C_14  and  C_15
REMARK    9  A    between atoms: C_14  and  C_17
REMARK   10  A    between atoms: C_15  and  C_16
REMARK   11  A    between atoms: C_17  and  C_18
REMARK   12  A    between atoms: C_19  and  N_20
REMARK   13  A    between atoms: C_21  and  C_22
REMARK                            x       y       z     vdW  Elec       q    Type
REMARK                         _______ _______ _______ _____ _____    ______ ____
ROOT
ATOM      1  C   UNL     1       5.309   3.852  17.435  0.00  0.00    +0.000 C 
ATOM      2  C   UNL     1       6.436   4.796  17.643  0.00  0.00    +0.000 C 
ATOM      3  C   UNL     1       6.290   6.085  17.971  0.00  0.00    +0.000 C 
ATOM      4  O   UNL     1       5.102   6.672  18.270  0.00  0.00    +0.000 OA
ATOM      5  C   UNL     1       3.963   5.847  18.518  0.00  0.00    +0.000 C 
ATOM      6  C   UNL     1       3.912   4.498  17.715  0.00  0.00    +0.000 C 
ENDROOT
BRANCH   6   7
ATOM      7  N   UNL     1       2.959   3.513  18.304  0.00  0.00    +0.000 N 
ATOM      8  C   UNL     1       1.621   3.478  17.994  0.00  0.00    +0.000 C 
ATOM      9  C   UNL     1       0.820   2.445  18.748  0.00  0.00    +0.000 C 
ATOM     10  O   UNL     1       1.117   4.222  17.158  0.00  0.00    +0.000 OA
ATOM     11  H   UNL     1       3.344   2.803  18.916  0.00  0.00    +0.000 HD
ENDBRANCH   6   7
BRANCH   3  12
ATOM     12  C   UNL     1       7.502   6.955  17.924  0.00  0.00    +0.000 C 
ATOM     13  O   UNL     1       8.314   7.087  18.825  0.00  0.00    +0.000 OA
BRANCH  12  14
ATOM     14  O   UNL     1       7.603   7.573  16.727  0.00  0.00    +0.000 OA
ATOM     15  H   UNL     1       6.725   7.905  16.449  0.00  0.00    +0.000 HD
ENDBRANCH  12  14
ENDBRANCH   3  12
BRANCH   1  16
ATOM     16  O   UNL     1       5.312   3.423  16.046  0.00  0.00    +0.000 OA
BRANCH  16  17
ATOM     17  C   UNL     1       5.363   4.475  15.080  0.00  0.00    +0.000 C 
BRANCH  17  19
ATOM     18  C   UNL     1       5.983   3.498  12.852  0.00  0.00    +0.000 C 
ATOM     19  C   UNL     1       6.333   4.098  14.001  0.00  0.00    +0.000 C 
ENDBRANCH  17  19
ENDBRANCH  16  17
ENDBRANCH   1  16
BRANCH   5  20
ATOM     20  O   UNL     1       2.803   6.617  18.112  0.00  0.00    +0.000 OA
BRANCH  20  21
ATOM     21  C   UNL     1       2.524   7.821  18.839  0.00  0.00    +0.000 C 
BRANCH  21  22
ATOM     22  C   UNL     1       1.521   8.794  18.176  0.00  0.00    +0.000 C 
ATOM     23  C   UNL     1       2.008  10.232  18.010  0.00  0.00    +0.000 C 
ENDBRANCH  21  22
BRANCH  21  24
ATOM     24  C   UNL     1       1.970   7.395  20.214  0.00  0.00    +0.000 C 
ATOM     25  C   UNL     1       1.054   8.434  20.840  0.00  0.00    +0.000 C 
ENDBRANCH  21  24
ENDBRANCH  20  21
ENDBRANCH   5  20
TORSDOF 10
ENDMDL
MODEL 6
REMARK VINA RESULT:      -6.4      0.904      1.189
REMARK  Name = 
REMARK  13 active torsions:
REMARK  status: ('A' for Active; 'I' for Inactive)
REMARK    1  A    between atoms: C_2  and  C_3
REMARK    2  A    between atoms: C_3  and  O_4
REMARK    3  A    between atoms: O_4  and  C_5
REMARK    4  A    between atoms: C_7  and  C_8
REMARK    5  A    between atoms: C_8  and  O_10
REMARK    6  A    between atoms: C_12  and  O_13
REMARK    7  A    between atoms: O_13  and  C_14
REMARK    8  A    between atoms: C_14  and  C_15
REMARK    9  A    between atoms: C_14  and  C_17
REMARK   10  A    between atoms: C_15  and  C_16
REMARK   11  A    between atoms: C_17  and  C_18
REMARK   12  A    between atoms: C_19  and  N_20
REMARK   13  A    between atoms: C_21  and  C_22
REMARK                            x       y       z     vdW  Elec       q    Type
REMARK                         _______ _______ _______ _____ _____    ______ ____
ROOT
ATOM      1  C   UNL     1       3.899   6.478  17.741  0.00  0.00    +0.000 C 
ATOM      2  C   UNL     1       3.200   5.220  18.106  0.00  0.00    +0.000 C 
ATOM      3  C   UNL     1       3.269   4.086  17.400  0.00  0.00    +0.000 C 
ATOM      4  O   UNL     1       4.077   3.899  16.323  0.00  0.00    +0.000 OA
ATOM      5  C   UNL     1       5.114   4.845  16.060  0.00  0.00    +0.000 C 
ATOM      6  C   UNL     1       4.802   6.329  16.472  0.00  0.00    +0.000 C 
ENDROOT
BRANCH   6   7
ATOM      7  N   UNL     1       6.030   7.170  16.569  0.00  0.00    +0.000 N 
ATOM      8  C   UNL     1       6.954   7.043  17.577  0.00  0.00    +0.000 C 
ATOM      9  C   UNL     1       8.093   8.033  17.525  0.00  0.00    +0.000 C 
ATOM     10  O   UNL     1       6.868   6.184  18.449  0.00  0.00    +0.000 OA
ATOM     11  H   UNL     1       6.209   7.820  15.813  0.00  0.00    +0.000 HD
ENDBRANCH   6   7
BRANCH   3  12
ATOM     12  C   UNL     1       2.337   2.980  17.768  0.00  0.00    +0.000 C 
ATOM     13  O   UNL     1       2.662   1.826  17.993  0.00  0.00    +0.000 OA
BRANCH  12  14
ATOM     14  O   UNL     1       1.066   3.431  17.846  0.00  0.00    +0.000 OA
ATOM     15  H   UNL     1       0.954   4.213  17.269  0.00  0.00    +0.000 HD
ENDBRANCH  12  14
ENDBRANCH   3  12
BRANCH   1  16
ATOM     16  O   UNL     1       2.903   7.494  17.440  0.00  0.00    +0.000 OA
BRANCH  16  17
ATOM     17  C   UNL     1       2.271   8.086  18.577  0.00  0.00    +0.000 C 
BRANCH  17  19
ATOM     18  C   UNL     1       1.033  10.245  18.918  0.00  0.00    +0.000 C 
ATOM     19  C   UNL     1       1.430   9.240  18.119  0.00  0.00    +0.000 C 
ENDBRANCH  17  19
ENDBRANCH  16  17
ENDBRANCH   1  16
BRANCH   5  20
ATOM     20  O   UNL     1       5.315   4.844  14.625  0.00  0.00    +0.000 OA
BRANCH  20  21
ATOM     21  C   UNL     1       6.426   4.094  14.114  0.00  0.00    +0.000 C 
BRANCH  21  22
ATOM     22  C   UNL     1       6.285   3.580  12.663  0.00  0.00    +0.000 C 
ATOM     23  C   UNL     1       4.855   3.364  12.174  0.00  0.00    +0.000 C 
ENDBRANCH  21  22
BRANCH  21  24
ATOM     24  C   UNL     1       7.662   5.011  14.202  0.00  0.00    +0.000 C 
ATOM     25  C   UNL     1       8.170   5.464  12.842  0.00  0.00    +0.000 C 
ENDBRANCH  21  24
ENDBRANCH  20  21
ENDBRANCH   5  20
TORSDOF 10
ENDMDL
MODEL 7
REMARK VINA RESULT:      -6.4      1.748      6.700
REMARK  Name = 
REMARK  13 active torsions:
REMARK  status: ('A' for Active; 'I' for Inactive)
REMARK    1  A    between atoms: C_2  and  C_3
REMARK    2  A    between atoms: C_3  and  O_4
REMARK    3  A    between atoms: O_4  and  C_5
REMARK    4  A    between atoms: C_7  and  C_8
REMARK    5  A    between atoms: C_8  and  O_10
REMARK    6  A    between atoms: C_12  and  O_13
REMARK    7  A    between atoms: O_13  and  C_14
REMARK    8  A    between atoms: C_14  and  C_15
REMARK    9  A    between atoms: C_14  and  C_17
REMARK   10  A    between atoms: C_15  and  C_16
REMARK   11  A    between atoms: C_17  and  C_18
REMARK   12  A    between atoms: C_19  and  N_20
REMARK   13  A    between atoms: C_21  and  C_22
REMARK                            x       y       z     vdW  Elec       q    Type
REMARK                         _______ _______ _______ _____ _____    ______ ____
ROOT
ATOM      1  C   UNL     1       5.365   4.397  16.429  0.00  0.00    +0.000 C 
ATOM      2  C   UNL     1       6.495   5.245  16.884  0.00  0.00    +0.000 C 
ATOM      3  C   UNL     1       6.361   6.336  17.646  0.00  0.00    +0.000 C 
ATOM      4  O   UNL     1       5.189   6.748  18.199  0.00  0.00    +0.000 OA
ATOM      5  C   UNL     1       4.075   5.854  18.212  0.00  0.00    +0.000 C 
ATOM      6  C   UNL     1       3.984   4.864  16.995  0.00  0.00    +0.000 C 
ENDROOT
BRANCH   6   7
ATOM      7  N   UNL     1       3.079   3.708  17.262  0.00  0.00    +0.000 N 
ATOM      8  C   UNL     1       3.327   2.762  18.226  0.00  0.00    +0.000 C 
ATOM      9  C   UNL     1       2.319   1.640  18.291  0.00  0.00    +0.000 C 
ATOM     10  O   UNL     1       4.288   2.828  18.986  0.00  0.00    +0.000 OA
ATOM     11  H   UNL     1       2.213   3.666  16.738  0.00  0.00    +0.000 HD
ENDBRANCH   6   7
BRANCH   3  12
ATOM     12  C   UNL     1       7.560   7.205  17.833  0.00  0.00    +0.000 C 
ATOM     13  O   UNL     1       7.851   8.167  17.141  0.00  0.00    +0.000 OA
BRANCH  12  14
ATOM     14  O   UNL     1       8.284   6.800  18.899  0.00  0.00    +0.000 OA
ATOM     15  H   UNL     1       8.053   7.339  19.682  0.00  0.00    +0.000 HD
ENDBRANCH  12  14
ENDBRANCH   3  12
BRANCH   1  16
ATOM     16  O   UNL     1       5.281   4.473  14.979  0.00  0.00    +0.000 OA
BRANCH  16  17
ATOM     17  C   UNL     1       6.507   4.240  14.282  0.00  0.00    +0.000 C 
BRANCH  17  19
ATOM     18  C   UNL     1       6.736   3.780  11.823  0.00  0.00    +0.000 C 
ATOM     19  C   UNL     1       6.213   3.480  13.023  0.00  0.00    +0.000 C 
ENDBRANCH  17  19
ENDBRANCH  16  17
ENDBRANCH   1  16
BRANCH   5  20
ATOM     20  O   UNL     1       2.886   6.682  18.166  0.00  0.00    +0.000 OA
BRANCH  20  21
ATOM     21  C   UNL     1       1.990   6.612  19.283  0.00  0.00    +0.000 C 
BRANCH  21  22
ATOM     22  C   UNL     1       2.311   5.531  20.341  0.00  0.00    +0.000 C 
ATOM     23  C   UNL     1       1.240   4.461  20.538  0.00  0.00    +0.000 C 
ENDBRANCH  21  22
BRANCH  21  24
ATOM     24  C   UNL     1       2.012   7.996  19.962  0.00  0.00    +0.000 C 
ATOM     25  C   UNL     1       1.166   8.059  21.223  0.00  0.00    +0.000 C 
ENDBRANCH  21  24
ENDBRANCH  20  21
ENDBRANCH   5  20
TORSDOF 10
ENDMDL
MODEL 8
REMARK VINA RESULT:      -6.4      0.959      1.223
REMARK  Name = 
REMARK  13 active torsions:
REMARK  status: ('A' for Active; 'I' for Inactive)
REMARK    1  A    between atoms: C_2  and  C_3
REMARK    2  A    between atoms: C_3  and  O_4
REMARK    3  A    between atoms: O_4  and  C_5
REMARK    4  A    between atoms: C_7  and  C_8
REMARK    5  A    between atoms: C_8  and  O_10
REMARK    6  A    between atoms: C_12  and  O_13
REMARK    7  A    between atoms: O_13  and  C_14
REMARK    8  A    between atoms: C_14  and  C_15
REMARK    9  A    between atoms: C_14  and  C_17
REMARK   10  A    between atoms: C_15  and  C_16
REMARK   11  A    between atoms: C_17  and  C_18
REMARK   12  A    between atoms: C_19  and  N_20
REMARK   13  A    between atoms: C_21  and  C_22
REMARK                            x       y       z     vdW  Elec       q    Type
REMARK                         _______ _______ _______ _____ _____    ______ ____
ROOT
ATOM      1  C   UNL     1       4.316   5.759  18.372  0.00  0.00    +0.000 C 
ATOM      2  C   UNL     1       3.964   4.352  18.689  0.00  0.00    +0.000 C 
ATOM      3  C   UNL     1       4.075   3.334  17.829  0.00  0.00    +0.000 C 
ATOM      4  O   UNL     1       4.630   3.430  16.592  0.00  0.00    +0.000 OA
ATOM      5  C   UNL     1       5.385   4.595  16.258  0.00  0.00    +0.000 C 
ATOM      6  C   UNL     1       4.909   5.931  16.935  0.00  0.00    +0.000 C 
ENDROOT
BRANCH   6   7
ATOM      7  N   UNL     1       5.950   6.999  16.894  0.00  0.00    +0.000 N 
ATOM      8  C   UNL     1       7.081   6.981  17.673  0.00  0.00    +0.000 C 
ATOM      9  C   UNL     1       7.976   8.188  17.525  0.00  0.00    +0.000 C 
ATOM     10  O   UNL     1       7.352   6.049  18.425  0.00  0.00    +0.000 OA
ATOM     11  H   UNL     1       5.833   7.736  16.209  0.00  0.00    +0.000 HD
ENDBRANCH   6   7
BRANCH   3  12
ATOM     12  C   UNL     1       3.474   2.025  18.220  0.00  0.00    +0.000 C 
ATOM     13  O   UNL     1       3.959   1.231  19.010  0.00  0.00    +0.000 OA
BRANCH  12  14
ATOM     14  O   UNL     1       2.291   1.834  17.595  0.00  0.00    +0.000 OA
ATOM     15  H   UNL     1       2.278   0.953  17.170  0.00  0.00    +0.000 HD
ENDBRANCH  12  14
ENDBRANCH   3  12
BRANCH   1  16
ATOM     16  O   UNL     1       3.107   6.566  18.435  0.00  0.00    +0.000 OA
BRANCH  16  17
ATOM     17  C   UNL     1       2.376   6.478  19.660  0.00  0.00    +0.000 C 
BRANCH  17  19
ATOM     18  C   UNL     1       1.338   8.160  21.210  0.00  0.00    +0.000 C 
ATOM     19  C   UNL     1       1.851   7.838  20.011  0.00  0.00    +0.000 C 
ENDBRANCH  17  19
ENDBRANCH  16  17
ENDBRANCH   1  16
BRANCH   5  20
ATOM     20  O   UNL     1       5.242   4.779  14.827  0.00  0.00    +0.000 OA
BRANCH  20  21
ATOM     21  C   UNL     1       6.123   4.034  13.976  0.00  0.00    +0.000 C 
BRANCH  21  22
ATOM     22  C   UNL     1       5.629   3.802  12.529  0.00  0.00    +0.000 C 
ATOM     23  C   UNL     1       5.950   2.433  11.934  0.00  0.00    +0.000 C 
ENDBRANCH  21  22
BRANCH  21  24
ATOM     24  C   UNL     1       7.458   4.805  13.929  0.00  0.00    +0.000 C 
ATOM     25  C   UNL     1       7.775   5.374  12.555  0.00  0.00    +0.000 C 
ENDBRANCH  21  24
ENDBRANCH  20  21
ENDBRANCH   5  20
TORSDOF 10
ENDMDL
MODEL 9
REMARK VINA RESULT:      -6.4      2.292      4.206
REMARK  Name = 
REMARK  13 active torsions:
REMARK  status: ('A' for Active; 'I' for Inactive)
REMARK    1  A    between atoms: C_2  and  C_3
REMARK    2  A    between atoms: C_3  and  O_4
REMARK    3  A    between atoms: O_4  and  C_5
REMARK    4  A    between atoms: C_7  and  C_8
REMARK    5  A    between atoms: C_8  and  O_10
REMARK    6  A    between atoms: C_12  and  O_13
REMARK    7  A    between atoms: O_13  and  C_14
REMARK    8  A    between atoms: C_14  and  C_15
REMARK    9  A    between atoms: C_14  and  C_17
REMARK   10  A    between atoms: C_15  and  C_16
REMARK   11  A    between atoms: C_17  and  C_18
REMARK   12  A    between atoms: C_19  and  N_20
REMARK   13  A    between atoms: C_21  and  C_22
REMARK                            x       y       z     vdW  Elec       q    Type
REMARK                         _______ _______ _______ _____ _____    ______ ____
ROOT
ATOM      1  C   UNL     1       2.014   4.506  20.615  0.00  0.00    +0.000 C 
ATOM      2  C   UNL     1       2.890   3.321  20.799  0.00  0.00    +0.000 C 
ATOM      3  C   UNL     1       4.097   3.181  20.240  0.00  0.00    +0.000 C 
ATOM      4  O   UNL     1       4.730   4.148  19.526  0.00  0.00    +0.000 OA
ATOM      5  C   UNL     1       4.234   5.486  19.575  0.00  0.00    +0.000 C 
ATOM      6  C   UNL     1       2.679   5.628  19.751  0.00  0.00    +0.000 C 
ENDROOT
BRANCH   6   7
ATOM      7  N   UNL     1       2.274   6.989  20.211  0.00  0.00    +0.000 N 
ATOM      8  C   UNL     1       1.917   8.000  19.353  0.00  0.00    +0.000 C 
ATOM      9  C   UNL     1       1.602   9.318  20.018  0.00  0.00    +0.000 C 
ATOM     10  O   UNL     1       1.848   7.843  18.138  0.00  0.00    +0.000 OA
ATOM     11  H   UNL     1       2.205   7.140  21.210  0.00  0.00    +0.000 HD
ENDBRANCH   6   7
BRANCH   3  12
ATOM     12  C   UNL     1       4.756   1.845  20.337  0.00  0.00    +0.000 C 
ATOM     13  O   UNL     1       5.359   1.423  21.309  0.00  0.00    +0.000 OA
BRANCH  12  14
ATOM     14  O   UNL     1       4.579   1.140  19.198  0.00  0.00    +0.000 OA
ATOM     15  H   UNL     1       4.796   1.698  18.424  0.00  0.00    +0.000 HD
ENDBRANCH  12  14
ENDBRANCH   3  12
BRANCH   1  16
ATOM     16  O   UNL     1       0.807   4.089  19.920  0.00  0.00    +0.000 OA
BRANCH  16  17
ATOM     17  C   UNL     1       0.983   3.041  18.963  0.00  0.00    +0.000 C 
BRANCH  17  19
ATOM     18  C   UNL     1       2.526   3.247  16.993  0.00  0.00    +0.000 C 
ATOM     19  C   UNL     1       1.430   3.639  17.663  0.00  0.00    +0.000 C 
ENDBRANCH  17  19
ENDBRANCH  16  17
ENDBRANCH   1  16
BRANCH   5  20
ATOM     20  O   UNL     1       4.566   6.094  18.302  0.00  0.00    +0.000 OA
BRANCH  20  21
ATOM     21  C   UNL     1       5.618   5.489  17.538  0.00  0.00    +0.000 C 
BRANCH  21  22
ATOM     22  C   UNL     1       5.528   5.667  16.004  0.00  0.00    +0.000 C 
ATOM     23  C   UNL     1       6.066   4.505  15.173  0.00  0.00    +0.000 C 
ENDBRANCH  21  22
BRANCH  21  24
ATOM     24  C   UNL     1       6.942   6.105  18.034  0.00  0.00    +0.000 C 
ATOM     25  C   UNL     1       7.280   7.426  17.360  0.00  0.00    +0.000 C 
ENDBRANCH  21  24
ENDBRANCH  20  21
ENDBRANCH   5  20
TORSDOF 10
ENDMDL
