MODEL 1
REMARK VINA RESULT:      -6.0      0.000      0.000
REMARK  Name = 
REMARK  15 active torsions:
REMARK  status: ('A' for Active; 'I' for Inactive)
REMARK    1  A    between atoms: C_1  and  C_2
REMARK    2  A    between atoms: C_2  and  C_3
REMARK    3  A    between atoms: C_3  and  C_4
REMARK    4  A    between atoms: C_4  and  O_5
REMARK    5  A    between atoms: O_5  and  C_6
REMARK    6  A    between atoms: C_6  and  C_8
REMARK    7  A    between atoms: C_8  and  N_9
REMARK    8  A    between atoms: N_9  and  C_10
REMARK    9  A    between atoms: C_13  and  S_14
REMARK   10  A    between atoms: S_14  and  C_15
REMARK   11  A    between atoms: C_15  and  C_16
REMARK   12  A    between atoms: C_16  and  O_18
REMARK   13  A    between atoms: O_18  and  C_19
REMARK   14  A    between atoms: C_19  and  C_20
REMARK   15  A    between atoms: C_22  and  O_23
REMARK                            x       y       z     vdW  Elec       q    Type
REMARK                         _______ _______ _______ _____ _____    ______ ____
ROOT
ATOM      1  C   UNL     1       4.502   4.612  17.123  0.00  0.00    +0.000 A 
ATOM      2  N   UNL     1       3.346   5.294  16.969  0.00  0.00    +0.000 NA
ATOM      3  N   UNL     1       2.627   5.675  18.085  0.00  0.00    +0.000 NA
ATOM      4  C   UNL     1       3.063   5.328  19.317  0.00  0.00    +0.000 A 
ATOM      5  N   UNL     1       4.206   4.668  19.549  0.00  0.00    +0.000 NA
ATOM      6  C   UNL     1       4.878   4.334  18.438  0.00  0.00    +0.000 A 
ENDROOT
BRANCH   1   7
ATOM      7  N   UNL     1       5.254   4.137  16.048  0.00  0.00    +0.000 N 
ATOM      8  H   UNL     1       5.696   3.244  16.274  0.00  0.00    +0.000 HD
BRANCH   7   9
ATOM      9  C   UNL     1       6.131   5.078  15.356  0.00  0.00    +0.000 C 
BRANCH   9  10
ATOM     10  C   UNL     1       7.428   5.298  16.135  0.00  0.00    +0.000 C 
ATOM     11  O   UNL     1       8.079   4.415  16.685  0.00  0.00    +0.000 OA
BRANCH  10  12
ATOM     12  O   UNL     1       7.649   6.638  16.284  0.00  0.00    +0.000 OA
BRANCH  12  13
ATOM     13  C   UNL     1       7.162   7.181  17.512  0.00  0.00    +0.000 C 
BRANCH  13  14
ATOM     14  C   UNL     1       8.230   7.922  18.309  0.00  0.00    +0.000 C 
BRANCH  14  16
ATOM     15  C   UNL     1       9.154  10.251  18.751  0.00  0.00    +0.000 C 
ATOM     16  C   UNL     1       8.169   9.412  17.961  0.00  0.00    +0.000 C 
ENDBRANCH  14  16
ENDBRANCH  13  14
ENDBRANCH  12  13
ENDBRANCH  10  12
ENDBRANCH   9  10
ENDBRANCH   7   9
ENDBRANCH   1   7
BRANCH   6  17
ATOM     17  O   UNL     1       6.021   3.632  18.697  0.00  0.00    +0.000 OA
ATOM     18  H   UNL     1       6.687   4.334  18.597  0.00  0.00    +0.000 HD
ENDBRANCH   6  17
BRANCH   4  19
ATOM     19  S   UNL     1       2.120   5.793  20.753  0.00  0.00    +0.000 S 
BRANCH  19  20
ATOM     20  C   UNL     1       0.781   4.567  20.683  0.00  0.00    +0.000 C 
BRANCH  20  21
ATOM     21  C   UNL     1       1.243   3.155  20.950  0.00  0.00    +0.000 C 
ATOM     22  O   UNL     1       1.734   2.733  21.988  0.00  0.00    +0.000 OA
BRANCH  21  23
ATOM     23  O   UNL     1       1.069   2.416  19.813  0.00  0.00    +0.000 OA
BRANCH  23  24
ATOM     24  C   UNL     1       2.250   1.773  19.311  0.00  0.00    +0.000 C 
ATOM     25  C   UNL     1       2.283   1.981  17.809  0.00  0.00    +0.000 C 
ENDBRANCH  23  24
ENDBRANCH  21  23
ENDBRANCH  20  21
ENDBRANCH  19  20
ENDBRANCH   4  19
TORSDOF 13
ENDMDL
MODEL 2
REMARK VINA RESULT:      -5.9      2.293      4.039
REMARK  Name = 
REMARK  15 active torsions:
REMARK  status: ('A' for Active; 'I' for Inactive)
REMARK    1  A    between atoms: C_1  and  C_2
REMARK    2  A    between atoms: C_2  and  C_3
REMARK    3  A    between atoms: C_3  and  C_4
REMARK    4  A    between atoms: C_4  and  O_5
REMARK    5  A    between atoms: O_5  and  C_6
REMARK    6  A    between atoms: C_6  and  C_8
REMARK    7  A    between atoms: C_8  and  N_9
REMARK    8  A    between atoms: N_9  and  C_10
REMARK    9  A    between atoms: C_13  and  S_14
REMARK   10  A    between atoms: S_14  and  C_15
REMARK   11  A    between atoms: C_15  and  C_16
REMARK   12  A    between atoms: C_16  and  O_18
REMARK   13  A    between atoms: O_18  and  C_19
REMARK   14  A    between atoms: C_19  and  C_20
REMARK   15  A    between atoms: C_22  and  O_23
REMARK                            x       y       z     vdW  Elec       q    Type
REMARK                         _______ _______ _______ _____ _____    ______ ____
ROOT
ATOM      1  C   UNL     1       4.831   6.209  17.733  0.00  0.00    +0.000 A 
ATOM      2  N   UNL     1       3.642   6.840  17.628  0.00  0.00    +0.000 NA
ATOM      3  N   UNL     1       2.679   6.645  18.598  0.00  0.00    +0.000 NA
ATOM      4  C   UNL     1       2.917   5.792  19.620  0.00  0.00    +0.000 A 
ATOM      5  N   UNL     1       4.076   5.144  19.801  0.00  0.00    +0.000 NA
ATOM      6  C   UNL     1       4.986   5.377  18.844  0.00  0.00    +0.000 A 
ENDROOT
BRANCH   1   7
ATOM      7  N   UNL     1       5.832   6.303  16.765  0.00  0.00    +0.000 N 
ATOM      8  H   UNL     1       6.229   7.245  16.737  0.00  0.00    +0.000 HD
BRANCH   7   9
ATOM      9  C   UNL     1       5.567   5.729  15.448  0.00  0.00    +0.000 C 
BRANCH   9  10
ATOM     10  C   UNL     1       6.011   4.269  15.384  0.00  0.00    +0.000 C 
ATOM     11  O   UNL     1       5.877   3.450  16.287  0.00  0.00    +0.000 OA
BRANCH  10  12
ATOM     12  O   UNL     1       6.743   4.065  14.248  0.00  0.00    +0.000 OA
BRANCH  12  13
ATOM     13  C   UNL     1       5.968   4.023  13.049  0.00  0.00    +0.000 C 
BRANCH  13  14
ATOM     14  C   UNL     1       6.482   3.009  12.033  0.00  0.00    +0.000 C 
BRANCH  14  16
ATOM     15  C   UNL     1       4.081   3.159  11.205  0.00  0.00    +0.000 C 
ATOM     16  C   UNL     1       5.289   2.269  11.420  0.00  0.00    +0.000 C 
ENDBRANCH  14  16
ENDBRANCH  13  14
ENDBRANCH  12  13
ENDBRANCH  10  12
ENDBRANCH   9  10
ENDBRANCH   7   9
ENDBRANCH   1   7
BRANCH   6  17
ATOM     17  O   UNL     1       6.145   4.679  19.029  0.00  0.00    +0.000 OA
ATOM     18  H   UNL     1       6.262   4.292  18.144  0.00  0.00    +0.000 HD
ENDBRANCH   6  17
BRANCH   4  19
ATOM     19  S   UNL     1       1.663   5.517  20.853  0.00  0.00    +0.000 S 
BRANCH  19  20
ATOM     20  C   UNL     1       0.925   3.976  20.238  0.00  0.00    +0.000 C 
BRANCH  20  21
ATOM     21  C   UNL     1       1.746   2.748  20.552  0.00  0.00    +0.000 C 
ATOM     22  O   UNL     1       2.371   2.533  21.581  0.00  0.00    +0.000 OA
BRANCH  21  23
ATOM     23  O   UNL     1       1.722   1.917  19.467  0.00  0.00    +0.000 OA
BRANCH  23  24
ATOM     24  C   UNL     1       2.913   1.918  18.666  0.00  0.00    +0.000 C 
ATOM     25  C   UNL     1       2.633   2.744  17.426  0.00  0.00    +0.000 C 
ENDBRANCH  23  24
ENDBRANCH  21  23
ENDBRANCH  20  21
ENDBRANCH  19  20
ENDBRANCH   4  19
TORSDOF 13
ENDMDL
MODEL 3
REMARK VINA RESULT:      -5.9      2.037      2.922
REMARK  Name = 
REMARK  15 active torsions:
REMARK  status: ('A' for Active; 'I' for Inactive)
REMARK    1  A    between atoms: C_1  and  C_2
REMARK    2  A    between atoms: C_2  and  C_3
REMARK    3  A    between atoms: C_3  and  C_4
REMARK    4  A    between atoms: C_4  and  O_5
REMARK    5  A    between atoms: O_5  and  C_6
REMARK    6  A    between atoms: C_6  and  C_8
REMARK    7  A    between atoms: C_8  and  N_9
REMARK    8  A    between atoms: N_9  and  C_10
REMARK    9  A    between atoms: C_13  and  S_14
REMARK   10  A    between atoms: S_14  and  C_15
REMARK   11  A    between atoms: C_15  and  C_16
REMARK   12  A    between atoms: C_16  and  O_18
REMARK   13  A    between atoms: O_18  and  C_19
REMARK   14  A    between atoms: C_19  and  C_20
REMARK   15  A    between atoms: C_22  and  O_23
REMARK                            x       y       z     vdW  Elec       q    Type
REMARK                         _______ _______ _______ _____ _____    ______ ____
ROOT
ATOM      1  C   UNL     1       5.938   4.150  18.007  0.00  0.00    +0.000 A 
ATOM      2  N   UNL     1       5.772   3.682  19.263  0.00  0.00    +0.000 NA
ATOM      3  N   UNL     1       4.604   3.026  19.596  0.00  0.00    +0.000 NA
ATOM      4  C   UNL     1       3.621   2.893  18.677  0.00  0.00    +0.000 A 
ATOM      5  N   UNL     1       3.719   3.314  17.408  0.00  0.00    +0.000 NA
ATOM      6  C   UNL     1       4.876   3.931  17.127  0.00  0.00    +0.000 A 
ENDROOT
BRANCH   1   7
ATOM      7  N   UNL     1       7.060   4.878  17.608  0.00  0.00    +0.000 N 
ATOM      8  H   UNL     1       7.904   4.302  17.643  0.00  0.00    +0.000 HD
BRANCH   7   9
ATOM      9  C   UNL     1       7.232   6.222  18.152  0.00  0.00    +0.000 C 
BRANCH   9  10
ATOM     10  C   UNL     1       6.759   7.284  17.160  0.00  0.00    +0.000 C 
ATOM     11  O   UNL     1       5.748   7.204  16.470  0.00  0.00    +0.000 OA
BRANCH  10  12
ATOM     12  O   UNL     1       7.724   8.242  17.022  0.00  0.00    +0.000 OA
BRANCH  12  13
ATOM     13  C   UNL     1       8.326   8.649  18.252  0.00  0.00    +0.000 C 
BRANCH  13  14
ATOM     14  C   UNL     1       8.836  10.086  18.226  0.00  0.00    +0.000 C 
BRANCH  14  16
ATOM     15  C   UNL     1      10.597  11.378  19.532  0.00  0.00    +0.000 C 
ATOM     16  C   UNL     1       9.410  10.437  19.602  0.00  0.00    +0.000 C 
ENDBRANCH  14  16
ENDBRANCH  13  14
ENDBRANCH  12  13
ENDBRANCH  10  12
ENDBRANCH   9  10
ENDBRANCH   7   9
ENDBRANCH   1   7
BRANCH   6  17
ATOM     17  O   UNL     1       4.940   4.383  15.840  0.00  0.00    +0.000 OA
ATOM     18  H   UNL     1       4.031   4.199  15.543  0.00  0.00    +0.000 HD
ENDBRANCH   6  17
BRANCH   4  19
ATOM     19  S   UNL     1       2.103   2.073  19.116  0.00  0.00    +0.000 S 
BRANCH  19  20
ATOM     20  C   UNL     1       1.054   3.503  19.506  0.00  0.00    +0.000 C 
BRANCH  20  21
ATOM     21  C   UNL     1       1.705   4.488  20.447  0.00  0.00    +0.000 C 
ATOM     22  O   UNL     1       2.169   4.243  21.552  0.00  0.00    +0.000 OA
BRANCH  21  23
ATOM     23  O   UNL     1       1.651   5.732  19.884  0.00  0.00    +0.000 OA
BRANCH  23  24
ATOM     24  C   UNL     1       2.912   6.267  19.454  0.00  0.00    +0.000 C 
ATOM     25  C   UNL     1       2.633   7.280  18.360  0.00  0.00    +0.000 C 
ENDBRANCH  23  24
ENDBRANCH  21  23
ENDBRANCH  20  21
ENDBRANCH  19  20
ENDBRANCH   4  19
TORSDOF 13
ENDMDL
MODEL 4
REMARK VINA RESULT:      -5.8      2.060      6.311
REMARK  Name = 
REMARK  15 active torsions:
REMARK  status: ('A' for Active; 'I' for Inactive)
REMARK    1  A    between atoms: C_1  and  C_2
REMARK    2  A    between atoms: C_2  and  C_3
REMARK    3  A    between atoms: C_3  and  C_4
REMARK    4  A    between atoms: C_4  and  O_5
REMARK    5  A    between atoms: O_5  and  C_6
REMARK    6  A    between atoms: C_6  and  C_8
REMARK    7  A    between atoms: C_8  and  N_9
REMARK    8  A    between atoms: N_9  and  C_10
REMARK    9  A    between atoms: C_13  and  S_14
REMARK   10  A    between atoms: S_14  and  C_15
REMARK   11  A    between atoms: C_15  and  C_16
REMARK   12  A    between atoms: C_16  and  O_18
REMARK   13  A    between atoms: O_18  and  C_19
REMARK   14  A    between atoms: C_19  and  C_20
REMARK   15  A    between atoms: C_22  and  O_23
REMARK                            x       y       z     vdW  Elec       q    Type
REMARK                         _______ _______ _______ _____ _____    ______ ____
ROOT
ATOM      1  C   UNL     1       3.884   3.053  18.806  0.00  0.00    +0.000 A 
ATOM      2  N   UNL     1       4.907   3.635  19.469  0.00  0.00    +0.000 NA
ATOM      3  N   UNL     1       5.414   4.837  19.018  0.00  0.00    +0.000 NA
ATOM      4  C   UNL     1       4.914   5.399  17.894  0.00  0.00    +0.000 A 
ATOM      5  N   UNL     1       3.891   4.891  17.194  0.00  0.00    +0.000 NA
ATOM      6  C   UNL     1       3.420   3.733  17.679  0.00  0.00    +0.000 A 
ENDROOT
BRANCH   1   7
ATOM      7  N   UNL     1       3.357   1.810  19.160  0.00  0.00    +0.000 N 
ATOM      8  H   UNL     1       3.487   1.128  18.410  0.00  0.00    +0.000 HD
BRANCH   7   9
ATOM      9  C   UNL     1       2.030   1.778  19.770  0.00  0.00    +0.000 C 
BRANCH   9  10
ATOM     10  C   UNL     1       2.008   2.554  21.086  0.00  0.00    +0.000 C 
ATOM     11  O   UNL     1       2.766   2.360  22.031  0.00  0.00    +0.000 OA
BRANCH  10  12
ATOM     12  O   UNL     1       0.906   3.362  21.121  0.00  0.00    +0.000 OA
BRANCH  12  13
ATOM     13  C   UNL     1       0.989   4.505  20.269  0.00  0.00    +0.000 C 
BRANCH  13  14
ATOM     14  C   UNL     1       1.690   5.693  20.920  0.00  0.00    +0.000 C 
BRANCH  14  16
ATOM     15  C   UNL     1       1.741   8.121  20.163  0.00  0.00    +0.000 C 
ATOM     16  C   UNL     1       2.103   6.687  19.831  0.00  0.00    +0.000 C 
ENDBRANCH  14  16
ENDBRANCH  13  14
ENDBRANCH  12  13
ENDBRANCH  10  12
ENDBRANCH   9  10
ENDBRANCH   7   9
ENDBRANCH   1   7
BRANCH   6  17
ATOM     17  O   UNL     1       2.402   3.216  16.928  0.00  0.00    +0.000 OA
ATOM     18  H   UNL     1       1.698   3.161  17.598  0.00  0.00    +0.000 HD
ENDBRANCH   6  17
BRANCH   4  19
ATOM     19  S   UNL     1       5.590   6.933  17.296  0.00  0.00    +0.000 S 
BRANCH  19  20
ATOM     20  C   UNL     1       7.328   6.462  17.061  0.00  0.00    +0.000 C 
BRANCH  20  21
ATOM     21  C   UNL     1       7.505   5.192  16.264  0.00  0.00    +0.000 C 
ATOM     22  O   UNL     1       7.926   4.122  16.682  0.00  0.00    +0.000 OA
BRANCH  21  23
ATOM     23  O   UNL     1       7.159   5.439  14.965  0.00  0.00    +0.000 OA
BRANCH  23  24
ATOM     24  C   UNL     1       5.986   4.755  14.500  0.00  0.00    +0.000 C 
ATOM     25  C   UNL     1       6.406   3.845  13.361  0.00  0.00    +0.000 C 
ENDBRANCH  23  24
ENDBRANCH  21  23
ENDBRANCH  20  21
ENDBRANCH  19  20
ENDBRANCH   4  19
TORSDOF 13
ENDMDL
MODEL 5
REMARK VINA RESULT:      -5.8      3.366      8.195
REMARK  Name = 
REMARK  15 active torsions:
REMARK  status: ('A' for Active; 'I' for Inactive)
REMARK    1  A    between atoms: C_1  and  C_2
REMARK    2  A    between atoms: C_2  and  C_3
REMARK    3  A    between atoms: C_3  and  C_4
REMARK    4  A    between atoms: C_4  and  O_5
REMARK    5  A    between atoms: O_5  and  C_6
REMARK    6  A    between atoms: C_6  and  C_8
REMARK    7  A    between atoms: C_8  and  N_9
REMARK    8  A    between atoms: N_9  and  C_10
REMARK    9  A    between atoms: C_13  and  S_14
REMARK   10  A    between atoms: S_14  and  C_15
REMARK   11  A    between atoms: C_15  and  C_16
REMARK   12  A    between atoms: C_16  and  O_18
REMARK   13  A    between atoms: O_18  and  C_19
REMARK   14  A    between atoms: C_19  and  C_20
REMARK   15  A    between atoms: C_22  and  O_23
REMARK                            x       y       z     vdW  Elec       q    Type
REMARK                         _______ _______ _______ _____ _____    ______ ____
ROOT
ATOM      1  C   UNL     1       6.734   5.403  18.125  0.00  0.00    +0.000 A 
ATOM      2  N   UNL     1       6.227   6.183  17.145  0.00  0.00    +0.000 NA
ATOM      3  N   UNL     1       6.729   7.455  16.958  0.00  0.00    +0.000 NA
ATOM      4  C   UNL     1       7.694   7.925  17.781  0.00  0.00    +0.000 A 
ATOM      5  N   UNL     1       8.258   7.206  18.762  0.00  0.00    +0.000 NA
ATOM      6  C   UNL     1       7.749   5.973  18.895  0.00  0.00    +0.000 A 
ENDROOT
BRANCH   1   7
ATOM      7  N   UNL     1       6.240   4.132  18.419  0.00  0.00    +0.000 N 
ATOM      8  H   UNL     1       6.032   3.611  17.564  0.00  0.00    +0.000 HD
BRANCH   7   9
ATOM      9  C   UNL     1       5.212   4.018  19.450  0.00  0.00    +0.000 C 
BRANCH   9  10
ATOM     10  C   UNL     1       3.988   3.265  18.929  0.00  0.00    +0.000 C 
ATOM     11  O   UNL     1       3.923   2.051  18.768  0.00  0.00    +0.000 OA
BRANCH  10  12
ATOM     12  O   UNL     1       3.052   4.162  18.497  0.00  0.00    +0.000 OA
BRANCH  12  13
ATOM     13  C   UNL     1       2.920   5.319  19.325  0.00  0.00    +0.000 C 
BRANCH  13  14
ATOM     14  C   UNL     1       2.193   5.042  20.636  0.00  0.00    +0.000 C 
BRANCH  14  16
ATOM     15  C   UNL     1       1.166   2.778  21.180  0.00  0.00    +0.000 C 
ATOM     16  C   UNL     1       1.049   4.058  20.374  0.00  0.00    +0.000 C 
ENDBRANCH  14  16
ENDBRANCH  13  14
ENDBRANCH  12  13
ENDBRANCH  10  12
ENDBRANCH   9  10
ENDBRANCH   7   9
ENDBRANCH   1   7
BRANCH   6  17
ATOM     17  O   UNL     1       8.314   5.272  19.923  0.00  0.00    +0.000 OA
ATOM     18  H   UNL     1       8.604   6.002  20.497  0.00  0.00    +0.000 HD
ENDBRANCH   6  17
BRANCH   4  19
ATOM     19  S   UNL     1       8.320   9.576  17.559  0.00  0.00    +0.000 S 
BRANCH  19  20
ATOM     20  C   UNL     1       9.114   9.850  19.170  0.00  0.00    +0.000 C 
BRANCH  20  21
ATOM     21  C   UNL     1      10.079  11.011  19.175  0.00  0.00    +0.000 C 
ATOM     22  O   UNL     1      10.572  11.544  20.160  0.00  0.00    +0.000 OA
BRANCH  21  23
ATOM     23  O   UNL     1      10.285  11.415  17.886  0.00  0.00    +0.000 OA
BRANCH  23  24
ATOM     24  C   UNL     1      10.329  12.835  17.686  0.00  0.00    +0.000 C 
ATOM     25  C   UNL     1      11.695  13.178  17.122  0.00  0.00    +0.000 C 
ENDBRANCH  23  24
ENDBRANCH  21  23
ENDBRANCH  20  21
ENDBRANCH  19  20
ENDBRANCH   4  19
TORSDOF 13
ENDMDL
MODEL 6
REMARK VINA RESULT:      -5.7      2.355      6.231
REMARK  Name = 
REMARK  15 active torsions:
REMARK  status: ('A' for Active; 'I' for Inactive)
REMARK    1  A    between atoms: C_1  and  C_2
REMARK    2  A    between atoms: C_2  and  C_3
REMARK    3  A    between atoms: C_3  and  C_4
REMARK    4  A    between atoms: C_4  and  O_5
REMARK    5  A    between atoms: O_5  and  C_6
REMARK    6  A    between atoms: C_6  and  C_8
REMARK    7  A    between atoms: C_8  and  N_9
REMARK    8  A    between atoms: N_9  and  C_10
REMARK    9  A    between atoms: C_13  and  S_14
REMARK   10  A    between atoms: S_14  and  C_15
REMARK   11  A    between atoms: C_15  and  C_16
REMARK   12  A    between atoms: C_16  and  O_18
REMARK   13  A    between atoms: O_18  and  C_19
REMARK   14  A    between atoms: C_19  and  C_20
REMARK   15  A    between atoms: C_22  and  O_23
REMARK                            x       y       z     vdW  Elec       q    Type
REMARK                         _______ _______ _______ _____ _____    ______ ____
ROOT
ATOM      1  C   UNL     1       3.298   2.560  18.789  0.00  0.00    +0.000 A 
ATOM      2  N   UNL     1       4.120   2.453  19.855  0.00  0.00    +0.000 NA
ATOM      3  N   UNL     1       5.231   3.269  19.943  0.00  0.00    +0.000 NA
ATOM      4  C   UNL     1       5.509   4.137  18.944  0.00  0.00    +0.000 A 
ATOM      5  N   UNL     1       4.733   4.311  17.865  0.00  0.00    +0.000 NA
ATOM      6  C   UNL     1       3.659   3.509  17.831  0.00  0.00    +0.000 A 
ENDROOT
BRANCH   1   7
ATOM      7  N   UNL     1       2.192   1.732  18.595  0.00  0.00    +0.000 N 
ATOM      8  H   UNL     1       2.189   1.337  17.651  0.00  0.00    +0.000 HD
BRANCH   7   9
ATOM      9  C   UNL     1       0.888   2.213  19.044  0.00  0.00    +0.000 C 
BRANCH   9  10
ATOM     10  C   UNL     1       1.018   3.058  20.310  0.00  0.00    +0.000 C 
ATOM     11  O   UNL     1       1.015   2.618  21.455  0.00  0.00    +0.000 OA
BRANCH  10  12
ATOM     12  O   UNL     1       0.951   4.383  19.982  0.00  0.00    +0.000 OA
BRANCH  12  13
ATOM     13  C   UNL     1       1.867   5.213  20.698  0.00  0.00    +0.000 C 
BRANCH  13  14
ATOM     14  C   UNL     1       1.984   6.619  20.121  0.00  0.00    +0.000 C 
BRANCH  14  16
ATOM     15  C   UNL     1       3.039   7.521  17.989  0.00  0.00    +0.000 C 
ATOM     16  C   UNL     1       2.068   6.527  18.595  0.00  0.00    +0.000 C 
ENDBRANCH  14  16
ENDBRANCH  13  14
ENDBRANCH  12  13
ENDBRANCH  10  12
ENDBRANCH   9  10
ENDBRANCH   7   9
ENDBRANCH   1   7
BRANCH   6  17
ATOM     17  O   UNL     1       2.903   3.679  16.706  0.00  0.00    +0.000 OA
ATOM     18  H   UNL     1       2.042   3.349  17.020  0.00  0.00    +0.000 HD
ENDBRANCH   6  17
BRANCH   4  19
ATOM     19  S   UNL     1       6.958   5.166  19.043  0.00  0.00    +0.000 S 
BRANCH  19  20
ATOM     20  C   UNL     1       7.524   5.110  17.318  0.00  0.00    +0.000 C 
BRANCH  20  21
ATOM     21  C   UNL     1       7.210   6.366  16.541  0.00  0.00    +0.000 C 
ATOM     22  O   UNL     1       7.498   7.511  16.859  0.00  0.00    +0.000 OA
BRANCH  21  23
ATOM     23  O   UNL     1       6.498   6.024  15.425  0.00  0.00    +0.000 OA
BRANCH  23  24
ATOM     24  C   UNL     1       6.893   4.797  14.795  0.00  0.00    +0.000 C 
ATOM     25  C   UNL     1       5.643   4.139  14.244  0.00  0.00    +0.000 C 
ENDBRANCH  23  24
ENDBRANCH  21  23
ENDBRANCH  20  21
ENDBRANCH  19  20
ENDBRANCH   4  19
TORSDOF 13
ENDMDL
MODEL 7
REMARK VINA RESULT:      -5.7      3.401      4.874
REMARK  Name = 
REMARK  15 active torsions:
REMARK  status: ('A' for Active; 'I' for Inactive)
REMARK    1  A    between atoms: C_1  and  C_2
REMARK    2  A    between atoms: C_2  and  C_3
REMARK    3  A    between atoms: C_3  and  C_4
REMARK    4  A    between atoms: C_4  and  O_5
REMARK    5  A    between atoms: O_5  and  C_6
REMARK    6  A    between atoms: C_6  and  C_8
REMARK    7  A    between atoms: C_8  and  N_9
REMARK    8  A    between atoms: N_9  and  C_10
REMARK    9  A    between atoms: C_13  and  S_14
REMARK   10  A    between atoms: S_14  and  C_15
REMARK   11  A    between atoms: C_15  and  C_16
REMARK   12  A    between atoms: C_16  and  O_18
REMARK   13  A    between atoms: O_18  and  C_19
REMARK   14  A    between atoms: C_19  and  C_20
REMARK   15  A    between atoms: C_22  and  O_23
REMARK                            x       y       z     vdW  Elec       q    Type
REMARK                         _______ _______ _______ _____ _____    ______ ____
ROOT
ATOM      1  C   UNL     1       7.754   7.292  18.173  0.00  0.00    +0.000 A 
ATOM      2  N   UNL     1       7.088   7.583  17.035  0.00  0.00    +0.000 NA
ATOM      3  N   UNL     1       6.263   6.632  16.467  0.00  0.00    +0.000 NA
ATOM      4  C   UNL     1       6.162   5.406  17.029  0.00  0.00    +0.000 A 
ATOM      5  N   UNL     1       6.777   5.050  18.165  0.00  0.00    +0.000 NA
ATOM      6  C   UNL     1       7.553   6.010  18.688  0.00  0.00    +0.000 A 
ENDROOT
BRANCH   1   7
ATOM      7  N   UNL     1       8.654   8.172  18.775  0.00  0.00    +0.000 N 
ATOM      8  H   UNL     1       8.672   8.044  19.789  0.00  0.00    +0.000 HD
BRANCH   7   9
ATOM      9  C   UNL     1       8.630   9.570  18.352  0.00  0.00    +0.000 C 
BRANCH   9  10
ATOM     10  C   UNL     1       9.426  10.451  19.314  0.00  0.00    +0.000 C 
ATOM     11  O   UNL     1       9.224  10.541  20.520  0.00  0.00    +0.000 OA
BRANCH  10  12
ATOM     12  O   UNL     1      10.269  11.258  18.601  0.00  0.00    +0.000 OA
BRANCH  12  13
ATOM     13  C   UNL     1      11.515  11.523  19.248  0.00  0.00    +0.000 C 
BRANCH  13  14
ATOM     14  C   UNL     1      11.608  12.933  19.821  0.00  0.00    +0.000 C 
BRANCH  14  16
ATOM     15  C   UNL     1      10.480  14.747  18.440  0.00  0.00    +0.000 C 
ATOM     16  C   UNL     1      11.738  13.932  18.668  0.00  0.00    +0.000 C 
ENDBRANCH  14  16
ENDBRANCH  13  14
ENDBRANCH  12  13
ENDBRANCH  10  12
ENDBRANCH   9  10
ENDBRANCH   7   9
ENDBRANCH   1   7
BRANCH   6  17
ATOM     17  O   UNL     1       8.199   5.612  19.825  0.00  0.00    +0.000 OA
ATOM     18  H   UNL     1       7.457   5.602  20.455  0.00  0.00    +0.000 HD
ENDBRANCH   6  17
BRANCH   4  19
ATOM     19  S   UNL     1       5.122   4.172  16.279  0.00  0.00    +0.000 S 
BRANCH  19  20
ATOM     20  C   UNL     1       4.500   3.319  17.757  0.00  0.00    +0.000 C 
BRANCH  20  21
ATOM     21  C   UNL     1       2.998   3.383  17.901  0.00  0.00    +0.000 C 
ATOM     22  O   UNL     1       2.177   3.332  16.996  0.00  0.00    +0.000 OA
BRANCH  21  23
ATOM     23  O   UNL     1       2.692   3.558  19.221  0.00  0.00    +0.000 OA
BRANCH  23  24
ATOM     24  C   UNL     1       1.316   3.347  19.567  0.00  0.00    +0.000 C 
ATOM     25  C   UNL     1       1.243   3.157  21.070  0.00  0.00    +0.000 C 
ENDBRANCH  23  24
ENDBRANCH  21  23
ENDBRANCH  20  21
ENDBRANCH  19  20
ENDBRANCH   4  19
TORSDOF 13
ENDMDL
MODEL 8
REMARK VINA RESULT:      -5.7      3.533      8.130
REMARK  Name = 
REMARK  15 active torsions:
REMARK  status: ('A' for Active; 'I' for Inactive)
REMARK    1  A    between atoms: C_1  and  C_2
REMARK    2  A    between atoms: C_2  and  C_3
REMARK    3  A    between atoms: C_3  and  C_4
REMARK    4  A    between atoms: C_4  and  O_5
REMARK    5  A    between atoms: O_5  and  C_6
REMARK    6  A    between atoms: C_6  and  C_8
REMARK    7  A    between atoms: C_8  and  N_9
REMARK    8  A    between atoms: N_9  and  C_10
REMARK    9  A    between atoms: C_13  and  S_14
REMARK   10  A    between atoms: S_14  and  C_15
REMARK   11  A    between atoms: C_15  and  C_16
REMARK   12  A    between atoms: C_16  and  O_18
REMARK   13  A    between atoms: O_18  and  C_19
REMARK   14  A    between atoms: C_19  and  C_20
REMARK   15  A    between atoms: C_22  and  O_23
REMARK                            x       y       z     vdW  Elec       q    Type
REMARK                         _______ _______ _______ _____ _____    ______ ____
ROOT
ATOM      1  C   UNL     1       7.118   5.608  17.901  0.00  0.00    +0.000 A 
ATOM      2  N   UNL     1       6.751   6.399  16.870  0.00  0.00    +0.000 NA
ATOM      3  N   UNL     1       7.188   7.708  16.826  0.00  0.00    +0.000 NA
ATOM      4  C   UNL     1       7.943   8.199  17.835  0.00  0.00    +0.000 A 
ATOM      5  N   UNL     1       8.361   7.472  18.881  0.00  0.00    +0.000 NA
ATOM      6  C   UNL     1       7.925   6.204  18.872  0.00  0.00    +0.000 A 
ENDROOT
BRANCH   1   7
ATOM      7  N   UNL     1       6.668   4.295  18.052  0.00  0.00    +0.000 N 
ATOM      8  H   UNL     1       7.397   3.625  17.796  0.00  0.00    +0.000 HD
BRANCH   7   9
ATOM      9  C   UNL     1       5.344   3.962  17.534  0.00  0.00    +0.000 C 
BRANCH   9  10
ATOM     10  C   UNL     1       4.245   4.638  18.353  0.00  0.00    +0.000 C 
ATOM     11  O   UNL     1       4.280   4.822  19.565  0.00  0.00    +0.000 OA
BRANCH  10  12
ATOM     12  O   UNL     1       3.146   4.836  17.564  0.00  0.00    +0.000 OA
BRANCH  12  13
ATOM     13  C   UNL     1       1.900   4.646  18.236  0.00  0.00    +0.000 C 
BRANCH  13  14
ATOM     14  C   UNL     1       1.558   3.178  18.467  0.00  0.00    +0.000 C 
BRANCH  14  16
ATOM     15  C   UNL     1       1.587   2.926  20.998  0.00  0.00    +0.000 C 
ATOM     16  C   UNL     1       0.733   3.054  19.751  0.00  0.00    +0.000 C 
ENDBRANCH  14  16
ENDBRANCH  13  14
ENDBRANCH  12  13
ENDBRANCH  10  12
ENDBRANCH   9  10
ENDBRANCH   7   9
ENDBRANCH   1   7
BRANCH   6  17
ATOM     17  O   UNL     1       8.333   5.493  19.965  0.00  0.00    +0.000 OA
ATOM     18  H   UNL     1       7.486   5.385  20.432  0.00  0.00    +0.000 HD
ENDBRANCH   6  17
BRANCH   4  19
ATOM     19  S   UNL     1       8.481   9.895  17.794  0.00  0.00    +0.000 S 
BRANCH  19  20
ATOM     20  C   UNL     1       9.298  10.024  19.411  0.00  0.00    +0.000 C 
BRANCH  20  21
ATOM     21  C   UNL     1      10.305  11.146  19.488  0.00  0.00    +0.000 C 
ATOM     22  O   UNL     1      11.033  11.535  18.585  0.00  0.00    +0.000 OA
BRANCH  21  23
ATOM     23  O   UNL     1      10.316  11.638  20.763  0.00  0.00    +0.000 OA
BRANCH  23  24
ATOM     24  C   UNL     1       9.033  11.722  21.400  0.00  0.00    +0.000 C 
ATOM     25  C   UNL     1       8.736  13.189  21.644  0.00  0.00    +0.000 C 
ENDBRANCH  23  24
ENDBRANCH  21  23
ENDBRANCH  20  21
ENDBRANCH  19  20
ENDBRANCH   4  19
TORSDOF 13
ENDMDL
MODEL 9
REMARK VINA RESULT:      -5.7      2.796      4.756
REMARK  Name = 
REMARK  15 active torsions:
REMARK  status: ('A' for Active; 'I' for Inactive)
REMARK    1  A    between atoms: C_1  and  C_2
REMARK    2  A    between atoms: C_2  and  C_3
REMARK    3  A    between atoms: C_3  and  C_4
REMARK    4  A    between atoms: C_4  and  O_5
REMARK    5  A    between atoms: O_5  and  C_6
REMARK    6  A    between atoms: C_6  and  C_8
REMARK    7  A    between atoms: C_8  and  N_9
REMARK    8  A    between atoms: N_9  and  C_10
REMARK    9  A    between atoms: C_13  and  S_14
REMARK   10  A    between atoms: S_14  and  C_15
REMARK   11  A    between atoms: C_15  and  C_16
REMARK   12  A    between atoms: C_16  and  O_18
REMARK   13  A    between atoms: O_18  and  C_19
REMARK   14  A    between atoms: C_19  and  C_20
REMARK   15  A    between atoms: C_22  and  O_23
REMARK                            x       y       z     vdW  Elec       q    Type
REMARK                         _______ _______ _______ _____ _____    ______ ____
ROOT
ATOM      1  C   UNL     1       4.933   4.485  17.059  0.00  0.00    +0.000 A 
ATOM      2  N   UNL     1       3.733   4.230  16.493  0.00  0.00    +0.000 NA
ATOM      3  N   UNL     1       2.813   3.452  17.169  0.00  0.00    +0.000 NA
ATOM      4  C   UNL     1       3.134   2.919  18.369  0.00  0.00    +0.000 A 
ATOM      5  N   UNL     1       4.295   3.140  19.000  0.00  0.00    +0.000 NA
ATOM      6  C   UNL     1       5.150   3.913  18.314  0.00  0.00    +0.000 A 
ENDROOT
BRANCH   1   7
ATOM      7  N   UNL     1       5.939   5.207  16.418  0.00  0.00    +0.000 N 
ATOM      8  H   UNL     1       5.547   5.971  15.863  0.00  0.00    +0.000 HD
BRANCH   7   9
ATOM      9  C   UNL     1       6.993   4.458  15.739  0.00  0.00    +0.000 C 
BRANCH   9  10
ATOM     10  C   UNL     1       6.953   4.693  14.229  0.00  0.00    +0.000 C 
ATOM     11  O   UNL     1       7.484   5.633  13.647  0.00  0.00    +0.000 OA
BRANCH  10  12
ATOM     12  O   UNL     1       6.086   3.807  13.653  0.00  0.00    +0.000 OA
BRANCH  12  13
ATOM     13  C   UNL     1       6.483   3.355  12.358  0.00  0.00    +0.000 C 
BRANCH  13  14
ATOM     14  C   UNL     1       5.371   2.634  11.604  0.00  0.00    +0.000 C 
BRANCH  14  16
ATOM     15  C   UNL     1       3.171   3.098  10.411  0.00  0.00    +0.000 C 
ATOM     16  C   UNL     1       4.189   3.591  11.421  0.00  0.00    +0.000 C 
ENDBRANCH  14  16
ENDBRANCH  13  14
ENDBRANCH  12  13
ENDBRANCH  10  12
ENDBRANCH   9  10
ENDBRANCH   7   9
ENDBRANCH   1   7
BRANCH   6  17
ATOM     17  O   UNL     1       6.340   4.095  18.961  0.00  0.00    +0.000 OA
ATOM     18  H   UNL     1       6.091   3.837  19.866  0.00  0.00    +0.000 HD
ENDBRANCH   6  17
BRANCH   4  19
ATOM     19  S   UNL     1       1.959   1.892  19.224  0.00  0.00    +0.000 S 
BRANCH  19  20
ATOM     20  C   UNL     1       0.863   3.157  19.930  0.00  0.00    +0.000 C 
BRANCH  20  21
ATOM     21  C   UNL     1       1.601   4.249  20.666  0.00  0.00    +0.000 C 
ATOM     22  O   UNL     1       2.172   4.144  21.743  0.00  0.00    +0.000 OA
BRANCH  21  23
ATOM     23  O   UNL     1       1.490   5.410  19.954  0.00  0.00    +0.000 OA
BRANCH  23  24
ATOM     24  C   UNL     1       1.670   6.616  20.711  0.00  0.00    +0.000 C 
ATOM     25  C   UNL     1       2.071   7.712  19.742  0.00  0.00    +0.000 C 
ENDBRANCH  23  24
ENDBRANCH  21  23
ENDBRANCH  20  21
ENDBRANCH  19  20
ENDBRANCH   4  19
TORSDOF 13
ENDMDL
