MODEL 1
REMARK VINA RESULT:      -8.2      0.000      0.000
REMARK  Name = 
REMARK  11 active torsions:
REMARK  status: ('A' for Active; 'I' for Inactive)
REMARK    1  A    between atoms: C_1  and  C_2
REMARK    2  A    between atoms: C_2  and  N_3
REMARK    3  A    between atoms: C_5  and  C_6
REMARK    4  A    between atoms: C_6  and  N_7
REMARK    5  A    between atoms: N_7  and  C_8
REMARK    6  A    between atoms: N_7  and  C_23
REMARK    7  A    between atoms: C_8  and  C_9
REMARK    8  A    between atoms: C_12  and  C_13
REMARK    9  A    between atoms: C_13  and  C_14
REMARK   10  A    between atoms: N_17  and  C_18
REMARK   11  A    between atoms: C_26  and  C_27
REMARK                            x       y       z     vdW  Elec       q    Type
REMARK                         _______ _______ _______ _____ _____    ______ ____
ROOT
ATOM      1  C   UNL     1       3.915   6.350  18.493  0.00  0.00    +0.000 C 
ENDROOT
BRANCH   1   2
ATOM      2  C   UNL     1       2.877   7.447  18.645  0.00  0.00    +0.000 A 
ATOM      3  C   UNL     1       2.151   7.590  19.836  0.00  0.00    +0.000 A 
ATOM      4  C   UNL     1       1.268   8.661  20.017  0.00  0.00    +0.000 A 
ATOM      5  C   UNL     1       1.093   9.621  19.013  0.00  0.00    +0.000 A 
ATOM      6  C   UNL     1       1.806   9.477  17.818  0.00  0.00    +0.000 A 
ATOM      7  C   UNL     1       2.684   8.401  17.636  0.00  0.00    +0.000 A 
BRANCH   5   8
ATOM      8  C   UNL     1       0.123  10.765  19.199  0.00  0.00    +0.000 C 
BRANCH   8   9
ATOM      9  C   UNL     1      -1.371  10.465  18.935  0.00  0.00    +0.000 C 
ATOM     10  C   UNL     1      -1.639  10.088  17.468  0.00  0.00    +0.000 C 
ATOM     11  C   UNL     1      -3.118  10.169  17.073  0.00  0.00    +0.000 C 
ATOM     12  N   UNL     1      -3.661  11.490  17.396  0.00  0.00    +0.000 NA
ATOM     13  C   UNL     1      -5.018  11.648  16.876  0.00  0.00    +0.000 C 
ATOM     14  C   UNL     1      -3.633  11.698  18.848  0.00  0.00    +0.000 C 
ATOM     15  C   UNL     1      -2.190  11.709  19.345  0.00  0.00    +0.000 C 
ENDBRANCH   8   9
ENDBRANCH   5   8
ENDBRANCH   1   2
BRANCH   1  16
ATOM     16  N   UNL     1       3.492   4.942  18.656  0.00  0.00    +0.000 NA
BRANCH  16  17
ATOM     17  C   UNL     1       2.188   4.664  18.022  0.00  0.00    +0.000 C 
ATOM     18  C   UNL     1       1.874   3.326  17.410  0.00  0.00    +0.000 C 
ATOM     19  C   UNL     1       1.252   3.709  18.717  0.00  0.00    +0.000 C 
ENDBRANCH  16  17
BRANCH  16  20
ATOM     20  C   UNL     1       4.505   3.932  18.313  0.00  0.00    +0.000 C 
BRANCH  20  23
ATOM     21  N   UNL     1       6.448   4.637  15.286  0.00  0.00    +0.000 N 
ATOM     22  C   UNL     1       5.247   4.303  15.840  0.00  0.00    +0.000 A 
ATOM     23  C   UNL     1       5.426   4.362  17.209  0.00  0.00    +0.000 A 
ATOM     24  C   UNL     1       6.720   4.941  17.357  0.00  0.00    +0.000 A 
ATOM     25  C   UNL     1       7.420   5.328  18.609  0.00  0.00    +0.000 C 
ATOM     26  N   UNL     1       7.341   5.093  16.181  0.00  0.00    +0.000 NA
BRANCH  21  28
ATOM     27  C   UNL     1       5.823   3.560  13.170  0.00  0.00    +0.000 C 
ATOM     28  C   UNL     1       6.851   4.404  13.911  0.00  0.00    +0.000 C 
ENDBRANCH  21  28
ENDBRANCH  20  23
ENDBRANCH  16  20
ENDBRANCH   1  16
TORSDOF 8
ENDMDL
MODEL 2
REMARK VINA RESULT:      -8.0      1.021      2.284
REMARK  Name = 
REMARK  11 active torsions:
REMARK  status: ('A' for Active; 'I' for Inactive)
REMARK    1  A    between atoms: C_1  and  C_2
REMARK    2  A    between atoms: C_2  and  N_3
REMARK    3  A    between atoms: C_5  and  C_6
REMARK    4  A    between atoms: C_6  and  N_7
REMARK    5  A    between atoms: N_7  and  C_8
REMARK    6  A    between atoms: N_7  and  C_23
REMARK    7  A    between atoms: C_8  and  C_9
REMARK    8  A    between atoms: C_12  and  C_13
REMARK    9  A    between atoms: C_13  and  C_14
REMARK   10  A    between atoms: N_17  and  C_18
REMARK   11  A    between atoms: C_26  and  C_27
REMARK                            x       y       z     vdW  Elec       q    Type
REMARK                         _______ _______ _______ _____ _____    ______ ____
ROOT
ATOM      1  C   UNL     1       3.616   5.610  19.634  0.00  0.00    +0.000 C 
ENDROOT
BRANCH   1   2
ATOM      2  C   UNL     1       2.858   6.888  19.331  0.00  0.00    +0.000 A 
ATOM      3  C   UNL     1       2.909   7.470  18.056  0.00  0.00    +0.000 A 
ATOM      4  C   UNL     1       2.130   8.591  17.744  0.00  0.00    +0.000 A 
ATOM      5  C   UNL     1       1.274   9.155  18.697  0.00  0.00    +0.000 A 
ATOM      6  C   UNL     1       1.228   8.586  19.974  0.00  0.00    +0.000 A 
ATOM      7  C   UNL     1       2.013   7.469  20.288  0.00  0.00    +0.000 A 
BRANCH   5   8
ATOM      8  C   UNL     1       0.451  10.379  18.368  0.00  0.00    +0.000 C 
BRANCH   8   9
ATOM      9  C   UNL     1      -1.086  10.232  18.452  0.00  0.00    +0.000 C 
ATOM     10  C   UNL     1      -1.706   9.825  17.103  0.00  0.00    +0.000 C 
ATOM     11  C   UNL     1      -3.221  10.050  17.031  0.00  0.00    +0.000 C 
ATOM     12  N   UNL     1      -3.549  11.434  17.377  0.00  0.00    +0.000 NA
ATOM     13  C   UNL     1      -4.965  11.718  17.151  0.00  0.00    +0.000 C 
ATOM     14  C   UNL     1      -3.181  11.699  18.772  0.00  0.00    +0.000 C 
ATOM     15  C   UNL     1      -1.670  11.575  18.946  0.00  0.00    +0.000 C 
ENDBRANCH   8   9
ENDBRANCH   5   8
ENDBRANCH   1   2
BRANCH   1  16
ATOM     16  N   UNL     1       3.156   4.346  19.019  0.00  0.00    +0.000 NA
BRANCH  16  17
ATOM     17  C   UNL     1       1.688   4.282  18.884  0.00  0.00    +0.000 C 
ATOM     18  C   UNL     1       0.977   2.994  18.563  0.00  0.00    +0.000 C 
ATOM     19  C   UNL     1       0.908   3.555  19.950  0.00  0.00    +0.000 C 
ENDBRANCH  16  17
BRANCH  16  20
ATOM     20  C   UNL     1       3.848   3.954  17.781  0.00  0.00    +0.000 C 
BRANCH  20  23
ATOM     21  N   UNL     1       7.025   5.779  17.880  0.00  0.00    +0.000 N 
ATOM     22  C   UNL     1       6.063   5.090  18.558  0.00  0.00    +0.000 A 
ATOM     23  C   UNL     1       5.179   4.623  17.605  0.00  0.00    +0.000 A 
ATOM     24  C   UNL     1       5.825   4.922  16.369  0.00  0.00    +0.000 A 
ATOM     25  C   UNL     1       5.387   4.577  14.993  0.00  0.00    +0.000 C 
ATOM     26  N   UNL     1       6.942   5.638  16.546  0.00  0.00    +0.000 NA
BRANCH  21  28
ATOM     27  C   UNL     1       7.884   8.076  17.779  0.00  0.00    +0.000 C 
ATOM     28  C   UNL     1       7.974   6.715  18.454  0.00  0.00    +0.000 C 
ENDBRANCH  21  28
ENDBRANCH  20  23
ENDBRANCH  16  20
ENDBRANCH   1  16
TORSDOF 8
ENDMDL
MODEL 3
REMARK VINA RESULT:      -7.9      0.921      1.370
REMARK  Name = 
REMARK  11 active torsions:
REMARK  status: ('A' for Active; 'I' for Inactive)
REMARK    1  A    between atoms: C_1  and  C_2
REMARK    2  A    between atoms: C_2  and  N_3
REMARK    3  A    between atoms: C_5  and  C_6
REMARK    4  A    between atoms: C_6  and  N_7
REMARK    5  A    between atoms: N_7  and  C_8
REMARK    6  A    between atoms: N_7  and  C_23
REMARK    7  A    between atoms: C_8  and  C_9
REMARK    8  A    between atoms: C_12  and  C_13
REMARK    9  A    between atoms: C_13  and  C_14
REMARK   10  A    between atoms: N_17  and  C_18
REMARK   11  A    between atoms: C_26  and  C_27
REMARK                            x       y       z     vdW  Elec       q    Type
REMARK                         _______ _______ _______ _____ _____    ______ ____
ROOT
ATOM      1  C   UNL     1       3.402   5.829  18.162  0.00  0.00    +0.000 C 
ENDROOT
BRANCH   1   2
ATOM      2  C   UNL     1       2.677   7.113  18.519  0.00  0.00    +0.000 A 
ATOM      3  C   UNL     1       2.424   8.091  17.547  0.00  0.00    +0.000 A 
ATOM      4  C   UNL     1       1.667   9.229  17.849  0.00  0.00    +0.000 A 
ATOM      5  C   UNL     1       1.136   9.415  19.131  0.00  0.00    +0.000 A 
ATOM      6  C   UNL     1       1.395   8.449  20.109  0.00  0.00    +0.000 A 
ATOM      7  C   UNL     1       2.159   7.315  19.807  0.00  0.00    +0.000 A 
BRANCH   5   8
ATOM      8  C   UNL     1       0.338  10.655  19.464  0.00  0.00    +0.000 C 
BRANCH   8   9
ATOM      9  C   UNL     1      -1.200  10.545  19.362  0.00  0.00    +0.000 C 
ATOM     10  C   UNL     1      -1.652   9.910  18.035  0.00  0.00    +0.000 C 
ATOM     11  C   UNL     1      -3.135  10.138  17.718  0.00  0.00    +0.000 C 
ATOM     12  N   UNL     1      -3.454  11.566  17.765  0.00  0.00    +0.000 NA
ATOM     13  C   UNL     1      -4.816  11.823  17.302  0.00  0.00    +0.000 C 
ATOM     14  C   UNL     1      -3.263  12.073  19.129  0.00  0.00    +0.000 C 
ATOM     15  C   UNL     1      -1.794  11.962  19.527  0.00  0.00    +0.000 C 
ENDBRANCH   8   9
ENDBRANCH   5   8
ENDBRANCH   1   2
BRANCH   1  16
ATOM     16  N   UNL     1       3.815   4.918  19.253  0.00  0.00    +0.000 NA
BRANCH  16  17
ATOM     17  C   UNL     1       2.895   3.775  19.415  0.00  0.00    +0.000 C 
ATOM     18  C   UNL     1       2.762   3.046  20.726  0.00  0.00    +0.000 C 
ATOM     19  C   UNL     1       1.671   3.967  20.273  0.00  0.00    +0.000 C 
ENDBRANCH  16  17
BRANCH  16  20
ATOM     20  C   UNL     1       5.225   4.501  19.231  0.00  0.00    +0.000 C 
BRANCH  20  23
ATOM     21  N   UNL     1       6.677   4.934  15.893  0.00  0.00    +0.000 N 
ATOM     22  C   UNL     1       5.618   4.530  16.652  0.00  0.00    +0.000 A 
ATOM     23  C   UNL     1       5.933   4.858  17.957  0.00  0.00    +0.000 A 
ATOM     24  C   UNL     1       7.119   5.639  17.832  0.00  0.00    +0.000 A 
ATOM     25  C   UNL     1       7.876   6.344  18.899  0.00  0.00    +0.000 C 
ATOM     26  N   UNL     1       7.572   5.669  16.573  0.00  0.00    +0.000 NA
BRANCH  21  28
ATOM     27  C   UNL     1       5.740   3.881  13.883  0.00  0.00    +0.000 C 
ATOM     28  C   UNL     1       6.959   4.521  14.531  0.00  0.00    +0.000 C 
ENDBRANCH  21  28
ENDBRANCH  20  23
ENDBRANCH  16  20
ENDBRANCH   1  16
TORSDOF 8
ENDMDL
MODEL 4
REMARK VINA RESULT:      -7.8      1.947      2.439
REMARK  Name = 
REMARK  11 active torsions:
REMARK  status: ('A' for Active; 'I' for Inactive)
REMARK    1  A    between atoms: C_1  and  C_2
REMARK    2  A    between atoms: C_2  and  N_3
REMARK    3  A    between atoms: C_5  and  C_6
REMARK    4  A    between atoms: C_6  and  N_7
REMARK    5  A    between atoms: N_7  and  C_8
REMARK    6  A    between atoms: N_7  and  C_23
REMARK    7  A    between atoms: C_8  and  C_9
REMARK    8  A    between atoms: C_12  and  C_13
REMARK    9  A    between atoms: C_13  and  C_14
REMARK   10  A    between atoms: N_17  and  C_18
REMARK   11  A    between atoms: C_26  and  C_27
REMARK                            x       y       z     vdW  Elec       q    Type
REMARK                         _______ _______ _______ _____ _____    ______ ____
ROOT
ATOM      1  C   UNL     1       3.487   5.949  17.648  0.00  0.00    +0.000 C 
ENDROOT
BRANCH   1   2
ATOM      2  C   UNL     1       2.653   6.934  18.446  0.00  0.00    +0.000 A 
ATOM      3  C   UNL     1       2.332   6.684  19.787  0.00  0.00    +0.000 A 
ATOM      4  C   UNL     1       1.651   7.637  20.555  0.00  0.00    +0.000 A 
ATOM      5  C   UNL     1       1.280   8.868  20.002  0.00  0.00    +0.000 A 
ATOM      6  C   UNL     1       1.587   9.118  18.660  0.00  0.00    +0.000 A 
ATOM      7  C   UNL     1       2.261   8.162  17.892  0.00  0.00    +0.000 A 
BRANCH   5   8
ATOM      8  C   UNL     1       0.524   9.887  20.824  0.00  0.00    +0.000 C 
BRANCH   8   9
ATOM      9  C   UNL     1       0.207  11.239  20.143  0.00  0.00    +0.000 C 
ATOM     10  C   UNL     1       1.103  12.377  20.664  0.00  0.00    +0.000 C 
ATOM     11  C   UNL     1       0.576  13.777  20.325  0.00  0.00    +0.000 C 
ATOM     12  N   UNL     1      -0.806  13.928  20.784  0.00  0.00    +0.000 NA
ATOM     13  C   UNL     1      -1.272  15.304  20.625  0.00  0.00    +0.000 C 
ATOM     14  C   UNL     1      -1.676  12.996  20.057  0.00  0.00    +0.000 C 
ATOM     15  C   UNL     1      -1.286  11.557  20.380  0.00  0.00    +0.000 C 
ENDBRANCH   8   9
ENDBRANCH   5   8
ENDBRANCH   1   2
BRANCH   1  16
ATOM     16  N   UNL     1       3.869   4.666  18.277  0.00  0.00    +0.000 NA
BRANCH  16  17
ATOM     17  C   UNL     1       2.936   3.571  17.945  0.00  0.00    +0.000 C 
ATOM     18  C   UNL     1       3.168   2.162  18.420  0.00  0.00    +0.000 C 
ATOM     19  C   UNL     1       2.097   2.993  19.056  0.00  0.00    +0.000 C 
ENDBRANCH  16  17
BRANCH  16  20
ATOM     20  C   UNL     1       5.275   4.271  18.108  0.00  0.00    +0.000 C 
BRANCH  20  23
ATOM     21  N   UNL     1       6.500   4.646  14.674  0.00  0.00    +0.000 N 
ATOM     22  C   UNL     1       5.599   4.080  15.527  0.00  0.00    +0.000 A 
ATOM     23  C   UNL     1       5.841   4.638  16.768  0.00  0.00    +0.000 A 
ATOM     24  C   UNL     1       6.778   5.677  16.495  0.00  0.00    +0.000 A 
ATOM     25  C   UNL     1       7.344   6.679  17.434  0.00  0.00    +0.000 C 
ATOM     26  N   UNL     1       7.184   5.666  15.219  0.00  0.00    +0.000 NA
BRANCH  21  28
ATOM     27  C   UNL     1       5.662   3.508  12.667  0.00  0.00    +0.000 C 
ATOM     28  C   UNL     1       6.855   4.155  13.356  0.00  0.00    +0.000 C 
ENDBRANCH  21  28
ENDBRANCH  20  23
ENDBRANCH  16  20
ENDBRANCH   1  16
TORSDOF 8
ENDMDL
MODEL 5
REMARK VINA RESULT:      -7.8      2.245      2.964
REMARK  Name = 
REMARK  11 active torsions:
REMARK  status: ('A' for Active; 'I' for Inactive)
REMARK    1  A    between atoms: C_1  and  C_2
REMARK    2  A    between atoms: C_2  and  N_3
REMARK    3  A    between atoms: C_5  and  C_6
REMARK    4  A    between atoms: C_6  and  N_7
REMARK    5  A    between atoms: N_7  and  C_8
REMARK    6  A    between atoms: N_7  and  C_23
REMARK    7  A    between atoms: C_8  and  C_9
REMARK    8  A    between atoms: C_12  and  C_13
REMARK    9  A    between atoms: C_13  and  C_14
REMARK   10  A    between atoms: N_17  and  C_18
REMARK   11  A    between atoms: C_26  and  C_27
REMARK                            x       y       z     vdW  Elec       q    Type
REMARK                         _______ _______ _______ _____ _____    ______ ____
ROOT
ATOM      1  C   UNL     1       3.641   6.246  17.927  0.00  0.00    +0.000 C 
ENDROOT
BRANCH   1   2
ATOM      2  C   UNL     1       2.660   7.261  18.486  0.00  0.00    +0.000 A 
ATOM      3  C   UNL     1       2.293   7.236  19.839  0.00  0.00    +0.000 A 
ATOM      4  C   UNL     1       1.470   8.231  20.380  0.00  0.00    +0.000 A 
ATOM      5  C   UNL     1       0.999   9.281  19.583  0.00  0.00    +0.000 A 
ATOM      6  C   UNL     1       1.352   9.304  18.229  0.00  0.00    +0.000 A 
ATOM      7  C   UNL     1       2.169   8.304  17.687  0.00  0.00    +0.000 A 
BRANCH   5   8
ATOM      8  C   UNL     1       0.091  10.343  20.160  0.00  0.00    +0.000 C 
BRANCH   8   9
ATOM      9  C   UNL     1       0.772  11.584  20.780  0.00  0.00    +0.000 C 
ATOM     10  C   UNL     1      -0.206  12.426  21.620  0.00  0.00    +0.000 C 
ATOM     11  C   UNL     1       0.303  13.842  21.919  0.00  0.00    +0.000 C 
ATOM     12  N   UNL     1       0.671  14.525  20.677  0.00  0.00    +0.000 NA
ATOM     13  C   UNL     1       0.996  15.929  20.919  0.00  0.00    +0.000 C 
ATOM     14  C   UNL     1       1.797  13.831  20.042  0.00  0.00    +0.000 C 
ATOM     15  C   UNL     1       1.378  12.422  19.632  0.00  0.00    +0.000 C 
ENDBRANCH   8   9
ENDBRANCH   5   8
ENDBRANCH   1   2
BRANCH   1  16
ATOM     16  N   UNL     1       3.503   4.828  18.326  0.00  0.00    +0.000 NA
BRANCH  16  17
ATOM     17  C   UNL     1       2.323   4.180  17.719  0.00  0.00    +0.000 C 
ATOM     18  C   UNL     1       2.127   2.689  17.767  0.00  0.00    +0.000 C 
ATOM     19  C   UNL     1       1.294   3.576  18.640  0.00  0.00    +0.000 C 
ENDBRANCH  16  17
BRANCH  16  20
ATOM     20  C   UNL     1       4.718   4.011  18.193  0.00  0.00    +0.000 C 
BRANCH  20  23
ATOM     21  N   UNL     1       6.635   4.764  15.160  0.00  0.00    +0.000 N 
ATOM     22  C   UNL     1       5.446   4.394  15.717  0.00  0.00    +0.000 A 
ATOM     23  C   UNL     1       5.624   4.465  17.086  0.00  0.00    +0.000 A 
ATOM     24  C   UNL     1       6.900   5.085  17.230  0.00  0.00    +0.000 A 
ATOM     25  C   UNL     1       7.588   5.500  18.479  0.00  0.00    +0.000 C 
ATOM     26  N   UNL     1       7.514   5.252  16.052  0.00  0.00    +0.000 NA
BRANCH  21  28
ATOM     27  C   UNL     1       6.063   3.626  13.062  0.00  0.00    +0.000 C 
ATOM     28  C   UNL     1       7.043   4.538  13.786  0.00  0.00    +0.000 C 
ENDBRANCH  21  28
ENDBRANCH  20  23
ENDBRANCH  16  20
ENDBRANCH   1  16
TORSDOF 8
ENDMDL
MODEL 6
REMARK VINA RESULT:      -7.8      2.180      2.816
REMARK  Name = 
REMARK  11 active torsions:
REMARK  status: ('A' for Active; 'I' for Inactive)
REMARK    1  A    between atoms: C_1  and  C_2
REMARK    2  A    between atoms: C_2  and  N_3
REMARK    3  A    between atoms: C_5  and  C_6
REMARK    4  A    between atoms: C_6  and  N_7
REMARK    5  A    between atoms: N_7  and  C_8
REMARK    6  A    between atoms: N_7  and  C_23
REMARK    7  A    between atoms: C_8  and  C_9
REMARK    8  A    between atoms: C_12  and  C_13
REMARK    9  A    between atoms: C_13  and  C_14
REMARK   10  A    between atoms: N_17  and  C_18
REMARK   11  A    between atoms: C_26  and  C_27
REMARK                            x       y       z     vdW  Elec       q    Type
REMARK                         _______ _______ _______ _____ _____    ______ ____
ROOT
ATOM      1  C   UNL     1       3.544   5.798  17.946  0.00  0.00    +0.000 C 
ENDROOT
BRANCH   1   2
ATOM      2  C   UNL     1       2.725   6.987  18.413  0.00  0.00    +0.000 A 
ATOM      3  C   UNL     1       2.283   7.079  19.739  0.00  0.00    +0.000 A 
ATOM      4  C   UNL     1       1.616   8.222  20.199  0.00  0.00    +0.000 A 
ATOM      5  C   UNL     1       1.381   9.305  19.343  0.00  0.00    +0.000 A 
ATOM      6  C   UNL     1       1.810   9.213  18.015  0.00  0.00    +0.000 A 
ATOM      7  C   UNL     1       2.470   8.067  17.555  0.00  0.00    +0.000 A 
BRANCH   5   8
ATOM      8  C   UNL     1       0.640  10.529  19.832  0.00  0.00    +0.000 C 
BRANCH   8   9
ATOM      9  C   UNL     1       0.769  11.812  18.979  0.00  0.00    +0.000 C 
ATOM     10  C   UNL     1       2.020  12.630  19.343  0.00  0.00    +0.000 C 
ATOM     11  C   UNL     1       1.983  14.072  18.822  0.00  0.00    +0.000 C 
ATOM     12  N   UNL     1       0.757  14.742  19.259  0.00  0.00    +0.000 NA
ATOM     13  C   UNL     1       0.778  16.164  18.920  0.00  0.00    +0.000 C 
ATOM     14  C   UNL     1      -0.410  14.082  18.663  0.00  0.00    +0.000 C 
ATOM     15  C   UNL     1      -0.516  12.648  19.174  0.00  0.00    +0.000 C 
ENDBRANCH   8   9
ENDBRANCH   5   8
ENDBRANCH   1   2
BRANCH   1  16
ATOM     16  N   UNL     1       4.189   4.935  18.960  0.00  0.00    +0.000 NA
BRANCH  16  17
ATOM     17  C   UNL     1       3.482   3.652  19.146  0.00  0.00    +0.000 C 
ATOM     18  C   UNL     1       4.076   2.532  19.957  0.00  0.00    +0.000 C 
ATOM     19  C   UNL     1       2.941   3.334  20.517  0.00  0.00    +0.000 C 
ENDBRANCH  16  17
BRANCH  16  20
ATOM     20  C   UNL     1       5.641   4.755  18.810  0.00  0.00    +0.000 C 
BRANCH  20  23
ATOM     21  N   UNL     1       6.714   4.871  15.307  0.00  0.00    +0.000 N 
ATOM     22  C   UNL     1       5.880   4.338  16.246  0.00  0.00    +0.000 A 
ATOM     23  C   UNL     1       6.134   5.025  17.418  0.00  0.00    +0.000 A 
ATOM     24  C   UNL     1       6.996   6.085  17.010  0.00  0.00    +0.000 A 
ATOM     25  C   UNL     1       7.534   7.202  17.828  0.00  0.00    +0.000 C 
ATOM     26  N   UNL     1       7.354   5.975  15.725  0.00  0.00    +0.000 NA
BRANCH  21  28
ATOM     27  C   UNL     1       5.807   3.770  13.309  0.00  0.00    +0.000 C 
ATOM     28  C   UNL     1       7.050   4.277  14.026  0.00  0.00    +0.000 C 
ENDBRANCH  21  28
ENDBRANCH  20  23
ENDBRANCH  16  20
ENDBRANCH   1  16
TORSDOF 8
ENDMDL
MODEL 7
REMARK VINA RESULT:      -7.7      4.453      8.396
REMARK  Name = 
REMARK  11 active torsions:
REMARK  status: ('A' for Active; 'I' for Inactive)
REMARK    1  A    between atoms: C_1  and  C_2
REMARK    2  A    between atoms: C_2  and  N_3
REMARK    3  A    between atoms: C_5  and  C_6
REMARK    4  A    between atoms: C_6  and  N_7
REMARK    5  A    between atoms: N_7  and  C_8
REMARK    6  A    between atoms: N_7  and  C_23
REMARK    7  A    between atoms: C_8  and  C_9
REMARK    8  A    between atoms: C_12  and  C_13
REMARK    9  A    between atoms: C_13  and  C_14
REMARK   10  A    between atoms: N_17  and  C_18
REMARK   11  A    between atoms: C_26  and  C_27
REMARK                            x       y       z     vdW  Elec       q    Type
REMARK                         _______ _______ _______ _____ _____    ______ ____
ROOT
ATOM      1  C   UNL     1       6.500   5.003  17.070  0.00  0.00    +0.000 C 
ENDROOT
BRANCH   1   2
ATOM      2  C   UNL     1       7.118   6.261  17.652  0.00  0.00    +0.000 A 
ATOM      3  C   UNL     1       7.911   6.205  18.806  0.00  0.00    +0.000 A 
ATOM      4  C   UNL     1       8.565   7.346  19.287  0.00  0.00    +0.000 A 
ATOM      5  C   UNL     1       8.449   8.572  18.620  0.00  0.00    +0.000 A 
ATOM      6  C   UNL     1       7.648   8.636  17.475  0.00  0.00    +0.000 A 
ATOM      7  C   UNL     1       6.988   7.496  16.999  0.00  0.00    +0.000 A 
BRANCH   5   8
ATOM      8  C   UNL     1       9.136   9.809  19.152  0.00  0.00    +0.000 C 
BRANCH   8   9
ATOM      9  C   UNL     1       9.527  10.890  18.119  0.00  0.00    +0.000 C 
ATOM     10  C   UNL     1      11.028  11.224  18.166  0.00  0.00    +0.000 C 
ATOM     11  C   UNL     1      11.387  12.538  17.461  0.00  0.00    +0.000 C 
ATOM     12  N   UNL     1      10.576  13.638  17.987  0.00  0.00    +0.000 NA
ATOM     13  C   UNL     1      11.017  14.926  17.455  0.00  0.00    +0.000 C 
ATOM     14  C   UNL     1       9.161  13.404  17.679  0.00  0.00    +0.000 C 
ATOM     15  C   UNL     1       8.672  12.148  18.394  0.00  0.00    +0.000 C 
ENDBRANCH   8   9
ENDBRANCH   5   8
ENDBRANCH   1   2
BRANCH   1  16
ATOM     16  N   UNL     1       5.277   5.126  16.246  0.00  0.00    +0.000 NA
BRANCH  16  17
ATOM     17  C   UNL     1       5.546   4.964  14.804  0.00  0.00    +0.000 C 
ATOM     18  C   UNL     1       6.948   4.863  14.266  0.00  0.00    +0.000 C 
ATOM     19  C   UNL     1       6.087   3.640  14.328  0.00  0.00    +0.000 C 
ENDBRANCH  16  17
BRANCH  16  20
ATOM     20  C   UNL     1       4.128   4.325  16.693  0.00  0.00    +0.000 C 
BRANCH  20  23
ATOM     21  N   UNL     1       2.815   4.679  20.097  0.00  0.00    +0.000 N 
ATOM     22  C   UNL     1       3.454   3.901  19.177  0.00  0.00    +0.000 A 
ATOM     23  C   UNL     1       3.638   4.696  18.062  0.00  0.00    +0.000 A 
ATOM     24  C   UNL     1       3.250   5.995  18.505  0.00  0.00    +0.000 A 
ATOM     25  C   UNL     1       3.316   7.279  17.763  0.00  0.00    +0.000 C 
ATOM     26  N   UNL     1       2.738   5.973  19.741  0.00  0.00    +0.000 NA
BRANCH  21  28
ATOM     27  C   UNL     1       1.373   2.914  21.008  0.00  0.00    +0.000 C 
ATOM     28  C   UNL     1       2.124   4.209  21.283  0.00  0.00    +0.000 C 
ENDBRANCH  21  28
ENDBRANCH  20  23
ENDBRANCH  16  20
ENDBRANCH   1  16
TORSDOF 8
ENDMDL
MODEL 8
REMARK VINA RESULT:      -7.7      1.964      2.593
REMARK  Name = 
REMARK  11 active torsions:
REMARK  status: ('A' for Active; 'I' for Inactive)
REMARK    1  A    between atoms: C_1  and  C_2
REMARK    2  A    between atoms: C_2  and  N_3
REMARK    3  A    between atoms: C_5  and  C_6
REMARK    4  A    between atoms: C_6  and  N_7
REMARK    5  A    between atoms: N_7  and  C_8
REMARK    6  A    between atoms: N_7  and  C_23
REMARK    7  A    between atoms: C_8  and  C_9
REMARK    8  A    between atoms: C_12  and  C_13
REMARK    9  A    between atoms: C_13  and  C_14
REMARK   10  A    between atoms: N_17  and  C_18
REMARK   11  A    between atoms: C_26  and  C_27
REMARK                            x       y       z     vdW  Elec       q    Type
REMARK                         _______ _______ _______ _____ _____    ______ ____
ROOT
ATOM      1  C   UNL     1       3.184   5.976  17.975  0.00  0.00    +0.000 C 
ENDROOT
BRANCH   1   2
ATOM      2  C   UNL     1       2.413   7.135  18.581  0.00  0.00    +0.000 A 
ATOM      3  C   UNL     1       2.109   7.160  19.949  0.00  0.00    +0.000 A 
ATOM      4  C   UNL     1       1.489   8.273  20.529  0.00  0.00    +0.000 A 
ATOM      5  C   UNL     1       1.162   9.394  19.755  0.00  0.00    +0.000 A 
ATOM      6  C   UNL     1       1.451   9.369  18.387  0.00  0.00    +0.000 A 
ATOM      7  C   UNL     1       2.065   8.252  17.807  0.00  0.00    +0.000 A 
BRANCH   5   8
ATOM      8  C   UNL     1       0.471  10.586  20.376  0.00  0.00    +0.000 C 
BRANCH   8   9
ATOM      9  C   UNL     1       0.803  11.975  19.783  0.00  0.00    +0.000 C 
ATOM     10  C   UNL     1       1.091  13.020  20.875  0.00  0.00    +0.000 C 
ATOM     11  C   UNL     1       1.035  14.467  20.371  0.00  0.00    +0.000 C 
ATOM     12  N   UNL     1      -0.243  14.725  19.704  0.00  0.00    +0.000 NA
ATOM     13  C   UNL     1      -0.390  16.140  19.365  0.00  0.00    +0.000 C 
ATOM     14  C   UNL     1      -0.355  13.888  18.504  0.00  0.00    +0.000 C 
ATOM     15  C   UNL     1      -0.383  12.414  18.896  0.00  0.00    +0.000 C 
ENDBRANCH   8   9
ENDBRANCH   5   8
ENDBRANCH   1   2
BRANCH   1  16
ATOM     16  N   UNL     1       3.128   4.658  18.643  0.00  0.00    +0.000 NA
BRANCH  16  17
ATOM     17  C   UNL     1       1.834   3.975  18.445  0.00  0.00    +0.000 C 
ATOM     18  C   UNL     1       1.636   2.530  18.816  0.00  0.00    +0.000 C 
ATOM     19  C   UNL     1       1.033   3.605  19.667  0.00  0.00    +0.000 C 
ENDBRANCH  16  17
BRANCH  16  20
ATOM     20  C   UNL     1       4.272   3.769  18.389  0.00  0.00    +0.000 C 
BRANCH  20  23
ATOM     21  N   UNL     1       6.461   4.756  15.620  0.00  0.00    +0.000 N 
ATOM     22  C   UNL     1       5.259   4.255  16.024  0.00  0.00    +0.000 A 
ATOM     23  C   UNL     1       5.255   4.330  17.404  0.00  0.00    +0.000 A 
ATOM     24  C   UNL     1       6.428   5.082  17.705  0.00  0.00    +0.000 A 
ATOM     25  C   UNL     1       6.905   5.555  19.030  0.00  0.00    +0.000 C 
ATOM     26  N   UNL     1       7.164   5.326  16.614  0.00  0.00    +0.000 NA
BRANCH  21  28
ATOM     27  C   UNL     1       6.140   3.817  13.375  0.00  0.00    +0.000 C 
ATOM     28  C   UNL     1       7.061   4.590  14.309  0.00  0.00    +0.000 C 
ENDBRANCH  21  28
ENDBRANCH  20  23
ENDBRANCH  16  20
ENDBRANCH   1  16
TORSDOF 8
ENDMDL
MODEL 9
REMARK VINA RESULT:      -7.7      2.082      2.976
REMARK  Name = 
REMARK  11 active torsions:
REMARK  status: ('A' for Active; 'I' for Inactive)
REMARK    1  A    between atoms: C_1  and  C_2
REMARK    2  A    between atoms: C_2  and  N_3
REMARK    3  A    between atoms: C_5  and  C_6
REMARK    4  A    between atoms: C_6  and  N_7
REMARK    5  A    between atoms: N_7  and  C_8
REMARK    6  A    between atoms: N_7  and  C_23
REMARK    7  A    between atoms: C_8  and  C_9
REMARK    8  A    between atoms: C_12  and  C_13
REMARK    9  A    between atoms: C_13  and  C_14
REMARK   10  A    between atoms: N_17  and  C_18
REMARK   11  A    between atoms: C_26  and  C_27
REMARK                            x       y       z     vdW  Elec       q    Type
REMARK                         _______ _______ _______ _____ _____    ______ ____
ROOT
ATOM      1  C   UNL     1       4.007   6.200  19.157  0.00  0.00    +0.000 C 
ENDROOT
BRANCH   1   2
ATOM      2  C   UNL     1       2.895   7.224  19.025  0.00  0.00    +0.000 A 
ATOM      3  C   UNL     1       2.102   7.570  20.128  0.00  0.00    +0.000 A 
ATOM      4  C   UNL     1       1.144   8.587  20.036  0.00  0.00    +0.000 A 
ATOM      5  C   UNL     1       0.960   9.290  18.839  0.00  0.00    +0.000 A 
ATOM      6  C   UNL     1       1.741   8.940  17.732  0.00  0.00    +0.000 A 
ATOM      7  C   UNL     1       2.693   7.918  17.823  0.00  0.00    +0.000 A 
BRANCH   5   8
ATOM      8  C   UNL     1      -0.090  10.372  18.732  0.00  0.00    +0.000 C 
BRANCH   8   9
ATOM      9  C   UNL     1       0.349  11.811  19.087  0.00  0.00    +0.000 C 
ATOM     10  C   UNL     1       1.815  12.083  18.705  0.00  0.00    +0.000 C 
ATOM     11  C   UNL     1       2.404  13.328  19.380  0.00  0.00    +0.000 C 
ATOM     12  N   UNL     1       2.233  13.251  20.832  0.00  0.00    +0.000 NA
ATOM     13  C   UNL     1       2.934  14.339  21.509  0.00  0.00    +0.000 C 
ATOM     14  C   UNL     1       0.804  13.265  21.166  0.00  0.00    +0.000 C 
ATOM     15  C   UNL     1       0.123  12.021  20.601  0.00  0.00    +0.000 C 
ENDBRANCH   8   9
ENDBRANCH   5   8
ENDBRANCH   1   2
BRANCH   1  16
ATOM     16  N   UNL     1       3.683   4.769  18.968  0.00  0.00    +0.000 NA
BRANCH  16  17
ATOM     17  C   UNL     1       2.539   4.561  18.059  0.00  0.00    +0.000 C 
ATOM     18  C   UNL     1       2.152   3.190  17.574  0.00  0.00    +0.000 C 
ATOM     19  C   UNL     1       1.313   3.876  18.608  0.00  0.00    +0.000 C 
ENDBRANCH  16  17
BRANCH  16  20
ATOM     20  C   UNL     1       4.822   3.899  18.639  0.00  0.00    +0.000 C 
BRANCH  20  23
ATOM     21  N   UNL     1       6.598   4.815  15.567  0.00  0.00    +0.000 N 
ATOM     22  C   UNL     1       5.448   4.374  16.152  0.00  0.00    +0.000 A 
ATOM     23  C   UNL     1       5.667   4.423  17.515  0.00  0.00    +0.000 A 
ATOM     24  C   UNL     1       6.914   5.103  17.634  0.00  0.00    +0.000 A 
ATOM     25  C   UNL     1       7.621   5.524  18.870  0.00  0.00    +0.000 C 
ATOM     26  N   UNL     1       7.481   5.327  16.442  0.00  0.00    +0.000 NA
BRANCH  21  28
ATOM     27  C   UNL     1       5.943   3.806  13.427  0.00  0.00    +0.000 C 
ATOM     28  C   UNL     1       6.972   4.641  14.176  0.00  0.00    +0.000 C 
ENDBRANCH  21  28
ENDBRANCH  20  23
ENDBRANCH  16  20
ENDBRANCH   1  16
TORSDOF 8
ENDMDL
