MODEL 1
REMARK VINA RESULT:      -6.8      0.000      0.000
REMARK  Name = 
REMARK  7 active torsions:
REMARK  status: ('A' for Active; 'I' for Inactive)
REMARK    1  A    between atoms: C_1  and  O_2
REMARK    2  A    between atoms: O_2  and  C_3
REMARK    3  A    between atoms: C_5  and  C_6
REMARK    4  A    between atoms: N_7  and  O_8
REMARK    5  A    between atoms: C_10  and  C_11
REMARK    6  A    between atoms: C_17  and  O_18
REMARK    7  A    between atoms: O_18  and  C_19
REMARK                            x       y       z     vdW  Elec       q    Type
REMARK                         _______ _______ _______ _____ _____    ______ ____
ROOT
ATOM      1  C   UNL     1       3.382   3.645  17.483  0.00  0.00    +0.000 A 
ATOM      2  C   UNL     1       4.597   3.955  16.880  0.00  0.00    +0.000 A 
ATOM      3  C   UNL     1       5.003   5.273  16.821  0.00  0.00    +0.000 A 
ATOM      4  N   UNL     1       4.297   6.303  17.331  0.00  0.00    +0.000 NA
ATOM      5  C   UNL     1       3.102   6.005  17.939  0.00  0.00    +0.000 A 
ATOM      6  C   UNL     1       2.591   4.683  18.006  0.00  0.00    +0.000 A 
ENDROOT
BRANCH   5   7
ATOM      7  C   UNL     1       2.406   7.184  18.531  0.00  0.00    +0.000 A 
ATOM      8  C   UNL     1       1.993   8.268  17.750  0.00  0.00    +0.000 A 
ATOM      9  C   UNL     1       1.374   9.362  18.358  0.00  0.00    +0.000 A 
ATOM     10  C   UNL     1       1.172   9.356  19.730  0.00  0.00    +0.000 A 
ATOM     11  C   UNL     1       1.606   8.254  20.442  0.00  0.00    +0.000 A 
ATOM     12  N   UNL     1       2.223   7.193  19.880  0.00  0.00    +0.000 NA
ENDBRANCH   5   7
BRANCH   1  14
ATOM     13  C   UNL     1       3.602   1.454  18.395  0.00  0.00    +0.000 C 
ATOM     14  O   UNL     1       2.923   2.352  17.519  0.00  0.00    +0.000 OA
ENDBRANCH   1  14
BRANCH   3  15
ATOM     15  C   UNL     1       6.281   5.607  16.156  0.00  0.00    +0.000 C 
ATOM     16  N   UNL     1       6.552   5.182  14.958  0.00  0.00    +0.000 NA
BRANCH  16  17
ATOM     17  O   UNL     1       7.813   5.640  14.565  0.00  0.00    +0.000 OA
ATOM     18  H   UNL     1       8.136   4.910  14.003  0.00  0.00    +0.000 HD
ENDBRANCH  16  17
ENDBRANCH   3  15
BRANCH   6  19
ATOM     19  O   UNL     1       1.338   4.551  18.546  0.00  0.00    +0.000 OA
ATOM     20  C   UNL     1       1.155   3.912  19.796  0.00  0.00    +0.000 C 
ENDBRANCH   6  19
TORSDOF 5
ENDMDL
MODEL 2
REMARK VINA RESULT:      -6.7      2.370      5.464
REMARK  Name = 
REMARK  7 active torsions:
REMARK  status: ('A' for Active; 'I' for Inactive)
REMARK    1  A    between atoms: C_1  and  O_2
REMARK    2  A    between atoms: O_2  and  C_3
REMARK    3  A    between atoms: C_5  and  C_6
REMARK    4  A    between atoms: N_7  and  O_8
REMARK    5  A    between atoms: C_10  and  C_11
REMARK    6  A    between atoms: C_17  and  O_18
REMARK    7  A    between atoms: O_18  and  C_19
REMARK                            x       y       z     vdW  Elec       q    Type
REMARK                         _______ _______ _______ _____ _____    ______ ____
ROOT
ATOM      1  C   UNL     1       2.006   4.004  20.092  0.00  0.00    +0.000 A 
ATOM      2  C   UNL     1       1.604   5.313  20.338  0.00  0.00    +0.000 A 
ATOM      3  C   UNL     1       2.353   6.355  19.829  0.00  0.00    +0.000 A 
ATOM      4  N   UNL     1       3.463   6.190  19.081  0.00  0.00    +0.000 NA
ATOM      5  C   UNL     1       3.861   4.901  18.823  0.00  0.00    +0.000 A 
ATOM      6  C   UNL     1       3.173   3.774  19.343  0.00  0.00    +0.000 A 
ENDROOT
BRANCH   5   7
ATOM      7  C   UNL     1       5.060   4.796  17.941  0.00  0.00    +0.000 A 
ATOM      8  C   UNL     1       4.950   4.720  16.550  0.00  0.00    +0.000 A 
ATOM      9  C   UNL     1       6.102   4.591  15.771  0.00  0.00    +0.000 A 
ATOM     10  C   UNL     1       7.342   4.544  16.391  0.00  0.00    +0.000 A 
ATOM     11  C   UNL     1       7.378   4.622  17.770  0.00  0.00    +0.000 A 
ATOM     12  N   UNL     1       6.278   4.729  18.545  0.00  0.00    +0.000 NA
ENDBRANCH   5   7
BRANCH   1  14
ATOM     13  C   UNL     1       1.696   2.518  21.929  0.00  0.00    +0.000 C 
ATOM     14  O   UNL     1       1.314   2.944  20.622  0.00  0.00    +0.000 OA
ENDBRANCH   1  14
BRANCH   3  15
ATOM     15  C   UNL     1       1.943   7.747  20.113  0.00  0.00    +0.000 C 
ATOM     16  N   UNL     1       1.203   8.039  21.141  0.00  0.00    +0.000 NA
BRANCH  16  17
ATOM     17  O   UNL     1       0.965   9.416  21.180  0.00  0.00    +0.000 OA
ATOM     18  H   UNL     1       0.902   9.590  22.139  0.00  0.00    +0.000 HD
ENDBRANCH  16  17
ENDBRANCH   3  15
BRANCH   6  19
ATOM     19  O   UNL     1       3.746   2.555  19.092  0.00  0.00    +0.000 OA
ATOM     20  C   UNL     1       3.249   1.723  18.059  0.00  0.00    +0.000 C 
ENDBRANCH   6  19
TORSDOF 5
ENDMDL
MODEL 3
REMARK VINA RESULT:      -6.6      2.334      5.232
REMARK  Name = 
REMARK  7 active torsions:
REMARK  status: ('A' for Active; 'I' for Inactive)
REMARK    1  A    between atoms: C_1  and  O_2
REMARK    2  A    between atoms: O_2  and  C_3
REMARK    3  A    between atoms: C_5  and  C_6
REMARK    4  A    between atoms: N_7  and  O_8
REMARK    5  A    between atoms: C_10  and  C_11
REMARK    6  A    between atoms: C_17  and  O_18
REMARK    7  A    between atoms: O_18  and  C_19
REMARK                            x       y       z     vdW  Elec       q    Type
REMARK                         _______ _______ _______ _____ _____    ______ ____
ROOT
ATOM      1  C   UNL     1       2.636   4.884  20.456  0.00  0.00    +0.000 A 
ATOM      2  C   UNL     1       2.036   6.112  20.194  0.00  0.00    +0.000 A 
ATOM      3  C   UNL     1       2.490   6.872  19.134  0.00  0.00    +0.000 A 
ATOM      4  N   UNL     1       3.484   6.492  18.306  0.00  0.00    +0.000 NA
ATOM      5  C   UNL     1       4.074   5.276  18.550  0.00  0.00    +0.000 A 
ATOM      6  C   UNL     1       3.698   4.452  19.643  0.00  0.00    +0.000 A 
ENDROOT
BRANCH   5   7
ATOM      7  C   UNL     1       5.124   4.896  17.560  0.00  0.00    +0.000 A 
ATOM      8  C   UNL     1       4.804   4.331  16.322  0.00  0.00    +0.000 A 
ATOM      9  C   UNL     1       5.826   3.964  15.444  0.00  0.00    +0.000 A 
ATOM     10  C   UNL     1       7.147   4.170  15.812  0.00  0.00    +0.000 A 
ATOM     11  C   UNL     1       7.393   4.731  17.050  0.00  0.00    +0.000 A 
ATOM     12  N   UNL     1       6.424   5.077  17.924  0.00  0.00    +0.000 NA
ENDBRANCH   5   7
BRANCH   1  14
ATOM     13  C   UNL     1       1.232   3.149  21.289  0.00  0.00    +0.000 C 
ATOM     14  O   UNL     1       2.245   4.124  21.530  0.00  0.00    +0.000 OA
ENDBRANCH   1  14
BRANCH   3  15
ATOM     15  C   UNL     1       1.872   8.189  18.872  0.00  0.00    +0.000 C 
ATOM     16  N   UNL     1       1.900   8.726  17.688  0.00  0.00    +0.000 NA
BRANCH  16  17
ATOM     17  O   UNL     1       1.246   9.961  17.711  0.00  0.00    +0.000 OA
ATOM     18  H   UNL     1       1.934  10.569  17.377  0.00  0.00    +0.000 HD
ENDBRANCH  16  17
ENDBRANCH   3  15
BRANCH   6  19
ATOM     19  O   UNL     1       4.446   3.318  19.824  0.00  0.00    +0.000 OA
ATOM     20  C   UNL     1       3.959   2.058  19.400  0.00  0.00    +0.000 C 
ENDBRANCH   6  19
TORSDOF 5
ENDMDL
MODEL 4
REMARK VINA RESULT:      -6.5      2.306      5.519
REMARK  Name = 
REMARK  7 active torsions:
REMARK  status: ('A' for Active; 'I' for Inactive)
REMARK    1  A    between atoms: C_1  and  O_2
REMARK    2  A    between atoms: O_2  and  C_3
REMARK    3  A    between atoms: C_5  and  C_6
REMARK    4  A    between atoms: N_7  and  O_8
REMARK    5  A    between atoms: C_10  and  C_11
REMARK    6  A    between atoms: C_17  and  O_18
REMARK    7  A    between atoms: O_18  and  C_19
REMARK                            x       y       z     vdW  Elec       q    Type
REMARK                         _______ _______ _______ _____ _____    ______ ____
ROOT
ATOM      1  C   UNL     1       1.970   4.025  20.084  0.00  0.00    +0.000 A 
ATOM      2  C   UNL     1       1.581   5.341  20.321  0.00  0.00    +0.000 A 
ATOM      3  C   UNL     1       2.336   6.371  19.795  0.00  0.00    +0.000 A 
ATOM      4  N   UNL     1       3.438   6.188  19.040  0.00  0.00    +0.000 NA
ATOM      5  C   UNL     1       3.822   4.893  18.792  0.00  0.00    +0.000 A 
ATOM      6  C   UNL     1       3.129   3.777  19.328  0.00  0.00    +0.000 A 
ENDROOT
BRANCH   5   7
ATOM      7  C   UNL     1       5.013   4.768  17.901  0.00  0.00    +0.000 A 
ATOM      8  C   UNL     1       6.318   4.813  18.401  0.00  0.00    +0.000 A 
ATOM      9  C   UNL     1       7.399   4.723  17.522  0.00  0.00    +0.000 A 
ATOM     10  C   UNL     1       7.162   4.585  16.162  0.00  0.00    +0.000 A 
ATOM     11  C   UNL     1       5.848   4.550  15.735  0.00  0.00    +0.000 A 
ATOM     12  N   UNL     1       4.787   4.653  16.563  0.00  0.00    +0.000 NA
ENDBRANCH   5   7
BRANCH   1  14
ATOM     13  C   UNL     1       1.707   2.515  21.908  0.00  0.00    +0.000 C 
ATOM     14  O   UNL     1       1.273   2.977  20.630  0.00  0.00    +0.000 OA
ENDBRANCH   1  14
BRANCH   3  15
ATOM     15  C   UNL     1       1.940   7.769  20.068  0.00  0.00    +0.000 C 
ATOM     16  N   UNL     1       1.275   8.088  21.138  0.00  0.00    +0.000 NA
BRANCH  16  17
ATOM     17  O   UNL     1       1.034   9.464  21.156  0.00  0.00    +0.000 OA
ATOM     18  H   UNL     1       0.297   9.556  20.521  0.00  0.00    +0.000 HD
ENDBRANCH  16  17
ENDBRANCH   3  15
BRANCH   6  19
ATOM     19  O   UNL     1       3.688   2.551  19.085  0.00  0.00    +0.000 OA
ATOM     20  C   UNL     1       3.181   1.717  18.059  0.00  0.00    +0.000 C 
ENDBRANCH   6  19
TORSDOF 5
ENDMDL
MODEL 5
REMARK VINA RESULT:      -6.5      2.178      5.230
REMARK  Name = 
REMARK  7 active torsions:
REMARK  status: ('A' for Active; 'I' for Inactive)
REMARK    1  A    between atoms: C_1  and  O_2
REMARK    2  A    between atoms: O_2  and  C_3
REMARK    3  A    between atoms: C_5  and  C_6
REMARK    4  A    between atoms: N_7  and  O_8
REMARK    5  A    between atoms: C_10  and  C_11
REMARK    6  A    between atoms: C_17  and  O_18
REMARK    7  A    between atoms: O_18  and  C_19
REMARK                            x       y       z     vdW  Elec       q    Type
REMARK                         _______ _______ _______ _____ _____    ______ ____
ROOT
ATOM      1  C   UNL     1       2.765   5.010  20.156  0.00  0.00    +0.000 A 
ATOM      2  C   UNL     1       2.165   6.249  19.953  0.00  0.00    +0.000 A 
ATOM      3  C   UNL     1       2.587   7.037  18.901  0.00  0.00    +0.000 A 
ATOM      4  N   UNL     1       3.548   6.677  18.027  0.00  0.00    +0.000 NA
ATOM      5  C   UNL     1       4.137   5.450  18.212  0.00  0.00    +0.000 A 
ATOM      6  C   UNL     1       3.794   4.596  19.292  0.00  0.00    +0.000 A 
ENDROOT
BRANCH   5   7
ATOM      7  C   UNL     1       5.149   5.094  17.174  0.00  0.00    +0.000 A 
ATOM      8  C   UNL     1       6.467   5.554  17.238  0.00  0.00    +0.000 A 
ATOM      9  C   UNL     1       7.367   5.218  16.224  0.00  0.00    +0.000 A 
ATOM     10  C   UNL     1       6.939   4.427  15.168  0.00  0.00    +0.000 A 
ATOM     11  C   UNL     1       5.622   4.009  15.166  0.00  0.00    +0.000 A 
ATOM     12  N   UNL     1       4.729   4.335  16.124  0.00  0.00    +0.000 NA
ENDBRANCH   5   7
BRANCH   1  14
ATOM     13  C   UNL     1       1.279   3.366  21.032  0.00  0.00    +0.000 C 
ATOM     14  O   UNL     1       2.406   4.219  21.219  0.00  0.00    +0.000 OA
ENDBRANCH   1  14
BRANCH   3  15
ATOM     15  C   UNL     1       1.970   8.366  18.701  0.00  0.00    +0.000 C 
ATOM     16  N   UNL     1       2.103   9.013  17.581  0.00  0.00    +0.000 NA
BRANCH  16  17
ATOM     17  O   UNL     1       1.424  10.232  17.653  0.00  0.00    +0.000 OA
ATOM     18  H   UNL     1       1.955  10.730  18.303  0.00  0.00    +0.000 HD
ENDBRANCH  16  17
ENDBRANCH   3  15
BRANCH   6  19
ATOM     19  O   UNL     1       4.539   3.452  19.411  0.00  0.00    +0.000 OA
ATOM     20  C   UNL     1       4.003   2.198  19.030  0.00  0.00    +0.000 C 
ENDBRANCH   6  19
TORSDOF 5
ENDMDL
MODEL 6
REMARK VINA RESULT:      -6.4      2.357      5.086
REMARK  Name = 
REMARK  7 active torsions:
REMARK  status: ('A' for Active; 'I' for Inactive)
REMARK    1  A    between atoms: C_1  and  O_2
REMARK    2  A    between atoms: O_2  and  C_3
REMARK    3  A    between atoms: C_5  and  C_6
REMARK    4  A    between atoms: N_7  and  O_8
REMARK    5  A    between atoms: C_10  and  C_11
REMARK    6  A    between atoms: C_17  and  O_18
REMARK    7  A    between atoms: O_18  and  C_19
REMARK                            x       y       z     vdW  Elec       q    Type
REMARK                         _______ _______ _______ _____ _____    ______ ____
ROOT
ATOM      1  C   UNL     1       4.736   6.811  17.221  0.00  0.00    +0.000 A 
ATOM      2  C   UNL     1       4.017   8.003  17.223  0.00  0.00    +0.000 A 
ATOM      3  C   UNL     1       2.810   8.060  17.889  0.00  0.00    +0.000 A 
ATOM      4  N   UNL     1       2.273   7.026  18.567  0.00  0.00    +0.000 NA
ATOM      5  C   UNL     1       2.981   5.849  18.581  0.00  0.00    +0.000 A 
ATOM      6  C   UNL     1       4.208   5.691  17.887  0.00  0.00    +0.000 A 
ENDROOT
BRANCH   5   7
ATOM      7  C   UNL     1       2.355   4.768  19.399  0.00  0.00    +0.000 A 
ATOM      8  C   UNL     1       1.418   3.882  18.860  0.00  0.00    +0.000 A 
ATOM      9  C   UNL     1       0.839   2.908  19.676  0.00  0.00    +0.000 A 
ATOM     10  C   UNL     1       1.206   2.831  21.011  0.00  0.00    +0.000 A 
ATOM     11  C   UNL     1       2.136   3.739  21.479  0.00  0.00    +0.000 A 
ATOM     12  N   UNL     1       2.697   4.701  20.715  0.00  0.00    +0.000 NA
ENDBRANCH   5   7
BRANCH   1  14
ATOM     13  C   UNL     1       7.112   6.976  17.255  0.00  0.00    +0.000 C 
ATOM     14  O   UNL     1       5.916   6.701  16.529  0.00  0.00    +0.000 OA
ENDBRANCH   1  14
BRANCH   3  15
ATOM     15  C   UNL     1       2.032   9.318  17.869  0.00  0.00    +0.000 C 
ATOM     16  N   UNL     1       0.737   9.315  17.979  0.00  0.00    +0.000 NA
BRANCH  16  17
ATOM     17  O   UNL     1       0.252  10.625  17.934  0.00  0.00    +0.000 OA
ATOM     18  H   UNL     1       1.035  11.147  18.194  0.00  0.00    +0.000 HD
ENDBRANCH  16  17
ENDBRANCH   3  15
BRANCH   6  19
ATOM     19  O   UNL     1       4.747   4.431  17.902  0.00  0.00    +0.000 OA
ATOM     20  C   UNL     1       4.651   3.592  16.765  0.00  0.00    +0.000 C 
ENDBRANCH   6  19
TORSDOF 5
ENDMDL
MODEL 7
REMARK VINA RESULT:      -6.3      0.676      1.127
REMARK  Name = 
REMARK  7 active torsions:
REMARK  status: ('A' for Active; 'I' for Inactive)
REMARK    1  A    between atoms: C_1  and  O_2
REMARK    2  A    between atoms: O_2  and  C_3
REMARK    3  A    between atoms: C_5  and  C_6
REMARK    4  A    between atoms: N_7  and  O_8
REMARK    5  A    between atoms: C_10  and  C_11
REMARK    6  A    between atoms: C_17  and  O_18
REMARK    7  A    between atoms: O_18  and  C_19
REMARK                            x       y       z     vdW  Elec       q    Type
REMARK                         _______ _______ _______ _____ _____    ______ ____
ROOT
ATOM      1  C   UNL     1       3.321   3.544  17.858  0.00  0.00    +0.000 A 
ATOM      2  C   UNL     1       4.552   3.780  17.253  0.00  0.00    +0.000 A 
ATOM      3  C   UNL     1       4.991   5.081  17.103  0.00  0.00    +0.000 A 
ATOM      4  N   UNL     1       4.303   6.161  17.524  0.00  0.00    +0.000 NA
ATOM      5  C   UNL     1       3.092   5.937  18.133  0.00  0.00    +0.000 A 
ATOM      6  C   UNL     1       2.548   4.636  18.289  0.00  0.00    +0.000 A 
ENDROOT
BRANCH   5   7
ATOM      7  C   UNL     1       2.417   7.174  18.625  0.00  0.00    +0.000 A 
ATOM      8  C   UNL     1       2.121   7.366  19.977  0.00  0.00    +0.000 A 
ATOM      9  C   UNL     1       1.460   8.528  20.382  0.00  0.00    +0.000 A 
ATOM     10  C   UNL     1       1.109   9.478  19.435  0.00  0.00    +0.000 A 
ATOM     11  C   UNL     1       1.430   9.223  18.115  0.00  0.00    +0.000 A 
ATOM     12  N   UNL     1       2.052   8.101  17.697  0.00  0.00    +0.000 NA
ENDBRANCH   5   7
BRANCH   1  14
ATOM     13  C   UNL     1       3.735   1.277  18.461  0.00  0.00    +0.000 C 
ATOM     14  O   UNL     1       2.830   2.269  17.981  0.00  0.00    +0.000 OA
ENDBRANCH   1  14
BRANCH   3  15
ATOM     15  C   UNL     1       6.286   5.334  16.436  0.00  0.00    +0.000 C 
ATOM     16  N   UNL     1       6.376   5.421  15.143  0.00  0.00    +0.000 NA
BRANCH  16  17
ATOM     17  O   UNL     1       7.701   5.667  14.773  0.00  0.00    +0.000 OA
ATOM     18  H   UNL     1       7.618   5.881  13.824  0.00  0.00    +0.000 HD
ENDBRANCH  16  17
ENDBRANCH   3  15
BRANCH   6  19
ATOM     19  O   UNL     1       1.285   4.575  18.817  0.00  0.00    +0.000 OA
ATOM     20  C   UNL     1       1.056   3.957  20.070  0.00  0.00    +0.000 C 
ENDBRANCH   6  19
TORSDOF 5
ENDMDL
MODEL 8
REMARK VINA RESULT:      -6.3      2.475      4.373
REMARK  Name = 
REMARK  7 active torsions:
REMARK  status: ('A' for Active; 'I' for Inactive)
REMARK    1  A    between atoms: C_1  and  O_2
REMARK    2  A    between atoms: O_2  and  C_3
REMARK    3  A    between atoms: C_5  and  C_6
REMARK    4  A    between atoms: N_7  and  O_8
REMARK    5  A    between atoms: C_10  and  C_11
REMARK    6  A    between atoms: C_17  and  O_18
REMARK    7  A    between atoms: O_18  and  C_19
REMARK                            x       y       z     vdW  Elec       q    Type
REMARK                         _______ _______ _______ _____ _____    ______ ____
ROOT
ATOM      1  C   UNL     1       5.647   6.353  16.911  0.00  0.00    +0.000 A 
ATOM      2  C   UNL     1       6.163   5.658  15.822  0.00  0.00    +0.000 A 
ATOM      3  C   UNL     1       5.709   4.380  15.562  0.00  0.00    +0.000 A 
ATOM      4  N   UNL     1       4.770   3.750  16.296  0.00  0.00    +0.000 NA
ATOM      5  C   UNL     1       4.247   4.433  17.366  0.00  0.00    +0.000 A 
ATOM      6  C   UNL     1       4.687   5.732  17.729  0.00  0.00    +0.000 A 
ENDROOT
BRANCH   5   7
ATOM      7  C   UNL     1       3.172   3.698  18.095  0.00  0.00    +0.000 A 
ATOM      8  C   UNL     1       1.826   3.808  17.734  0.00  0.00    +0.000 A 
ATOM      9  C   UNL     1       0.855   3.123  18.469  0.00  0.00    +0.000 A 
ATOM     10  C   UNL     1       1.242   2.338  19.545  0.00  0.00    +0.000 A 
ATOM     11  C   UNL     1       2.588   2.276  19.848  0.00  0.00    +0.000 A 
ATOM     12  N   UNL     1       3.543   2.942  19.165  0.00  0.00    +0.000 NA
ENDBRANCH   5   7
BRANCH   1  14
ATOM     13  C   UNL     1       7.500   7.722  17.519  0.00  0.00    +0.000 C 
ATOM     14  O   UNL     1       6.108   7.606  17.230  0.00  0.00    +0.000 OA
ENDBRANCH   1  14
BRANCH   3  15
ATOM     15  C   UNL     1       6.276   3.630  14.421  0.00  0.00    +0.000 C 
ATOM     16  N   UNL     1       5.790   3.751  13.222  0.00  0.00    +0.000 NA
BRANCH  16  17
ATOM     17  O   UNL     1       6.505   2.942  12.334  0.00  0.00    +0.000 OA
ATOM     18  H   UNL     1       6.357   3.388  11.478  0.00  0.00    +0.000 HD
ENDBRANCH  16  17
ENDBRANCH   3  15
BRANCH   6  19
ATOM     19  O   UNL     1       4.152   6.246  18.882  0.00  0.00    +0.000 OA
ATOM     20  C   UNL     1       3.015   7.089  18.836  0.00  0.00    +0.000 C 
ENDBRANCH   6  19
TORSDOF 5
ENDMDL
MODEL 9
REMARK VINA RESULT:      -6.3      3.039      5.077
REMARK  Name = 
REMARK  7 active torsions:
REMARK  status: ('A' for Active; 'I' for Inactive)
REMARK    1  A    between atoms: C_1  and  O_2
REMARK    2  A    between atoms: O_2  and  C_3
REMARK    3  A    between atoms: C_5  and  C_6
REMARK    4  A    between atoms: N_7  and  O_8
REMARK    5  A    between atoms: C_10  and  C_11
REMARK    6  A    between atoms: C_17  and  O_18
REMARK    7  A    between atoms: O_18  and  C_19
REMARK                            x       y       z     vdW  Elec       q    Type
REMARK                         _______ _______ _______ _____ _____    ______ ____
ROOT
ATOM      1  C   UNL     1       2.514   3.608  19.621  0.00  0.00    +0.000 A 
ATOM      2  C   UNL     1       3.078   2.465  20.179  0.00  0.00    +0.000 A 
ATOM      3  C   UNL     1       4.452   2.320  20.172  0.00  0.00    +0.000 A 
ATOM      4  N   UNL     1       5.304   3.234  19.667  0.00  0.00    +0.000 NA
ATOM      5  C   UNL     1       4.756   4.371  19.125  0.00  0.00    +0.000 A 
ATOM      6  C   UNL     1       3.354   4.581  19.052  0.00  0.00    +0.000 A 
ENDROOT
BRANCH   5   7
ATOM      7  C   UNL     1       5.760   5.363  18.640  0.00  0.00    +0.000 A 
ATOM      8  C   UNL     1       5.553   6.120  17.483  0.00  0.00    +0.000 A 
ATOM      9  C   UNL     1       6.538   7.012  17.054  0.00  0.00    +0.000 A 
ATOM     10  C   UNL     1       7.709   7.137  17.787  0.00  0.00    +0.000 A 
ATOM     11  C   UNL     1       7.850   6.357  18.919  0.00  0.00    +0.000 A 
ATOM     12  N   UNL     1       6.921   5.475  19.343  0.00  0.00    +0.000 NA
ENDBRANCH   5   7
BRANCH   1  14
ATOM     13  C   UNL     1       0.410   2.713  18.950  0.00  0.00    +0.000 C 
ATOM     14  O   UNL     1       1.152   3.765  19.565  0.00  0.00    +0.000 OA
ENDBRANCH   1  14
BRANCH   3  15
ATOM     15  C   UNL     1       5.052   1.093  20.740  0.00  0.00    +0.000 C 
ATOM     16  N   UNL     1       5.771   1.130  21.822  0.00  0.00    +0.000 NA
BRANCH  16  17
ATOM     17  O   UNL     1       6.212  -0.157  22.144  0.00  0.00    +0.000 OA
ATOM     18  H   UNL     1       5.700  -0.359  22.950  0.00  0.00    +0.000 HD
ENDBRANCH  16  17
ENDBRANCH   3  15
BRANCH   6  19
ATOM     19  O   UNL     1       2.951   5.710  18.389  0.00  0.00    +0.000 OA
ATOM     20  C   UNL     1       2.483   6.839  19.105  0.00  0.00    +0.000 C 
ENDBRANCH   6  19
TORSDOF 5
ENDMDL
