MODEL 1
REMARK VINA RESULT:      -7.9      0.000      0.000
REMARK  Name = 
REMARK  9 active torsions:
REMARK  status: ('A' for Active; 'I' for Inactive)
REMARK    1  A    between atoms: C_1  and  C_2
REMARK    2  A    between atoms: C_2  and  C_3
REMARK    3  A    between atoms: C_2  and  C_4
REMARK    4  A    between atoms: C_4  and  N_5
REMARK    5  A    between atoms: N_5  and  N_6
REMARK    6  A    between atoms: N_5  and  C_20
REMARK    7  A    between atoms: C_7  and  C_9
REMARK    8  A    between atoms: C_11  and  C_12
REMARK    9  A    between atoms: C_22  and  C_23
REMARK                            x       y       z     vdW  Elec       q    Type
REMARK                         _______ _______ _______ _____ _____    ______ ____
ROOT
ATOM      1  N   UNL     1       3.994   5.706  18.660  0.00  0.00    +0.000 N 
ATOM      2  C   UNL     1       2.678   6.016  18.326  0.00  0.00    +0.000 C 
ATOM      3  O   UNL     1       1.949   5.262  17.687  0.00  0.00    +0.000 OA
ATOM      4  H   UNL     1       4.631   6.444  18.942  0.00  0.00    +0.000 HD
ENDROOT
BRANCH   2   5
ATOM      5  C   UNL     1       2.220   7.305  18.799  0.00  0.00    +0.000 A 
ATOM      6  C   UNL     1       1.949   8.469  18.119  0.00  0.00    +0.000 A 
ATOM      7  C   UNL     1       1.335   9.328  19.066  0.00  0.00    +0.000 A 
ATOM      8  N   UNL     1       1.321   8.742  20.276  0.00  0.00    +0.000 NA
ATOM      9  O   UNL     1       1.889   7.488  20.109  0.00  0.00    +0.000 OA
BRANCH   7  10
ATOM     10  C   UNL     1       0.738  10.641  18.809  0.00  0.00    +0.000 A 
ATOM     11  C   UNL     1       1.537  11.792  18.743  0.00  0.00    +0.000 A 
ATOM     12  C   UNL     1       0.957  13.052  18.562  0.00  0.00    +0.000 A 
ATOM     13  C   UNL     1      -0.426  13.173  18.436  0.00  0.00    +0.000 A 
ATOM     14  C   UNL     1      -1.231  12.038  18.499  0.00  0.00    +0.000 A 
ATOM     15  C   UNL     1      -0.652  10.780  18.687  0.00  0.00    +0.000 A 
ENDBRANCH   7  10
ENDBRANCH   2   5
BRANCH   1  16
ATOM     16  N   UNL     1       4.593   4.486  18.167  0.00  0.00    +0.000 N 
BRANCH  16  17
ATOM     17  C   UNL     1       5.584   4.739  17.172  0.00  0.00    +0.000 A 
ATOM     18  N   UNL     1       5.283   4.310  15.913  0.00  0.00    +0.000 NA
ATOM     19  C   UNL     1       6.200   4.438  14.937  0.00  0.00    +0.000 A 
ATOM     20  N   UNL     1       7.385   5.046  15.057  0.00  0.00    +0.000 NA
ATOM     21  C   UNL     1       7.669   5.477  16.295  0.00  0.00    +0.000 A 
ATOM     22  C   UNL     1       6.841   5.318  17.400  0.00  0.00    +0.000 A 
ATOM     23 BR   UNL     1       7.644   5.827  19.040  0.00  0.00    +0.000 Br
BRANCH  19  24
ATOM     24  C   UNL     1       5.897   3.846  13.663  0.00  0.00    +0.000 C 
ATOM     25  N   UNL     1       5.665   3.364  12.630  0.00  0.00    +0.000 NA
ENDBRANCH  19  24
ENDBRANCH  16  17
BRANCH  16  26
ATOM     26  C   UNL     1       4.915   3.546  19.256  0.00  0.00    +0.000 C 
BRANCH  26  28
ATOM     27  C   UNL     1       2.684   2.891  20.323  0.00  0.00    +0.000 C 
ATOM     28  C   UNL     1       3.872   2.430  19.474  0.00  0.00    +0.000 C 
ATOM     29  C   UNL     1       3.355   1.982  18.099  0.00  0.00    +0.000 C 
ENDBRANCH  26  28
ENDBRANCH  16  26
ENDBRANCH   1  16
TORSDOF 7
ENDMDL
MODEL 2
REMARK VINA RESULT:      -7.7      4.141      6.797
REMARK  Name = 
REMARK  9 active torsions:
REMARK  status: ('A' for Active; 'I' for Inactive)
REMARK    1  A    between atoms: C_1  and  C_2
REMARK    2  A    between atoms: C_2  and  C_3
REMARK    3  A    between atoms: C_2  and  C_4
REMARK    4  A    between atoms: C_4  and  N_5
REMARK    5  A    between atoms: N_5  and  N_6
REMARK    6  A    between atoms: N_5  and  C_20
REMARK    7  A    between atoms: C_7  and  C_9
REMARK    8  A    between atoms: C_11  and  C_12
REMARK    9  A    between atoms: C_22  and  C_23
REMARK                            x       y       z     vdW  Elec       q    Type
REMARK                         _______ _______ _______ _____ _____    ______ ____
ROOT
ATOM      1  N   UNL     1       4.747   6.568  17.956  0.00  0.00    +0.000 N 
ATOM      2  C   UNL     1       5.682   6.980  17.010  0.00  0.00    +0.000 C 
ATOM      3  O   UNL     1       5.519   6.849  15.800  0.00  0.00    +0.000 OA
ATOM      4  H   UNL     1       5.026   6.446  18.924  0.00  0.00    +0.000 HD
ENDROOT
BRANCH   2   5
ATOM      5  C   UNL     1       6.872   7.591  17.561  0.00  0.00    +0.000 A 
ATOM      6  C   UNL     1       7.332   8.886  17.495  0.00  0.00    +0.000 A 
ATOM      7  C   UNL     1       8.429   8.945  18.393  0.00  0.00    +0.000 A 
ATOM      8  N   UNL     1       8.672   7.725  18.903  0.00  0.00    +0.000 NA
ATOM      9  O   UNL     1       7.709   6.881  18.369  0.00  0.00    +0.000 OA
BRANCH   7  10
ATOM     10  C   UNL     1       9.184  10.138  18.786  0.00  0.00    +0.000 A 
ATOM     11  C   UNL     1       9.829  10.929  17.823  0.00  0.00    +0.000 A 
ATOM     12  C   UNL     1      10.602  12.029  18.208  0.00  0.00    +0.000 A 
ATOM     13  C   UNL     1      10.731  12.356  19.557  0.00  0.00    +0.000 A 
ATOM     14  C   UNL     1      10.094  11.580  20.523  0.00  0.00    +0.000 A 
ATOM     15  C   UNL     1       9.328  10.475  20.139  0.00  0.00    +0.000 A 
ENDBRANCH   7  10
ENDBRANCH   2   5
BRANCH   1  16
ATOM     16  N   UNL     1       3.558   5.863  17.532  0.00  0.00    +0.000 N 
BRANCH  16  17
ATOM     17  C   UNL     1       3.551   4.507  17.976  0.00  0.00    +0.000 A 
ATOM     18  N   UNL     1       2.897   4.270  19.149  0.00  0.00    +0.000 NA
ATOM     19  C   UNL     1       2.916   3.030  19.675  0.00  0.00    +0.000 A 
ATOM     20  N   UNL     1       3.452   1.949  19.100  0.00  0.00    +0.000 NA
ATOM     21  C   UNL     1       4.082   2.187  17.939  0.00  0.00    +0.000 A 
ATOM     22  C   UNL     1       4.207   3.438  17.347  0.00  0.00    +0.000 A 
ATOM     23 BR   UNL     1       5.357   3.462  15.840  0.00  0.00    +0.000 Br
BRANCH  19  24
ATOM     24  C   UNL     1       2.339   2.857  20.980  0.00  0.00    +0.000 C 
ATOM     25  N   UNL     1       1.882   2.724  22.040  0.00  0.00    +0.000 NA
ENDBRANCH  19  24
ENDBRANCH  16  17
BRANCH  16  26
ATOM     26  C   UNL     1       2.337   6.668  17.720  0.00  0.00    +0.000 C 
BRANCH  26  28
ATOM     27  C   UNL     1       1.862   9.178  17.870  0.00  0.00    +0.000 C 
ATOM     28  C   UNL     1       2.540   7.970  18.523  0.00  0.00    +0.000 C 
ATOM     29  C   UNL     1       1.947   7.765  19.925  0.00  0.00    +0.000 C 
ENDBRANCH  26  28
ENDBRANCH  16  26
ENDBRANCH   1  16
TORSDOF 7
ENDMDL
MODEL 3
REMARK VINA RESULT:      -7.6      0.700      1.018
REMARK  Name = 
REMARK  9 active torsions:
REMARK  status: ('A' for Active; 'I' for Inactive)
REMARK    1  A    between atoms: C_1  and  C_2
REMARK    2  A    between atoms: C_2  and  C_3
REMARK    3  A    between atoms: C_2  and  C_4
REMARK    4  A    between atoms: C_4  and  N_5
REMARK    5  A    between atoms: N_5  and  N_6
REMARK    6  A    between atoms: N_5  and  C_20
REMARK    7  A    between atoms: C_7  and  C_9
REMARK    8  A    between atoms: C_11  and  C_12
REMARK    9  A    between atoms: C_22  and  C_23
REMARK                            x       y       z     vdW  Elec       q    Type
REMARK                         _______ _______ _______ _____ _____    ______ ____
ROOT
ATOM      1  N   UNL     1       3.852   5.428  18.894  0.00  0.00    +0.000 N 
ATOM      2  C   UNL     1       2.573   5.862  18.555  0.00  0.00    +0.000 C 
ATOM      3  O   UNL     1       1.844   5.262  17.770  0.00  0.00    +0.000 OA
ATOM      4  H   UNL     1       4.509   6.074  19.321  0.00  0.00    +0.000 HD
ENDROOT
BRANCH   2   5
ATOM      5  C   UNL     1       2.153   7.081  19.211  0.00  0.00    +0.000 A 
ATOM      6  C   UNL     1       1.979   8.354  18.720  0.00  0.00    +0.000 A 
ATOM      7  C   UNL     1       1.355   9.082  19.764  0.00  0.00    +0.000 A 
ATOM      8  N   UNL     1       1.243   8.311  20.860  0.00  0.00    +0.000 NA
ATOM      9  O   UNL     1       1.757   7.069  20.516  0.00  0.00    +0.000 OA
BRANCH   7  10
ATOM     10  C   UNL     1       0.839  10.452  19.699  0.00  0.00    +0.000 A 
ATOM     11  C   UNL     1      -0.213  10.863  20.530  0.00  0.00    +0.000 A 
ATOM     12  C   UNL     1      -0.746  12.152  20.419  0.00  0.00    +0.000 A 
ATOM     13  C   UNL     1      -0.226  13.046  19.484  0.00  0.00    +0.000 A 
ATOM     14  C   UNL     1       0.820  12.651  18.654  0.00  0.00    +0.000 A 
ATOM     15  C   UNL     1       1.348  11.361  18.759  0.00  0.00    +0.000 A 
ENDBRANCH   7  10
ENDBRANCH   2   5
BRANCH   1  16
ATOM     16  N   UNL     1       4.417   4.271  18.236  0.00  0.00    +0.000 N 
BRANCH  16  17
ATOM     17  C   UNL     1       5.437   4.629  17.304  0.00  0.00    +0.000 A 
ATOM     18  N   UNL     1       5.219   4.250  16.012  0.00  0.00    +0.000 NA
ATOM     19  C   UNL     1       6.172   4.478  15.089  0.00  0.00    +0.000 A 
ATOM     20  N   UNL     1       7.313   5.143  15.296  0.00  0.00    +0.000 NA
ATOM     21  C   UNL     1       7.515   5.525  16.567  0.00  0.00    +0.000 A 
ATOM     22  C   UNL     1       6.647   5.264  17.620  0.00  0.00    +0.000 A 
ATOM     23 BR   UNL     1       7.343   5.731  19.321  0.00  0.00    +0.000 Br
BRANCH  19  24
ATOM     24  C   UNL     1       5.962   3.936  13.774  0.00  0.00    +0.000 C 
ATOM     25  N   UNL     1       5.786   3.509  12.708  0.00  0.00    +0.000 NA
ENDBRANCH  19  24
ENDBRANCH  16  17
BRANCH  16  26
ATOM     26  C   UNL     1       4.684   3.170  19.178  0.00  0.00    +0.000 C 
BRANCH  26  28
ATOM     27  C   UNL     1       2.492   2.601  20.370  0.00  0.00    +0.000 C 
ATOM     28  C   UNL     1       3.529   2.159  19.332  0.00  0.00    +0.000 C 
ATOM     29  C   UNL     1       2.835   2.013  17.969  0.00  0.00    +0.000 C 
ENDBRANCH  26  28
ENDBRANCH  16  26
ENDBRANCH   1  16
TORSDOF 7
ENDMDL
MODEL 4
REMARK VINA RESULT:      -7.4      4.816      6.866
REMARK  Name = 
REMARK  9 active torsions:
REMARK  status: ('A' for Active; 'I' for Inactive)
REMARK    1  A    between atoms: C_1  and  C_2
REMARK    2  A    between atoms: C_2  and  C_3
REMARK    3  A    between atoms: C_2  and  C_4
REMARK    4  A    between atoms: C_4  and  N_5
REMARK    5  A    between atoms: N_5  and  N_6
REMARK    6  A    between atoms: N_5  and  C_20
REMARK    7  A    between atoms: C_7  and  C_9
REMARK    8  A    between atoms: C_11  and  C_12
REMARK    9  A    between atoms: C_22  and  C_23
REMARK                            x       y       z     vdW  Elec       q    Type
REMARK                         _______ _______ _______ _____ _____    ______ ____
ROOT
ATOM      1  N   UNL     1       6.506   7.596  17.029  0.00  0.00    +0.000 N 
ATOM      2  C   UNL     1       7.564   7.501  17.930  0.00  0.00    +0.000 C 
ATOM      3  O   UNL     1       7.873   6.457  18.498  0.00  0.00    +0.000 OA
ATOM      4  H   UNL     1       6.122   8.506  16.796  0.00  0.00    +0.000 HD
ENDROOT
BRANCH   2   5
ATOM      5  C   UNL     1       8.292   8.733  18.144  0.00  0.00    +0.000 A 
ATOM      6  C   UNL     1       8.272   9.922  17.452  0.00  0.00    +0.000 A 
ATOM      7  C   UNL     1       9.021  10.832  18.239  0.00  0.00    +0.000 A 
ATOM      8  N   UNL     1       9.542  10.197  19.305  0.00  0.00    +0.000 NA
ATOM      9  O   UNL     1       9.098   8.885  19.232  0.00  0.00    +0.000 OA
BRANCH   7  10
ATOM     10  C   UNL     1       9.191  12.268  18.007  0.00  0.00    +0.000 A 
ATOM     11  C   UNL     1      10.454  12.804  17.717  0.00  0.00    +0.000 A 
ATOM     12  C   UNL     1      10.623  14.184  17.559  0.00  0.00    +0.000 A 
ATOM     13  C   UNL     1       9.530  15.041  17.680  0.00  0.00    +0.000 A 
ATOM     14  C   UNL     1       8.270  14.521  17.967  0.00  0.00    +0.000 A 
ATOM     15  C   UNL     1       8.102  13.143  18.132  0.00  0.00    +0.000 A 
ENDBRANCH   7  10
ENDBRANCH   2   5
BRANCH   1  16
ATOM     16  N   UNL     1       5.650   6.454  16.801  0.00  0.00    +0.000 N 
BRANCH  16  17
ATOM     17  C   UNL     1       4.474   6.495  17.608  0.00  0.00    +0.000 A 
ATOM     18  N   UNL     1       3.697   7.608  17.469  0.00  0.00    +0.000 NA
ATOM     19  C   UNL     1       2.615   7.759  18.255  0.00  0.00    +0.000 A 
ATOM     20  N   UNL     1       2.154   6.856  19.126  0.00  0.00    +0.000 NA
ATOM     21  C   UNL     1       2.915   5.757  19.248  0.00  0.00    +0.000 A 
ATOM     22  C   UNL     1       4.101   5.533  18.559  0.00  0.00    +0.000 A 
ATOM     23 BR   UNL     1       5.047   3.996  19.139  0.00  0.00    +0.000 Br
BRANCH  19  24
ATOM     24  C   UNL     1       1.909   9.008  18.175  0.00  0.00    +0.000 C 
ATOM     25  N   UNL     1       1.337  10.019  18.124  0.00  0.00    +0.000 NA
ENDBRANCH  19  24
ENDBRANCH  16  17
BRANCH  16  26
ATOM     26  C   UNL     1       5.506   6.144  15.368  0.00  0.00    +0.000 C 
BRANCH  26  28
ATOM     27  C   UNL     1       7.083   4.222  15.973  0.00  0.00    +0.000 C 
ATOM     28  C   UNL     1       6.462   5.052  14.845  0.00  0.00    +0.000 C 
ATOM     29  C   UNL     1       5.665   4.118  13.923  0.00  0.00    +0.000 C 
ENDBRANCH  26  28
ENDBRANCH  16  26
ENDBRANCH   1  16
TORSDOF 7
ENDMDL
MODEL 5
REMARK VINA RESULT:      -7.3      1.854      2.154
REMARK  Name = 
REMARK  9 active torsions:
REMARK  status: ('A' for Active; 'I' for Inactive)
REMARK    1  A    between atoms: C_1  and  C_2
REMARK    2  A    between atoms: C_2  and  C_3
REMARK    3  A    between atoms: C_2  and  C_4
REMARK    4  A    between atoms: C_4  and  N_5
REMARK    5  A    between atoms: N_5  and  N_6
REMARK    6  A    between atoms: N_5  and  C_20
REMARK    7  A    between atoms: C_7  and  C_9
REMARK    8  A    between atoms: C_11  and  C_12
REMARK    9  A    between atoms: C_22  and  C_23
REMARK                            x       y       z     vdW  Elec       q    Type
REMARK                         _______ _______ _______ _____ _____    ______ ____
ROOT
ATOM      1  N   UNL     1       3.290   5.525  17.938  0.00  0.00    +0.000 N 
ATOM      2  C   UNL     1       3.181   5.948  19.261  0.00  0.00    +0.000 C 
ATOM      3  O   UNL     1       3.759   5.397  20.194  0.00  0.00    +0.000 OA
ATOM      4  H   UNL     1       2.604   5.826  17.253  0.00  0.00    +0.000 HD
ENDROOT
BRANCH   2   5
ATOM      5  C   UNL     1       2.334   7.104  19.460  0.00  0.00    +0.000 A 
ATOM      6  C   UNL     1       1.601   7.506  20.552  0.00  0.00    +0.000 A 
ATOM      7  C   UNL     1       1.147   8.813  20.244  0.00  0.00    +0.000 A 
ATOM      8  N   UNL     1       1.512   9.144  18.993  0.00  0.00    +0.000 NA
ATOM      9  O   UNL     1       2.238   8.069  18.502  0.00  0.00    +0.000 OA
BRANCH   7  10
ATOM     10  C   UNL     1       0.433   9.732  21.135  0.00  0.00    +0.000 A 
ATOM     11  C   UNL     1      -0.074   9.289  22.366  0.00  0.00    +0.000 A 
ATOM     12  C   UNL     1      -0.810  10.152  23.184  0.00  0.00    +0.000 A 
ATOM     13  C   UNL     1      -1.040  11.468  22.785  0.00  0.00    +0.000 A 
ATOM     14  C   UNL     1      -0.542  11.920  21.566  0.00  0.00    +0.000 A 
ATOM     15  C   UNL     1       0.188  11.056  20.744  0.00  0.00    +0.000 A 
ENDBRANCH   7  10
ENDBRANCH   2   5
BRANCH   1  16
ATOM     16  N   UNL     1       4.036   4.327  17.625  0.00  0.00    +0.000 N 
BRANCH  16  17
ATOM     17  C   UNL     1       5.184   4.603  16.824  0.00  0.00    +0.000 A 
ATOM     18  N   UNL     1       5.100   4.224  15.517  0.00  0.00    +0.000 NA
ATOM     19  C   UNL     1       6.172   4.376  14.717  0.00  0.00    +0.000 A 
ATOM     20  N   UNL     1       7.322   4.964  15.060  0.00  0.00    +0.000 NA
ATOM     21  C   UNL     1       7.393   5.347  16.344  0.00  0.00    +0.000 A 
ATOM     22  C   UNL     1       6.387   5.159  17.285  0.00  0.00    +0.000 A 
ATOM     23 BR   UNL     1       6.900   5.597  19.056  0.00  0.00    +0.000 Br
BRANCH  19  24
ATOM     24  C   UNL     1       6.088   3.833  13.388  0.00  0.00    +0.000 C 
ATOM     25  N   UNL     1       6.017   3.383  12.319  0.00  0.00    +0.000 NA
ENDBRANCH  19  24
ENDBRANCH  16  17
BRANCH  16  26
ATOM     26  C   UNL     1       4.193   3.447  18.797  0.00  0.00    +0.000 C 
BRANCH  26  28
ATOM     27  C   UNL     1       2.140   2.401  19.909  0.00  0.00    +0.000 C 
ATOM     28  C   UNL     1       3.224   2.247  18.838  0.00  0.00    +0.000 C 
ATOM     29  C   UNL     1       2.550   2.129  17.462  0.00  0.00    +0.000 C 
ENDBRANCH  26  28
ENDBRANCH  16  26
ENDBRANCH   1  16
TORSDOF 7
ENDMDL
MODEL 6
REMARK VINA RESULT:      -7.2      4.089      9.411
REMARK  Name = 
REMARK  9 active torsions:
REMARK  status: ('A' for Active; 'I' for Inactive)
REMARK    1  A    between atoms: C_1  and  C_2
REMARK    2  A    between atoms: C_2  and  C_3
REMARK    3  A    between atoms: C_2  and  C_4
REMARK    4  A    between atoms: C_4  and  N_5
REMARK    5  A    between atoms: N_5  and  N_6
REMARK    6  A    between atoms: N_5  and  C_20
REMARK    7  A    between atoms: C_7  and  C_9
REMARK    8  A    between atoms: C_11  and  C_12
REMARK    9  A    between atoms: C_22  and  C_23
REMARK                            x       y       z     vdW  Elec       q    Type
REMARK                         _______ _______ _______ _____ _____    ______ ____
ROOT
ATOM      1  N   UNL     1      -0.480  10.237  19.363  0.00  0.00    +0.000 N 
ATOM      2  C   UNL     1       0.863  10.280  18.998  0.00  0.00    +0.000 C 
ATOM      3  O   UNL     1       1.475  11.326  18.801  0.00  0.00    +0.000 OA
ATOM      4  H   UNL     1      -1.007   9.377  19.253  0.00  0.00    +0.000 HD
ENDROOT
BRANCH   2   5
ATOM      5  C   UNL     1       1.499   8.986  18.875  0.00  0.00    +0.000 A 
ATOM      6  C   UNL     1       2.101   8.378  17.797  0.00  0.00    +0.000 A 
ATOM      7  C   UNL     1       2.729   7.218  18.319  0.00  0.00    +0.000 A 
ATOM      8  N   UNL     1       2.442   7.088  19.626  0.00  0.00    +0.000 NA
ATOM      9  O   UNL     1       1.661   8.183  19.964  0.00  0.00    +0.000 OA
BRANCH   7  10
ATOM     10  C   UNL     1       3.614   6.296  17.602  0.00  0.00    +0.000 A 
ATOM     11  C   UNL     1       4.647   6.781  16.786  0.00  0.00    +0.000 A 
ATOM     12  C   UNL     1       5.448   5.899  16.053  0.00  0.00    +0.000 A 
ATOM     13  C   UNL     1       5.231   4.525  16.135  0.00  0.00    +0.000 A 
ATOM     14  C   UNL     1       4.210   4.030  16.942  0.00  0.00    +0.000 A 
ATOM     15  C   UNL     1       3.404   4.911  17.669  0.00  0.00    +0.000 A 
ENDBRANCH   7  10
ENDBRANCH   2   5
BRANCH   1  16
ATOM     16  N   UNL     1      -1.247  11.461  19.431  0.00  0.00    +0.000 N 
BRANCH  16  17
ATOM     17  C   UNL     1      -2.406  11.416  18.600  0.00  0.00    +0.000 A 
ATOM     18  N   UNL     1      -2.226  10.876  17.360  0.00  0.00    +0.000 NA
ATOM     19  C   UNL     1      -3.252  10.872  16.488  0.00  0.00    +0.000 A 
ATOM     20  N   UNL     1      -4.499  11.275  16.752  0.00  0.00    +0.000 NA
ATOM     21  C   UNL     1      -4.672  11.792  17.978  0.00  0.00    +0.000 A 
ATOM     22  C   UNL     1      -3.668  11.933  18.929  0.00  0.00    +0.000 A 
ATOM     23 BR   UNL     1      -4.194  12.916  20.461  0.00  0.00    +0.000 Br
BRANCH  19  24
ATOM     24  C   UNL     1      -2.979  10.426  15.149  0.00  0.00    +0.000 C 
ATOM     25  N   UNL     1      -2.771  10.068  14.063  0.00  0.00    +0.000 NA
ENDBRANCH  19  24
ENDBRANCH  16  17
BRANCH  16  26
ATOM     26  C   UNL     1      -1.394  11.950  20.814  0.00  0.00    +0.000 C 
BRANCH  26  28
ATOM     27  C   UNL     1      -0.493  14.273  20.233  0.00  0.00    +0.000 C 
ATOM     28  C   UNL     1      -0.428  13.088  21.202  0.00  0.00    +0.000 C 
ATOM     29  C   UNL     1      -0.803  13.576  22.609  0.00  0.00    +0.000 C 
ENDBRANCH  26  28
ENDBRANCH  16  26
ENDBRANCH   1  16
TORSDOF 7
ENDMDL
MODEL 7
REMARK VINA RESULT:      -7.1      2.650      7.927
REMARK  Name = 
REMARK  9 active torsions:
REMARK  status: ('A' for Active; 'I' for Inactive)
REMARK    1  A    between atoms: C_1  and  C_2
REMARK    2  A    between atoms: C_2  and  C_3
REMARK    3  A    between atoms: C_2  and  C_4
REMARK    4  A    between atoms: C_4  and  N_5
REMARK    5  A    between atoms: N_5  and  N_6
REMARK    6  A    between atoms: N_5  and  C_20
REMARK    7  A    between atoms: C_7  and  C_9
REMARK    8  A    between atoms: C_11  and  C_12
REMARK    9  A    between atoms: C_22  and  C_23
REMARK                            x       y       z     vdW  Elec       q    Type
REMARK                         _______ _______ _______ _____ _____    ______ ____
ROOT
ATOM      1  N   UNL     1       3.374   5.287  18.806  0.00  0.00    +0.000 N 
ATOM      2  C   UNL     1       4.694   4.952  19.096  0.00  0.00    +0.000 C 
ATOM      3  O   UNL     1       5.129   4.853  20.240  0.00  0.00    +0.000 OA
ATOM      4  H   UNL     1       3.128   5.617  17.878  0.00  0.00    +0.000 HD
ENDROOT
BRANCH   2   5
ATOM      5  C   UNL     1       5.528   4.715  17.937  0.00  0.00    +0.000 A 
ATOM      6  C   UNL     1       5.197   4.481  16.623  0.00  0.00    +0.000 A 
ATOM      7  C   UNL     1       6.421   4.535  15.908  0.00  0.00    +0.000 A 
ATOM      8  N   UNL     1       7.446   4.702  16.762  0.00  0.00    +0.000 NA
ATOM      9  O   UNL     1       6.886   4.797  18.028  0.00  0.00    +0.000 OA
BRANCH   7  10
ATOM     10  C   UNL     1       6.597   4.480  14.455  0.00  0.00    +0.000 A 
ATOM     11  C   UNL     1       5.857   3.578  13.676  0.00  0.00    +0.000 A 
ATOM     12  C   UNL     1       6.075   3.483  12.297  0.00  0.00    +0.000 A 
ATOM     13  C   UNL     1       7.026   4.295  11.682  0.00  0.00    +0.000 A 
ATOM     14  C   UNL     1       7.767   5.196  12.443  0.00  0.00    +0.000 A 
ATOM     15  C   UNL     1       7.555   5.286  13.822  0.00  0.00    +0.000 A 
ENDBRANCH   7  10
ENDBRANCH   2   5
BRANCH   1  16
ATOM     16  N   UNL     1       2.468   5.634  19.878  0.00  0.00    +0.000 N 
BRANCH  16  17
ATOM     17  C   UNL     1       2.084   7.007  19.832  0.00  0.00    +0.000 A 
ATOM     18  N   UNL     1       1.387   7.464  20.912  0.00  0.00    +0.000 NA
ATOM     19  C   UNL     1       0.918   8.726  20.907  0.00  0.00    +0.000 A 
ATOM     20  N   UNL     1       1.151   9.639  19.959  0.00  0.00    +0.000 NA
ATOM     21  C   UNL     1       1.849   9.187  18.907  0.00  0.00    +0.000 A 
ATOM     22  C   UNL     1       2.304   7.882  18.758  0.00  0.00    +0.000 A 
ATOM     23 BR   UNL     1       3.045   7.518  17.052  0.00  0.00    +0.000 Br
BRANCH  19  24
ATOM     24  C   UNL     1       0.069   9.120  21.998  0.00  0.00    +0.000 C 
ATOM     25  N   UNL     1      -0.607   9.437  22.889  0.00  0.00    +0.000 NA
ENDBRANCH  19  24
ENDBRANCH  16  17
BRANCH  16  26
ATOM     26  C   UNL     1       1.418   4.618  20.069  0.00  0.00    +0.000 C 
BRANCH  26  28
ATOM     27  C   UNL     1       1.959   2.668  21.635  0.00  0.00    +0.000 C 
ATOM     28  C   UNL     1       1.936   3.169  20.187  0.00  0.00    +0.000 C 
ATOM     29  C   UNL     1       1.011   2.261  19.362  0.00  0.00    +0.000 C 
ENDBRANCH  26  28
ENDBRANCH  16  26
ENDBRANCH   1  16
TORSDOF 7
ENDMDL
MODEL 8
REMARK VINA RESULT:      -7.1      4.249      9.345
REMARK  Name = 
REMARK  9 active torsions:
REMARK  status: ('A' for Active; 'I' for Inactive)
REMARK    1  A    between atoms: C_1  and  C_2
REMARK    2  A    between atoms: C_2  and  C_3
REMARK    3  A    between atoms: C_2  and  C_4
REMARK    4  A    between atoms: C_4  and  N_5
REMARK    5  A    between atoms: N_5  and  N_6
REMARK    6  A    between atoms: N_5  and  C_20
REMARK    7  A    between atoms: C_7  and  C_9
REMARK    8  A    between atoms: C_11  and  C_12
REMARK    9  A    between atoms: C_22  and  C_23
REMARK                            x       y       z     vdW  Elec       q    Type
REMARK                         _______ _______ _______ _____ _____    ______ ____
ROOT
ATOM      1  N   UNL     1      -0.737  10.380  19.324  0.00  0.00    +0.000 N 
ATOM      2  C   UNL     1       0.594  10.446  18.919  0.00  0.00    +0.000 C 
ATOM      3  O   UNL     1       1.158  11.497  18.626  0.00  0.00    +0.000 OA
ATOM      4  H   UNL     1      -1.232   9.494  19.295  0.00  0.00    +0.000 HD
ENDROOT
BRANCH   2   5
ATOM      5  C   UNL     1       1.278   9.171  18.875  0.00  0.00    +0.000 A 
ATOM      6  C   UNL     1       1.851   8.493  17.824  0.00  0.00    +0.000 A 
ATOM      7  C   UNL     1       2.553   7.410  18.411  0.00  0.00    +0.000 A 
ATOM      8  N   UNL     1       2.338   7.386  19.738  0.00  0.00    +0.000 NA
ATOM      9  O   UNL     1       1.528   8.477  20.021  0.00  0.00    +0.000 OA
BRANCH   7  10
ATOM     10  C   UNL     1       3.440   6.462  17.731  0.00  0.00    +0.000 A 
ATOM     11  C   UNL     1       3.203   5.081  17.801  0.00  0.00    +0.000 A 
ATOM     12  C   UNL     1       4.088   4.176  17.204  0.00  0.00    +0.000 A 
ATOM     13  C   UNL     1       5.213   4.642  16.525  0.00  0.00    +0.000 A 
ATOM     14  C   UNL     1       5.458   6.011  16.447  0.00  0.00    +0.000 A 
ATOM     15  C   UNL     1       4.579   6.915  17.049  0.00  0.00    +0.000 A 
ENDBRANCH   7  10
ENDBRANCH   2   5
BRANCH   1  16
ATOM     16  N   UNL     1      -1.550  11.576  19.321  0.00  0.00    +0.000 N 
BRANCH  16  17
ATOM     17  C   UNL     1      -2.664  11.465  18.437  0.00  0.00    +0.000 A 
ATOM     18  N   UNL     1      -2.403  10.910  17.219  0.00  0.00    +0.000 NA
ATOM     19  C   UNL     1      -3.384  10.846  16.300  0.00  0.00    +0.000 A 
ATOM     20  N   UNL     1      -4.658  11.200  16.496  0.00  0.00    +0.000 NA
ATOM     21  C   UNL     1      -4.912  11.731  17.701  0.00  0.00    +0.000 A 
ATOM     22  C   UNL     1      -3.962  11.933  18.695  0.00  0.00    +0.000 A 
ATOM     23 BR   UNL     1      -4.602  12.921  20.181  0.00  0.00    +0.000 Br
BRANCH  19  24
ATOM     24  C   UNL     1      -3.029  10.387  14.985  0.00  0.00    +0.000 C 
ATOM     25  N   UNL     1      -2.744  10.028  13.917  0.00  0.00    +0.000 NA
ENDBRANCH  19  24
ENDBRANCH  16  17
BRANCH  16  26
ATOM     26  C   UNL     1      -1.783  12.094  20.682  0.00  0.00    +0.000 C 
BRANCH  26  28
ATOM     27  C   UNL     1       0.206  13.245  21.808  0.00  0.00    +0.000 C 
ATOM     28  C   UNL     1      -0.585  11.943  21.642  0.00  0.00    +0.000 C 
ATOM     29  C   UNL     1      -1.123  11.511  23.015  0.00  0.00    +0.000 C 
ENDBRANCH  26  28
ENDBRANCH  16  26
ENDBRANCH   1  16
TORSDOF 7
ENDMDL
MODEL 9
REMARK VINA RESULT:      -7.0      4.792      6.943
REMARK  Name = 
REMARK  9 active torsions:
REMARK  status: ('A' for Active; 'I' for Inactive)
REMARK    1  A    between atoms: C_1  and  C_2
REMARK    2  A    between atoms: C_2  and  C_3
REMARK    3  A    between atoms: C_2  and  C_4
REMARK    4  A    between atoms: C_4  and  N_5
REMARK    5  A    between atoms: N_5  and  N_6
REMARK    6  A    between atoms: N_5  and  C_20
REMARK    7  A    between atoms: C_7  and  C_9
REMARK    8  A    between atoms: C_11  and  C_12
REMARK    9  A    between atoms: C_22  and  C_23
REMARK                            x       y       z     vdW  Elec       q    Type
REMARK                         _______ _______ _______ _____ _____    ______ ____
ROOT
ATOM      1  N   UNL     1       6.422   7.573  17.032  0.00  0.00    +0.000 N 
ATOM      2  C   UNL     1       7.502   7.427  17.898  0.00  0.00    +0.000 C 
ATOM      3  O   UNL     1       7.813   6.357  18.415  0.00  0.00    +0.000 OA
ATOM      4  H   UNL     1       6.043   8.496  16.847  0.00  0.00    +0.000 HD
ENDROOT
BRANCH   2   5
ATOM      5  C   UNL     1       8.251   8.641  18.143  0.00  0.00    +0.000 A 
ATOM      6  C   UNL     1       8.220   9.861  17.509  0.00  0.00    +0.000 A 
ATOM      7  C   UNL     1       9.008  10.726  18.311  0.00  0.00    +0.000 A 
ATOM      8  N   UNL     1       9.558  10.037  19.326  0.00  0.00    +0.000 NA
ATOM      9  O   UNL     1       9.097   8.734  19.208  0.00  0.00    +0.000 OA
BRANCH   7  10
ATOM     10  C   UNL     1       9.186  12.170  18.140  0.00  0.00    +0.000 A 
ATOM     11  C   UNL     1       8.080  13.013  17.957  0.00  0.00    +0.000 A 
ATOM     12  C   UNL     1       8.257  14.382  17.730  0.00  0.00    +0.000 A 
ATOM     13  C   UNL     1       9.541  14.923  17.691  0.00  0.00    +0.000 A 
ATOM     14  C   UNL     1      10.648  14.098  17.872  0.00  0.00    +0.000 A 
ATOM     15  C   UNL     1      10.472  12.728  18.092  0.00  0.00    +0.000 A 
ENDBRANCH   7  10
ENDBRANCH   2   5
BRANCH   1  16
ATOM     16  N   UNL     1       5.545   6.452  16.780  0.00  0.00    +0.000 N 
BRANCH  16  17
ATOM     17  C   UNL     1       4.382   6.483  17.607  0.00  0.00    +0.000 A 
ATOM     18  N   UNL     1       3.585   7.580  17.467  0.00  0.00    +0.000 NA
ATOM     19  C   UNL     1       2.513   7.723  18.270  0.00  0.00    +0.000 A 
ATOM     20  N   UNL     1       2.083   6.823  19.160  0.00  0.00    +0.000 NA
ATOM     21  C   UNL     1       2.865   5.739  19.282  0.00  0.00    +0.000 A 
ATOM     22  C   UNL     1       4.042   5.527  18.575  0.00  0.00    +0.000 A 
ATOM     23 BR   UNL     1       5.025   4.014  19.158  0.00  0.00    +0.000 Br
BRANCH  19  24
ATOM     24  C   UNL     1       1.785   8.959  18.187  0.00  0.00    +0.000 C 
ATOM     25  N   UNL     1       1.195   9.957  18.106  0.00  0.00    +0.000 NA
ENDBRANCH  19  24
ENDBRANCH  16  17
BRANCH  16  26
ATOM     26  C   UNL     1       5.374   6.191  15.339  0.00  0.00    +0.000 C 
BRANCH  26  28
ATOM     27  C   UNL     1       7.082   5.040  13.821  0.00  0.00    +0.000 C 
ATOM     28  C   UNL     1       5.964   4.852  14.852  0.00  0.00    +0.000 C 
ATOM     29  C   UNL     1       6.532   4.107  16.069  0.00  0.00    +0.000 C 
ENDBRANCH  26  28
ENDBRANCH  16  26
ENDBRANCH   1  16
TORSDOF 7
ENDMDL
