MODEL 1
REMARK VINA RESULT:      -7.9      0.000      0.000
REMARK  Name = 
REMARK  3 active torsions:
REMARK  status: ('A' for Active; 'I' for Inactive)
REMARK    1  A    between atoms: N_5  and  S_6
REMARK    2  A    between atoms: S_6  and  C_7
REMARK    3  A    between atoms: C_12  and  N_13
REMARK                            x       y       z     vdW  Elec       q    Type
REMARK                         _______ _______ _______ _____ _____    ______ ____
ROOT
ATOM      1  O   UNL     1       1.535   3.206  21.449  0.00  0.00    +0.000 OA
ATOM      2  C   UNL     1       2.083   3.711  20.493  0.00  0.00    +0.000 C 
ATOM      3  C   UNL     1       2.928   2.998  19.406  0.00  0.00    +0.000 C 
ATOM      4  O   UNL     1       3.167   1.807  19.399  0.00  0.00    +0.000 OA
ATOM      5  N   UNL     1       3.289   4.009  18.513  0.00  0.00    +0.000 N 
ATOM      6  C   UNL     1       2.819   5.257  18.960  0.00  0.00    +0.000 A 
ATOM      7  C   UNL     1       3.013   6.505  18.400  0.00  0.00    +0.000 A 
ATOM      8  C   UNL     1       2.431   7.611  19.025  0.00  0.00    +0.000 A 
ATOM      9  C   UNL     1       1.676   7.462  20.202  0.00  0.00    +0.000 A 
ATOM     10  C   UNL     1       1.493   6.203  20.775  0.00  0.00    +0.000 A 
ATOM     11  C   UNL     1       2.074   5.127  20.130  0.00  0.00    +0.000 A 
ENDROOT
BRANCH   5  12
ATOM     12  S   UNL     1       4.309   3.807  17.178  0.00  0.00    +0.000 S 
BRANCH  12  13
ATOM     13  C   UNL     1       5.699   4.848  17.625  0.00  0.00    +0.000 A 
ATOM     14  C   UNL     1       6.147   4.777  18.953  0.00  0.00    +0.000 A 
ATOM     15  C   UNL     1       7.200   5.573  19.416  0.00  0.00    +0.000 A 
ATOM     16  C   UNL     1       7.831   6.472  18.562  0.00  0.00    +0.000 A 
ATOM     17  C   UNL     1       7.393   6.595  17.247  0.00  0.00    +0.000 A 
ATOM     18  C   UNL     1       6.326   5.795  16.793  0.00  0.00    +0.000 A 
BRANCH  18  19
ATOM     19  N   UNL     1       5.894   6.028  15.427  0.00  0.00    +0.000 N 
ATOM     20  O   UNL     1       6.468   5.401  14.529  0.00  0.00    +0.000 OA
ATOM     21  O   UNL     1       5.029   6.898  15.253  0.00  0.00    +0.000 OA
ENDBRANCH  18  19
ENDBRANCH  12  13
ENDBRANCH   5  12
TORSDOF 3
ENDMDL
MODEL 2
REMARK VINA RESULT:      -7.7      2.495      3.426
REMARK  Name = 
REMARK  3 active torsions:
REMARK  status: ('A' for Active; 'I' for Inactive)
REMARK    1  A    between atoms: N_5  and  S_6
REMARK    2  A    between atoms: S_6  and  C_7
REMARK    3  A    between atoms: C_12  and  N_13
REMARK                            x       y       z     vdW  Elec       q    Type
REMARK                         _______ _______ _______ _____ _____    ______ ____
ROOT
ATOM      1  O   UNL     1       4.853   1.949  20.576  0.00  0.00    +0.000 OA
ATOM      2  C   UNL     1       4.363   2.769  19.830  0.00  0.00    +0.000 C 
ATOM      3  C   UNL     1       5.064   3.991  19.182  0.00  0.00    +0.000 C 
ATOM      4  O   UNL     1       6.224   4.293  19.373  0.00  0.00    +0.000 OA
ATOM      5  N   UNL     1       4.084   4.581  18.381  0.00  0.00    +0.000 N 
ATOM      6  C   UNL     1       2.859   3.902  18.513  0.00  0.00    +0.000 A 
ATOM      7  C   UNL     1       1.638   4.203  17.941  0.00  0.00    +0.000 A 
ATOM      8  C   UNL     1       0.553   3.364  18.213  0.00  0.00    +0.000 A 
ATOM      9  C   UNL     1       0.695   2.250  19.058  0.00  0.00    +0.000 A 
ATOM     10  C   UNL     1       1.926   1.956  19.648  0.00  0.00    +0.000 A 
ATOM     11  C   UNL     1       2.981   2.798  19.354  0.00  0.00    +0.000 A 
ENDROOT
BRANCH   5  12
ATOM     12  S   UNL     1       4.277   6.022  17.515  0.00  0.00    +0.000 S 
BRANCH  12  13
ATOM     13  C   UNL     1       5.358   5.501  16.182  0.00  0.00    +0.000 A 
ATOM     14  C   UNL     1       4.816   4.629  15.225  0.00  0.00    +0.000 A 
ATOM     15  C   UNL     1       5.583   4.133  14.166  0.00  0.00    +0.000 A 
ATOM     16  C   UNL     1       6.922   4.489  14.039  0.00  0.00    +0.000 A 
ATOM     17  C   UNL     1       7.503   5.325  14.987  0.00  0.00    +0.000 A 
ATOM     18  C   UNL     1       6.725   5.812  16.055  0.00  0.00    +0.000 A 
BRANCH  18  19
ATOM     19  N   UNL     1       7.424   6.629  17.030  0.00  0.00    +0.000 N 
ATOM     20  O   UNL     1       8.001   6.047  17.957  0.00  0.00    +0.000 OA
ATOM     21  O   UNL     1       7.330   7.857  16.905  0.00  0.00    +0.000 OA
ENDBRANCH  18  19
ENDBRANCH  12  13
ENDBRANCH   5  12
TORSDOF 3
ENDMDL
MODEL 3
REMARK VINA RESULT:      -7.5      2.070      5.852
REMARK  Name = 
REMARK  3 active torsions:
REMARK  status: ('A' for Active; 'I' for Inactive)
REMARK    1  A    between atoms: N_5  and  S_6
REMARK    2  A    between atoms: S_6  and  C_7
REMARK    3  A    between atoms: C_12  and  N_13
REMARK                            x       y       z     vdW  Elec       q    Type
REMARK                         _______ _______ _______ _____ _____    ______ ____
ROOT
ATOM      1  O   UNL     1       8.043   4.750  18.409  0.00  0.00    +0.000 OA
ATOM      2  C   UNL     1       6.956   4.582  17.899  0.00  0.00    +0.000 C 
ATOM      3  C   UNL     1       5.607   4.322  18.617  0.00  0.00    +0.000 C 
ATOM      4  O   UNL     1       5.481   4.230  19.821  0.00  0.00    +0.000 OA
ATOM      5  N   UNL     1       4.664   4.245  17.590  0.00  0.00    +0.000 N 
ATOM      6  C   UNL     1       5.287   4.365  16.334  0.00  0.00    +0.000 A 
ATOM      7  C   UNL     1       4.720   4.282  15.077  0.00  0.00    +0.000 A 
ATOM      8  C   UNL     1       5.549   4.448  13.963  0.00  0.00    +0.000 A 
ATOM      9  C   UNL     1       6.927   4.679  14.115  0.00  0.00    +0.000 A 
ATOM     10  C   UNL     1       7.501   4.748  15.386  0.00  0.00    +0.000 A 
ATOM     11  C   UNL     1       6.655   4.588  16.468  0.00  0.00    +0.000 A 
ENDROOT
BRANCH   5  12
ATOM     12  S   UNL     1       3.027   3.872  17.801  0.00  0.00    +0.000 S 
BRANCH  12  13
ATOM     13  C   UNL     1       2.463   5.263  18.782  0.00  0.00    +0.000 A 
ATOM     14  C   UNL     1       2.704   6.546  18.267  0.00  0.00    +0.000 A 
ATOM     15  C   UNL     1       2.338   7.699  18.968  0.00  0.00    +0.000 A 
ATOM     16  C   UNL     1       1.726   7.602  20.214  0.00  0.00    +0.000 A 
ATOM     17  C   UNL     1       1.502   6.348  20.773  0.00  0.00    +0.000 A 
ATOM     18  C   UNL     1       1.882   5.193  20.062  0.00  0.00    +0.000 A 
BRANCH  18  19
ATOM     19  N   UNL     1       1.666   3.928  20.743  0.00  0.00    +0.000 N 
ATOM     20  O   UNL     1       0.797   3.174  20.288  0.00  0.00    +0.000 OA
ATOM     21  O   UNL     1       2.317   3.729  21.777  0.00  0.00    +0.000 OA
ENDBRANCH  18  19
ENDBRANCH  12  13
ENDBRANCH   5  12
TORSDOF 3
ENDMDL
MODEL 4
REMARK VINA RESULT:      -7.5      2.249      5.101
REMARK  Name = 
REMARK  3 active torsions:
REMARK  status: ('A' for Active; 'I' for Inactive)
REMARK    1  A    between atoms: N_5  and  S_6
REMARK    2  A    between atoms: S_6  and  C_7
REMARK    3  A    between atoms: C_12  and  N_13
REMARK                            x       y       z     vdW  Elec       q    Type
REMARK                         _______ _______ _______ _____ _____    ______ ____
ROOT
ATOM      1  O   UNL     1       6.490   6.047  15.966  0.00  0.00    +0.000 OA
ATOM      2  C   UNL     1       5.496   5.511  16.406  0.00  0.00    +0.000 C 
ATOM      3  C   UNL     1       5.150   4.000  16.381  0.00  0.00    +0.000 C 
ATOM      4  O   UNL     1       5.852   3.147  15.877  0.00  0.00    +0.000 OA
ATOM      5  N   UNL     1       3.928   3.902  17.051  0.00  0.00    +0.000 N 
ATOM      6  C   UNL     1       3.462   5.175  17.423  0.00  0.00    +0.000 A 
ATOM      7  C   UNL     1       2.276   5.514  18.045  0.00  0.00    +0.000 A 
ATOM      8  C   UNL     1       2.036   6.862  18.328  0.00  0.00    +0.000 A 
ATOM      9  C   UNL     1       2.971   7.852  17.978  0.00  0.00    +0.000 A 
ATOM     10  C   UNL     1       4.164   7.510  17.337  0.00  0.00    +0.000 A 
ATOM     11  C   UNL     1       4.376   6.169  17.077  0.00  0.00    +0.000 A 
ENDROOT
BRANCH   5  12
ATOM     12  S   UNL     1       3.031   2.478  17.229  0.00  0.00    +0.000 S 
BRANCH  12  13
ATOM     13  C   UNL     1       2.489   2.604  18.934  0.00  0.00    +0.000 A 
ATOM     14  C   UNL     1       1.124   2.850  19.152  0.00  0.00    +0.000 A 
ATOM     15  C   UNL     1       0.603   3.002  20.441  0.00  0.00    +0.000 A 
ATOM     16  C   UNL     1       1.437   2.922  21.552  0.00  0.00    +0.000 A 
ATOM     17  C   UNL     1       2.801   2.714  21.374  0.00  0.00    +0.000 A 
ATOM     18  C   UNL     1       3.317   2.571  20.071  0.00  0.00    +0.000 A 
BRANCH  18  19
ATOM     19  N   UNL     1       4.757   2.416  19.972  0.00  0.00    +0.000 N 
ATOM     20  O   UNL     1       5.228   1.291  20.176  0.00  0.00    +0.000 OA
ATOM     21  O   UNL     1       5.419   3.442  19.765  0.00  0.00    +0.000 OA
ENDBRANCH  18  19
ENDBRANCH  12  13
ENDBRANCH   5  12
TORSDOF 3
ENDMDL
MODEL 5
REMARK VINA RESULT:      -7.3      2.457      5.557
REMARK  Name = 
REMARK  3 active torsions:
REMARK  status: ('A' for Active; 'I' for Inactive)
REMARK    1  A    between atoms: N_5  and  S_6
REMARK    2  A    between atoms: S_6  and  C_7
REMARK    3  A    between atoms: C_12  and  N_13
REMARK                            x       y       z     vdW  Elec       q    Type
REMARK                         _______ _______ _______ _____ _____    ______ ____
ROOT
ATOM      1  O   UNL     1       8.133   4.547  18.533  0.00  0.00    +0.000 OA
ATOM      2  C   UNL     1       7.037   4.789  18.075  0.00  0.00    +0.000 C 
ATOM      3  C   UNL     1       5.786   5.293  18.841  0.00  0.00    +0.000 C 
ATOM      4  O   UNL     1       5.752   5.491  20.039  0.00  0.00    +0.000 OA
ATOM      5  N   UNL     1       4.807   5.456  17.858  0.00  0.00    +0.000 N 
ATOM      6  C   UNL     1       5.293   5.053  16.602  0.00  0.00    +0.000 A 
ATOM      7  C   UNL     1       4.626   5.001  15.393  0.00  0.00    +0.000 A 
ATOM      8  C   UNL     1       5.330   4.572  14.264  0.00  0.00    +0.000 A 
ATOM      9  C   UNL     1       6.680   4.190  14.355  0.00  0.00    +0.000 A 
ATOM     10  C   UNL     1       7.349   4.229  15.580  0.00  0.00    +0.000 A 
ATOM     11  C   UNL     1       6.629   4.664  16.677  0.00  0.00    +0.000 A 
ENDROOT
BRANCH   5  12
ATOM     12  S   UNL     1       3.199   5.896  18.153  0.00  0.00    +0.000 S 
BRANCH  12  13
ATOM     13  C   UNL     1       2.670   4.598  19.272  0.00  0.00    +0.000 A 
ATOM     14  C   UNL     1       2.448   4.961  20.610  0.00  0.00    +0.000 A 
ATOM     15  C   UNL     1       2.068   4.021  21.572  0.00  0.00    +0.000 A 
ATOM     16  C   UNL     1       1.909   2.682  21.225  0.00  0.00    +0.000 A 
ATOM     17  C   UNL     1       2.153   2.279  19.916  0.00  0.00    +0.000 A 
ATOM     18  C   UNL     1       2.543   3.232  18.956  0.00  0.00    +0.000 A 
BRANCH  18  19
ATOM     19  N   UNL     1       2.835   2.717  17.631  0.00  0.00    +0.000 N 
ATOM     20  O   UNL     1       2.037   2.983  16.724  0.00  0.00    +0.000 OA
ATOM     21  O   UNL     1       3.826   1.982  17.520  0.00  0.00    +0.000 OA
ENDBRANCH  18  19
ENDBRANCH  12  13
ENDBRANCH   5  12
TORSDOF 3
ENDMDL
MODEL 6
REMARK VINA RESULT:      -7.1      2.582      5.589
REMARK  Name = 
REMARK  3 active torsions:
REMARK  status: ('A' for Active; 'I' for Inactive)
REMARK    1  A    between atoms: N_5  and  S_6
REMARK    2  A    between atoms: S_6  and  C_7
REMARK    3  A    between atoms: C_12  and  N_13
REMARK                            x       y       z     vdW  Elec       q    Type
REMARK                         _______ _______ _______ _____ _____    ______ ____
ROOT
ATOM      1  O   UNL     1       3.925   7.769  17.751  0.00  0.00    +0.000 OA
ATOM      2  C   UNL     1       3.989   6.591  17.474  0.00  0.00    +0.000 C 
ATOM      3  C   UNL     1       2.941   5.491  17.784  0.00  0.00    +0.000 C 
ATOM      4  O   UNL     1       1.904   5.686  18.384  0.00  0.00    +0.000 OA
ATOM      5  N   UNL     1       3.468   4.327  17.219  0.00  0.00    +0.000 N 
ATOM      6  C   UNL     1       4.734   4.575  16.660  0.00  0.00    +0.000 A 
ATOM      7  C   UNL     1       5.606   3.684  16.064  0.00  0.00    +0.000 A 
ATOM      8  C   UNL     1       6.817   4.172  15.566  0.00  0.00    +0.000 A 
ATOM      9  C   UNL     1       7.149   5.534  15.679  0.00  0.00    +0.000 A 
ATOM     10  C   UNL     1       6.274   6.431  16.294  0.00  0.00    +0.000 A 
ATOM     11  C   UNL     1       5.081   5.920  16.770  0.00  0.00    +0.000 A 
ENDROOT
BRANCH   5  12
ATOM     12  S   UNL     1       2.776   2.787  17.348  0.00  0.00    +0.000 S 
BRANCH  12  13
ATOM     13  C   UNL     1       2.336   2.734  19.086  0.00  0.00    +0.000 A 
ATOM     14  C   UNL     1       0.984   2.934  19.407  0.00  0.00    +0.000 A 
ATOM     15  C   UNL     1       0.540   2.948  20.733  0.00  0.00    +0.000 A 
ATOM     16  C   UNL     1       1.440   2.771  21.780  0.00  0.00    +0.000 A 
ATOM     17  C   UNL     1       2.792   2.604  21.501  0.00  0.00    +0.000 A 
ATOM     18  C   UNL     1       3.231   2.600  20.163  0.00  0.00    +0.000 A 
BRANCH  18  19
ATOM     19  N   UNL     1       4.665   2.479  19.965  0.00  0.00    +0.000 N 
ATOM     20  O   UNL     1       5.304   3.517  19.753  0.00  0.00    +0.000 OA
ATOM     21  O   UNL     1       5.134   1.333  19.948  0.00  0.00    +0.000 OA
ENDBRANCH  18  19
ENDBRANCH  12  13
ENDBRANCH   5  12
TORSDOF 3
ENDMDL
MODEL 7
REMARK VINA RESULT:      -6.9      2.114      4.867
REMARK  Name = 
REMARK  3 active torsions:
REMARK  status: ('A' for Active; 'I' for Inactive)
REMARK    1  A    between atoms: N_5  and  S_6
REMARK    2  A    between atoms: S_6  and  C_7
REMARK    3  A    between atoms: C_12  and  N_13
REMARK                            x       y       z     vdW  Elec       q    Type
REMARK                         _______ _______ _______ _____ _____    ______ ____
ROOT
ATOM      1  O   UNL     1       5.186   6.850  15.477  0.00  0.00    +0.000 OA
ATOM      2  C   UNL     1       4.864   6.406  16.558  0.00  0.00    +0.000 C 
ATOM      3  C   UNL     1       5.408   5.131  17.253  0.00  0.00    +0.000 C 
ATOM      4  O   UNL     1       6.235   4.387  16.766  0.00  0.00    +0.000 OA
ATOM      5  N   UNL     1       4.753   5.089  18.486  0.00  0.00    +0.000 N 
ATOM      6  C   UNL     1       3.834   6.148  18.596  0.00  0.00    +0.000 A 
ATOM      7  C   UNL     1       2.954   6.425  19.624  0.00  0.00    +0.000 A 
ATOM      8  C   UNL     1       2.137   7.555  19.513  0.00  0.00    +0.000 A 
ATOM      9  C   UNL     1       2.200   8.383  18.379  0.00  0.00    +0.000 A 
ATOM     10  C   UNL     1       3.080   8.094  17.334  0.00  0.00    +0.000 A 
ATOM     11  C   UNL     1       3.879   6.975  17.476  0.00  0.00    +0.000 A 
ENDROOT
BRANCH   5  12
ATOM     12  S   UNL     1       4.896   3.840  19.619  0.00  0.00    +0.000 S 
BRANCH  12  13
ATOM     13  C   UNL     1       3.181   3.374  19.860  0.00  0.00    +0.000 A 
ATOM     14  C   UNL     1       2.672   3.468  21.164  0.00  0.00    +0.000 A 
ATOM     15  C   UNL     1       1.359   3.095  21.468  0.00  0.00    +0.000 A 
ATOM     16  C   UNL     1       0.517   2.606  20.473  0.00  0.00    +0.000 A 
ATOM     17  C   UNL     1       0.997   2.467  19.175  0.00  0.00    +0.000 A 
ATOM     18  C   UNL     1       2.324   2.837  18.881  0.00  0.00    +0.000 A 
BRANCH  18  19
ATOM     19  N   UNL     1       2.761   2.604  17.516  0.00  0.00    +0.000 N 
ATOM     20  O   UNL     1       3.617   1.731  17.330  0.00  0.00    +0.000 OA
ATOM     21  O   UNL     1       2.298   3.351  16.643  0.00  0.00    +0.000 OA
ENDBRANCH  18  19
ENDBRANCH  12  13
ENDBRANCH   5  12
TORSDOF 3
ENDMDL
MODEL 8
REMARK VINA RESULT:      -6.9      2.511      6.038
REMARK  Name = 
REMARK  3 active torsions:
REMARK  status: ('A' for Active; 'I' for Inactive)
REMARK    1  A    between atoms: N_5  and  S_6
REMARK    2  A    between atoms: S_6  and  C_7
REMARK    3  A    between atoms: C_12  and  N_13
REMARK                            x       y       z     vdW  Elec       q    Type
REMARK                         _______ _______ _______ _____ _____    ______ ____
ROOT
ATOM      1  O   UNL     1       8.592   4.225  18.097  0.00  0.00    +0.000 OA
ATOM      2  C   UNL     1       7.493   4.644  17.802  0.00  0.00    +0.000 C 
ATOM      3  C   UNL     1       6.364   5.090  18.766  0.00  0.00    +0.000 C 
ATOM      4  O   UNL     1       6.443   5.046  19.977  0.00  0.00    +0.000 OA
ATOM      5  N   UNL     1       5.333   5.527  17.932  0.00  0.00    +0.000 N 
ATOM      6  C   UNL     1       5.677   5.343  16.580  0.00  0.00    +0.000 A 
ATOM      7  C   UNL     1       4.916   5.590  15.454  0.00  0.00    +0.000 A 
ATOM      8  C   UNL     1       5.483   5.338  14.201  0.00  0.00    +0.000 A 
ATOM      9  C   UNL     1       6.790   4.833  14.088  0.00  0.00    +0.000 A 
ATOM     10  C   UNL     1       7.553   4.570  15.228  0.00  0.00    +0.000 A 
ATOM     11  C   UNL     1       6.968   4.837  16.451  0.00  0.00    +0.000 A 
ENDROOT
BRANCH   5  12
ATOM     12  S   UNL     1       3.806   6.033  18.458  0.00  0.00    +0.000 S 
BRANCH  12  13
ATOM     13  C   UNL     1       2.939   4.470  18.606  0.00  0.00    +0.000 A 
ATOM     14  C   UNL     1       2.953   3.625  17.485  0.00  0.00    +0.000 A 
ATOM     15  C   UNL     1       2.279   2.400  17.481  0.00  0.00    +0.000 A 
ATOM     16  C   UNL     1       1.561   1.987  18.599  0.00  0.00    +0.000 A 
ATOM     17  C   UNL     1       1.496   2.814  19.717  0.00  0.00    +0.000 A 
ATOM     18  C   UNL     1       2.172   4.049  19.708  0.00  0.00    +0.000 A 
BRANCH  18  19
ATOM     19  N   UNL     1       2.003   4.874  20.891  0.00  0.00    +0.000 N 
ATOM     20  O   UNL     1       1.478   5.984  20.746  0.00  0.00    +0.000 OA
ATOM     21  O   UNL     1       2.468   4.435  21.952  0.00  0.00    +0.000 OA
ENDBRANCH  18  19
ENDBRANCH  12  13
ENDBRANCH   5  12
TORSDOF 3
ENDMDL
MODEL 9
REMARK VINA RESULT:      -6.9      2.463      5.563
REMARK  Name = 
REMARK  3 active torsions:
REMARK  status: ('A' for Active; 'I' for Inactive)
REMARK    1  A    between atoms: N_5  and  S_6
REMARK    2  A    between atoms: S_6  and  C_7
REMARK    3  A    between atoms: C_12  and  N_13
REMARK                            x       y       z     vdW  Elec       q    Type
REMARK                         _______ _______ _______ _____ _____    ______ ____
ROOT
ATOM      1  O   UNL     1       7.420   6.114  18.443  0.00  0.00    +0.000 OA
ATOM      2  C   UNL     1       6.699   5.283  17.934  0.00  0.00    +0.000 C 
ATOM      3  C   UNL     1       5.692   4.344  18.647  0.00  0.00    +0.000 C 
ATOM      4  O   UNL     1       5.518   4.316  19.848  0.00  0.00    +0.000 OA
ATOM      5  N   UNL     1       5.087   3.621  17.617  0.00  0.00    +0.000 N 
ATOM      6  C   UNL     1       5.650   3.962  16.374  0.00  0.00    +0.000 A 
ATOM      7  C   UNL     1       5.375   3.435  15.126  0.00  0.00    +0.000 A 
ATOM      8  C   UNL     1       6.060   3.949  14.022  0.00  0.00    +0.000 A 
ATOM      9  C   UNL     1       7.016   4.969  14.175  0.00  0.00    +0.000 A 
ATOM     10  C   UNL     1       7.304   5.491  15.438  0.00  0.00    +0.000 A 
ATOM     11  C   UNL     1       6.604   4.968  16.509  0.00  0.00    +0.000 A 
ENDROOT
BRANCH   5  12
ATOM     12  S   UNL     1       3.969   2.370  17.836  0.00  0.00    +0.000 S 
BRANCH  12  13
ATOM     13  C   UNL     1       3.006   2.985  19.219  0.00  0.00    +0.000 A 
ATOM     14  C   UNL     1       3.115   2.287  20.432  0.00  0.00    +0.000 A 
ATOM     15  C   UNL     1       2.380   2.661  21.562  0.00  0.00    +0.000 A 
ATOM     16  C   UNL     1       1.506   3.743  21.508  0.00  0.00    +0.000 A 
ATOM     17  C   UNL     1       1.347   4.438  20.314  0.00  0.00    +0.000 A 
ATOM     18  C   UNL     1       2.084   4.048  19.179  0.00  0.00    +0.000 A 
BRANCH  18  19
ATOM     19  N   UNL     1       1.814   4.790  17.960  0.00  0.00    +0.000 N 
ATOM     20  O   UNL     1       0.981   4.320  17.176  0.00  0.00    +0.000 OA
ATOM     21  O   UNL     1       2.495   5.804  17.758  0.00  0.00    +0.000 OA
ENDBRANCH  18  19
ENDBRANCH  12  13
ENDBRANCH   5  12
TORSDOF 3
ENDMDL
