MODEL 1
REMARK VINA RESULT:      -7.3      0.000      0.000
REMARK  Name = 
REMARK  7 active torsions:
REMARK  status: ('A' for Active; 'I' for Inactive)
REMARK    1  A    between atoms: C_1  and  N_2
REMARK    2  A    between atoms: N_2  and  S_3
REMARK    3  A    between atoms: S_3  and  C_6
REMARK    4  A    between atoms: C_6  and  C_7
REMARK    5  A    between atoms: C_11  and  C_12
REMARK    6  A    between atoms: C_12  and  N_13
REMARK    7  A    between atoms: N_16  and  C_17
REMARK                            x       y       z     vdW  Elec       q    Type
REMARK                         _______ _______ _______ _____ _____    ______ ____
ROOT
ATOM      1  C   UNL     1       3.399   5.116  18.904  0.00  0.00    +0.000 A 
ATOM      2  C   UNL     1       2.507   6.176  18.695  0.00  0.00    +0.000 A 
ATOM      3  C   UNL     1       2.900   7.300  17.968  0.00  0.00    +0.000 A 
ATOM      4  C   UNL     1       4.191   7.386  17.449  0.00  0.00    +0.000 A 
ATOM      5  C   UNL     1       5.105   6.344  17.650  0.00  0.00    +0.000 A 
ATOM      6  C   UNL     1       4.689   5.205  18.356  0.00  0.00    +0.000 A 
ENDROOT
BRANCH   1   7
ATOM      7  C   UNL     1       2.947   3.881  19.644  0.00  0.00    +0.000 C 
BRANCH   7   8
ATOM      8  S   UNL     1       1.583   3.077  18.784  0.00  0.00    +0.000 S 
ATOM      9  O   UNL     1       1.415   3.661  17.469  0.00  0.00    +0.000 OA
ATOM     10  O   UNL     1       0.452   2.881  19.665  0.00  0.00    +0.000 OA
BRANCH   8  12
ATOM     11  C   UNL     1       3.679   1.404  18.458  0.00  0.00    +0.000 C 
ATOM     12  N   UNL     1       2.216   1.529  18.494  0.00  0.00    +0.000 NA
ATOM     13  H   UNL     1       1.764   0.874  19.139  0.00  0.00    +0.000 HD
ENDBRANCH   8  12
ENDBRANCH   7   8
ENDBRANCH   1   7
BRANCH   5  14
ATOM     14  C   UNL     1       6.520   6.449  17.139  0.00  0.00    +0.000 C 
BRANCH  14  15
ATOM     15  N   UNL     1       6.978   7.816  17.014  0.00  0.00    +0.000 N 
ATOM     16  C   UNL     1       7.963   8.298  17.848  0.00  0.00    +0.000 C 
ATOM     17  O   UNL     1       8.548   7.592  18.660  0.00  0.00    +0.000 OA
ATOM     18  N   UNL     1       8.150   9.654  17.688  0.00  0.00    +0.000 N 
ATOM     19  H   UNL     1       6.897   8.247  16.107  0.00  0.00    +0.000 HD
ATOM     20  H   UNL     1       7.443  10.171  17.193  0.00  0.00    +0.000 HD
BRANCH  18  21
ATOM     21  C   UNL     1       9.079  10.375  18.417  0.00  0.00    +0.000 A 
ATOM     22  C   UNL     1      10.145  11.203  18.000  0.00  0.00    +0.000 A 
ATOM     23  N   UNL     1      10.822  11.722  19.029  0.00  0.00    +0.000 NA
ATOM     24  N   UNL     1      10.202  11.209  20.102  0.00  0.00    +0.000 N 
ATOM     25  C   UNL     1       9.136  10.412  19.791  0.00  0.00    +0.000 A 
ATOM     26  H   UNL     1      10.565  11.446  21.020  0.00  0.00    +0.000 HD
ENDBRANCH  18  21
ENDBRANCH  14  15
ENDBRANCH   5  14
TORSDOF 6
ENDMDL
MODEL 2
REMARK VINA RESULT:      -7.2      1.429      1.770
REMARK  Name = 
REMARK  7 active torsions:
REMARK  status: ('A' for Active; 'I' for Inactive)
REMARK    1  A    between atoms: C_1  and  N_2
REMARK    2  A    between atoms: N_2  and  S_3
REMARK    3  A    between atoms: S_3  and  C_6
REMARK    4  A    between atoms: C_6  and  C_7
REMARK    5  A    between atoms: C_11  and  C_12
REMARK    6  A    between atoms: C_12  and  N_13
REMARK    7  A    between atoms: N_16  and  C_17
REMARK                            x       y       z     vdW  Elec       q    Type
REMARK                         _______ _______ _______ _____ _____    ______ ____
ROOT
ATOM      1  C   UNL     1       3.319   4.655  17.593  0.00  0.00    +0.000 A 
ATOM      2  C   UNL     1       2.540   5.763  17.949  0.00  0.00    +0.000 A 
ATOM      3  C   UNL     1       3.094   7.044  17.961  0.00  0.00    +0.000 A 
ATOM      4  C   UNL     1       4.434   7.234  17.628  0.00  0.00    +0.000 A 
ATOM      5  C   UNL     1       5.237   6.142  17.277  0.00  0.00    +0.000 A 
ATOM      6  C   UNL     1       4.662   4.862  17.238  0.00  0.00    +0.000 A 
ENDROOT
BRANCH   1   7
ATOM      7  C   UNL     1       2.697   3.282  17.529  0.00  0.00    +0.000 C 
BRANCH   7   8
ATOM      8  S   UNL     1       3.138   2.307  18.980  0.00  0.00    +0.000 S 
ATOM      9  O   UNL     1       3.844   3.136  19.935  0.00  0.00    +0.000 OA
ATOM     10  O   UNL     1       3.641   1.005  18.602  0.00  0.00    +0.000 OA
BRANCH   8  12
ATOM     11  C   UNL     1       1.164   2.999  20.690  0.00  0.00    +0.000 C 
ATOM     12  N   UNL     1       1.619   2.028  19.687  0.00  0.00    +0.000 NA
ATOM     13  H   UNL     1       0.943   1.866  18.935  0.00  0.00    +0.000 HD
ENDBRANCH   8  12
ENDBRANCH   7   8
ENDBRANCH   1   7
BRANCH   5  14
ATOM     14  C   UNL     1       6.701   6.329  16.966  0.00  0.00    +0.000 C 
BRANCH  14  15
ATOM     15  N   UNL     1       7.093   7.720  16.895  0.00  0.00    +0.000 N 
ATOM     16  C   UNL     1       7.993   8.236  17.801  0.00  0.00    +0.000 C 
ATOM     17  O   UNL     1       8.560   7.545  18.638  0.00  0.00    +0.000 OA
ATOM     18  N   UNL     1       8.118   9.602  17.677  0.00  0.00    +0.000 N 
ATOM     19  H   UNL     1       7.048   8.165  15.992  0.00  0.00    +0.000 HD
ATOM     20  H   UNL     1       7.418  10.092  17.145  0.00  0.00    +0.000 HD
BRANCH  18  21
ATOM     21  C   UNL     1       8.957  10.357  18.479  0.00  0.00    +0.000 A 
ATOM     22  C   UNL     1       9.149  10.356  19.878  0.00  0.00    +0.000 A 
ATOM     23  N   UNL     1      10.061  11.252  20.269  0.00  0.00    +0.000 NA
ATOM     24  N   UNL     1      10.435  11.838  19.122  0.00  0.00    +0.000 N 
ATOM     25  C   UNL     1       9.819  11.323  18.016  0.00  0.00    +0.000 A 
ATOM     26  H   UNL     1      11.118  12.588  19.172  0.00  0.00    +0.000 HD
ENDBRANCH  18  21
ENDBRANCH  14  15
ENDBRANCH   5  14
TORSDOF 6
ENDMDL
MODEL 3
REMARK VINA RESULT:      -7.2      4.802      7.043
REMARK  Name = 
REMARK  7 active torsions:
REMARK  status: ('A' for Active; 'I' for Inactive)
REMARK    1  A    between atoms: C_1  and  N_2
REMARK    2  A    between atoms: N_2  and  S_3
REMARK    3  A    between atoms: S_3  and  C_6
REMARK    4  A    between atoms: C_6  and  C_7
REMARK    5  A    between atoms: C_11  and  C_12
REMARK    6  A    between atoms: C_12  and  N_13
REMARK    7  A    between atoms: N_16  and  C_17
REMARK                            x       y       z     vdW  Elec       q    Type
REMARK                         _______ _______ _______ _____ _____    ______ ____
ROOT
ATOM      1  C   UNL     1       4.147   4.802  17.135  0.00  0.00    +0.000 A 
ATOM      2  C   UNL     1       3.308   3.684  17.224  0.00  0.00    +0.000 A 
ATOM      3  C   UNL     1       2.149   3.727  18.000  0.00  0.00    +0.000 A 
ATOM      4  C   UNL     1       1.818   4.883  18.706  0.00  0.00    +0.000 A 
ATOM      5  C   UNL     1       2.644   6.012  18.642  0.00  0.00    +0.000 A 
ATOM      6  C   UNL     1       3.790   5.967  17.834  0.00  0.00    +0.000 A 
ENDROOT
BRANCH   1   7
ATOM      7  C   UNL     1       5.368   4.765  16.251  0.00  0.00    +0.000 C 
BRANCH   7   8
ATOM      8  S   UNL     1       6.877   4.864  17.230  0.00  0.00    +0.000 S 
ATOM      9  O   UNL     1       8.005   4.398  16.449  0.00  0.00    +0.000 OA
ATOM     10  O   UNL     1       6.657   4.394  18.580  0.00  0.00    +0.000 OA
BRANCH   8  12
ATOM     11  C   UNL     1       7.999   7.016  18.419  0.00  0.00    +0.000 C 
ATOM     12  N   UNL     1       7.101   6.543  17.357  0.00  0.00    +0.000 NA
ATOM     13  H   UNL     1       7.337   6.903  16.429  0.00  0.00    +0.000 HD
ENDBRANCH   8  12
ENDBRANCH   7   8
ENDBRANCH   1   7
BRANCH   5  14
ATOM     14  C   UNL     1       2.324   7.248  19.443  0.00  0.00    +0.000 C 
BRANCH  14  15
ATOM     15  N   UNL     1       1.943   8.375  18.619  0.00  0.00    +0.000 N 
ATOM     16  C   UNL     1       1.167   9.388  19.139  0.00  0.00    +0.000 C 
ATOM     17  O   UNL     1       0.839   9.431  20.319  0.00  0.00    +0.000 OA
ATOM     18  N   UNL     1       0.775  10.283  18.169  0.00  0.00    +0.000 N 
ATOM     19  H   UNL     1       2.557   8.617  17.858  0.00  0.00    +0.000 HD
ATOM     20  H   UNL     1       0.878  10.009  17.207  0.00  0.00    +0.000 HD
BRANCH  18  21
ATOM     21  C   UNL     1      -0.017  11.386  18.439  0.00  0.00    +0.000 A 
ATOM     22  C   UNL     1       0.310  12.656  18.962  0.00  0.00    +0.000 A 
ATOM     23  N   UNL     1      -0.757  13.451  19.078  0.00  0.00    +0.000 NA
ATOM     24  N   UNL     1      -1.768  12.682  18.650  0.00  0.00    +0.000 N 
ATOM     25  C   UNL     1      -1.376  11.441  18.234  0.00  0.00    +0.000 A 
ATOM     26  H   UNL     1      -2.706  13.072  18.671  0.00  0.00    +0.000 HD
ENDBRANCH  18  21
ENDBRANCH  14  15
ENDBRANCH   5  14
TORSDOF 6
ENDMDL
MODEL 4
REMARK VINA RESULT:      -7.2      5.166      7.292
REMARK  Name = 
REMARK  7 active torsions:
REMARK  status: ('A' for Active; 'I' for Inactive)
REMARK    1  A    between atoms: C_1  and  N_2
REMARK    2  A    between atoms: N_2  and  S_3
REMARK    3  A    between atoms: S_3  and  C_6
REMARK    4  A    between atoms: C_6  and  C_7
REMARK    5  A    between atoms: C_11  and  C_12
REMARK    6  A    between atoms: C_12  and  N_13
REMARK    7  A    between atoms: N_16  and  C_17
REMARK                            x       y       z     vdW  Elec       q    Type
REMARK                         _______ _______ _______ _____ _____    ______ ____
ROOT
ATOM      1  C   UNL     1       4.327   4.541  17.112  0.00  0.00    +0.000 A 
ATOM      2  C   UNL     1       3.281   3.612  17.041  0.00  0.00    +0.000 A 
ATOM      3  C   UNL     1       2.034   3.905  17.595  0.00  0.00    +0.000 A 
ATOM      4  C   UNL     1       1.819   5.124  18.237  0.00  0.00    +0.000 A 
ATOM      5  C   UNL     1       2.850   6.066  18.330  0.00  0.00    +0.000 A 
ATOM      6  C   UNL     1       4.091   5.774  17.741  0.00  0.00    +0.000 A 
ENDROOT
BRANCH   1   7
ATOM      7  C   UNL     1       5.655   4.238  16.462  0.00  0.00    +0.000 C 
BRANCH   7   8
ATOM      8  S   UNL     1       6.313   5.695  15.630  0.00  0.00    +0.000 S 
ATOM      9  O   UNL     1       7.431   6.229  16.381  0.00  0.00    +0.000 OA
ATOM     10  O   UNL     1       5.249   6.554  15.160  0.00  0.00    +0.000 OA
BRANCH   8  12
ATOM     11  C   UNL     1       6.276   3.919  13.594  0.00  0.00    +0.000 C 
ATOM     12  N   UNL     1       7.009   5.017  14.237  0.00  0.00    +0.000 NA
ATOM     13  H   UNL     1       7.250   5.780  13.598  0.00  0.00    +0.000 HD
ENDBRANCH   8  12
ENDBRANCH   7   8
ENDBRANCH   1   7
BRANCH   5  14
ATOM     14  C   UNL     1       2.644   7.365  19.067  0.00  0.00    +0.000 C 
BRANCH  14  15
ATOM     15  N   UNL     1       1.953   8.362  18.278  0.00  0.00    +0.000 N 
ATOM     16  C   UNL     1       1.052   9.218  18.872  0.00  0.00    +0.000 C 
ATOM     17  O   UNL     1       0.857   9.239  20.081  0.00  0.00    +0.000 OA
ATOM     18  N   UNL     1       0.380   9.981  17.942  0.00  0.00    +0.000 N 
ATOM     19  H   UNL     1       2.416   8.693  17.446  0.00  0.00    +0.000 HD
ATOM     20  H   UNL     1       0.427   9.696  16.978  0.00  0.00    +0.000 HD
BRANCH  18  21
ATOM     21  C   UNL     1      -0.583  10.913  18.288  0.00  0.00    +0.000 A 
ATOM     22  C   UNL     1      -1.982  10.788  18.439  0.00  0.00    +0.000 A 
ATOM     23  N   UNL     1      -2.563  11.941  18.784  0.00  0.00    +0.000 NA
ATOM     24  N   UNL     1      -1.539  12.805  18.832  0.00  0.00    +0.000 N 
ATOM     25  C   UNL     1      -0.327  12.235  18.565  0.00  0.00    +0.000 A 
ATOM     26  H   UNL     1      -1.745  13.775  19.053  0.00  0.00    +0.000 HD
ENDBRANCH  18  21
ENDBRANCH  14  15
ENDBRANCH   5  14
TORSDOF 6
ENDMDL
MODEL 5
REMARK VINA RESULT:      -7.2      4.033      6.368
REMARK  Name = 
REMARK  7 active torsions:
REMARK  status: ('A' for Active; 'I' for Inactive)
REMARK    1  A    between atoms: C_1  and  N_2
REMARK    2  A    between atoms: N_2  and  S_3
REMARK    3  A    between atoms: S_3  and  C_6
REMARK    4  A    between atoms: C_6  and  C_7
REMARK    5  A    between atoms: C_11  and  C_12
REMARK    6  A    between atoms: C_12  and  N_13
REMARK    7  A    between atoms: N_16  and  C_17
REMARK                            x       y       z     vdW  Elec       q    Type
REMARK                         _______ _______ _______ _____ _____    ______ ____
ROOT
ATOM      1  C   UNL     1       3.917   4.789  18.643  0.00  0.00    +0.000 A 
ATOM      2  C   UNL     1       3.121   5.938  18.552  0.00  0.00    +0.000 A 
ATOM      3  C   UNL     1       3.538   7.030  17.790  0.00  0.00    +0.000 A 
ATOM      4  C   UNL     1       4.759   6.994  17.118  0.00  0.00    +0.000 A 
ATOM      5  C   UNL     1       5.578   5.861  17.200  0.00  0.00    +0.000 A 
ATOM      6  C   UNL     1       5.134   4.757  17.943  0.00  0.00    +0.000 A 
ENDROOT
BRANCH   1   7
ATOM      7  C   UNL     1       3.433   3.592  19.424  0.00  0.00    +0.000 C 
BRANCH   7   8
ATOM      8  S   UNL     1       2.793   2.319  18.321  0.00  0.00    +0.000 S 
ATOM      9  O   UNL     1       3.646   1.149  18.370  0.00  0.00    +0.000 OA
ATOM     10  O   UNL     1       2.369   2.884  17.059  0.00  0.00    +0.000 OA
BRANCH   8  12
ATOM     11  C   UNL     1       0.707   2.864  19.951  0.00  0.00    +0.000 C 
ATOM     12  N   UNL     1       1.369   1.850  19.119  0.00  0.00    +0.000 NA
ATOM     13  H   UNL     1       0.748   1.413  18.433  0.00  0.00    +0.000 HD
ENDBRANCH   8  12
ENDBRANCH   7   8
ENDBRANCH   1   7
BRANCH   5  14
ATOM     14  C   UNL     1       6.924   5.832  16.520  0.00  0.00    +0.000 C 
BRANCH  14  15
ATOM     15  N   UNL     1       6.831   5.690  15.083  0.00  0.00    +0.000 N 
ATOM     16  C   UNL     1       6.544   4.465  14.522  0.00  0.00    +0.000 C 
ATOM     17  O   UNL     1       6.275   3.476  15.192  0.00  0.00    +0.000 OA
ATOM     18  N   UNL     1       6.658   4.492  13.149  0.00  0.00    +0.000 N 
ATOM     19  H   UNL     1       6.564   6.506  14.557  0.00  0.00    +0.000 HD
ATOM     20  H   UNL     1       7.136   5.272  12.732  0.00  0.00    +0.000 HD
BRANCH  18  21
ATOM     21  C   UNL     1       6.427   3.382  12.354  0.00  0.00    +0.000 A 
ATOM     22  C   UNL     1       5.222   2.760  11.958  0.00  0.00    +0.000 A 
ATOM     23  N   UNL     1       5.431   1.693  11.180  0.00  0.00    +0.000 NA
ATOM     24  N   UNL     1       6.767   1.622  11.097  0.00  0.00    +0.000 N 
ATOM     25  C   UNL     1       7.412   2.625  11.765  0.00  0.00    +0.000 A 
ATOM     26  H   UNL     1       7.171   0.857  10.566  0.00  0.00    +0.000 HD
ENDBRANCH  18  21
ENDBRANCH  14  15
ENDBRANCH   5  14
TORSDOF 6
ENDMDL
MODEL 6
REMARK VINA RESULT:      -7.1      3.865      6.184
REMARK  Name = 
REMARK  7 active torsions:
REMARK  status: ('A' for Active; 'I' for Inactive)
REMARK    1  A    between atoms: C_1  and  N_2
REMARK    2  A    between atoms: N_2  and  S_3
REMARK    3  A    between atoms: S_3  and  C_6
REMARK    4  A    between atoms: C_6  and  C_7
REMARK    5  A    between atoms: C_11  and  C_12
REMARK    6  A    between atoms: C_12  and  N_13
REMARK    7  A    between atoms: N_16  and  C_17
REMARK                            x       y       z     vdW  Elec       q    Type
REMARK                         _______ _______ _______ _____ _____    ______ ____
ROOT
ATOM      1  C   UNL     1       3.546   5.323  18.599  0.00  0.00    +0.000 A 
ATOM      2  C   UNL     1       2.992   6.575  18.304  0.00  0.00    +0.000 A 
ATOM      3  C   UNL     1       3.681   7.483  17.498  0.00  0.00    +0.000 A 
ATOM      4  C   UNL     1       4.937   7.157  16.987  0.00  0.00    +0.000 A 
ATOM      5  C   UNL     1       5.518   5.916  17.275  0.00  0.00    +0.000 A 
ATOM      6  C   UNL     1       4.802   4.999  18.060  0.00  0.00    +0.000 A 
ENDROOT
BRANCH   1   7
ATOM      7  C   UNL     1       2.770   4.327  19.425  0.00  0.00    +0.000 C 
BRANCH   7   8
ATOM      8  S   UNL     1       1.654   3.363  18.390  0.00  0.00    +0.000 S 
ATOM      9  O   UNL     1       1.131   4.191  17.323  0.00  0.00    +0.000 OA
ATOM     10  O   UNL     1       0.779   2.536  19.192  0.00  0.00    +0.000 OA
BRANCH   8  12
ATOM     11  C   UNL     1       3.557   1.447  18.489  0.00  0.00    +0.000 C 
ATOM     12  N   UNL     1       2.726   2.292  17.622  0.00  0.00    +0.000 NA
ATOM     13  H   UNL     1       2.201   1.767  16.917  0.00  0.00    +0.000 HD
ENDBRANCH   8  12
ENDBRANCH   7   8
ENDBRANCH   1   7
BRANCH   5  14
ATOM     14  C   UNL     1       6.897   5.574  16.771  0.00  0.00    +0.000 C 
BRANCH  14  15
ATOM     15  N   UNL     1       6.971   5.499  15.327  0.00  0.00    +0.000 N 
ATOM     16  C   UNL     1       6.509   4.384  14.664  0.00  0.00    +0.000 C 
ATOM     17  O   UNL     1       5.946   3.458  15.237  0.00  0.00    +0.000 OA
ATOM     18  N   UNL     1       6.810   4.426  13.321  0.00  0.00    +0.000 N 
ATOM     19  H   UNL     1       6.959   6.369  14.820  0.00  0.00    +0.000 HD
ATOM     20  H   UNL     1       7.495   5.094  13.013  0.00  0.00    +0.000 HD
BRANCH  18  21
ATOM     21  C   UNL     1       6.458   3.418  12.439  0.00  0.00    +0.000 A 
ATOM     22  C   UNL     1       7.252   2.511  11.703  0.00  0.00    +0.000 A 
ATOM     23  N   UNL     1       6.519   1.685  10.951  0.00  0.00    +0.000 NA
ATOM     24  N   UNL     1       5.259   2.078  11.190  0.00  0.00    +0.000 N 
ATOM     25  C   UNL     1       5.165   3.100  12.093  0.00  0.00    +0.000 A 
ATOM     26  H   UNL     1       4.511   1.601  10.697  0.00  0.00    +0.000 HD
ENDBRANCH  18  21
ENDBRANCH  14  15
ENDBRANCH   5  14
TORSDOF 6
ENDMDL
MODEL 7
REMARK VINA RESULT:      -7.0      5.131      7.389
REMARK  Name = 
REMARK  7 active torsions:
REMARK  status: ('A' for Active; 'I' for Inactive)
REMARK    1  A    between atoms: C_1  and  N_2
REMARK    2  A    between atoms: N_2  and  S_3
REMARK    3  A    between atoms: S_3  and  C_6
REMARK    4  A    between atoms: C_6  and  C_7
REMARK    5  A    between atoms: C_11  and  C_12
REMARK    6  A    between atoms: C_12  and  N_13
REMARK    7  A    between atoms: N_16  and  C_17
REMARK                            x       y       z     vdW  Elec       q    Type
REMARK                         _______ _______ _______ _____ _____    ______ ____
ROOT
ATOM      1  C   UNL     1       4.109   5.515  17.932  0.00  0.00    +0.000 A 
ATOM      2  C   UNL     1       3.499   4.434  17.282  0.00  0.00    +0.000 A 
ATOM      3  C   UNL     1       2.281   3.929  17.738  0.00  0.00    +0.000 A 
ATOM      4  C   UNL     1       1.662   4.488  18.856  0.00  0.00    +0.000 A 
ATOM      5  C   UNL     1       2.255   5.562  19.530  0.00  0.00    +0.000 A 
ATOM      6  C   UNL     1       3.464   6.083  19.043  0.00  0.00    +0.000 A 
ENDROOT
BRANCH   1   7
ATOM      7  C   UNL     1       5.398   6.090  17.399  0.00  0.00    +0.000 C 
BRANCH   7   8
ATOM      8  S   UNL     1       6.823   5.330  18.199  0.00  0.00    +0.000 S 
ATOM      9  O   UNL     1       6.397   4.192  18.988  0.00  0.00    +0.000 OA
ATOM     10  O   UNL     1       7.710   6.332  18.748  0.00  0.00    +0.000 OA
BRANCH   8  12
ATOM     11  C   UNL     1       6.846   4.321  15.693  0.00  0.00    +0.000 C 
ATOM     12  N   UNL     1       7.648   4.657  16.876  0.00  0.00    +0.000 NA
ATOM     13  H   UNL     1       8.456   5.250  16.670  0.00  0.00    +0.000 HD
ENDBRANCH   8  12
ENDBRANCH   7   8
ENDBRANCH   1   7
BRANCH   5  14
ATOM     14  C   UNL     1       1.621   6.140  20.770  0.00  0.00    +0.000 C 
BRANCH  14  15
ATOM     15  N   UNL     1       1.699   7.584  20.827  0.00  0.00    +0.000 N 
ATOM     16  C   UNL     1       0.608   8.324  21.226  0.00  0.00    +0.000 C 
ATOM     17  O   UNL     1      -0.430   7.811  21.626  0.00  0.00    +0.000 OA
ATOM     18  N   UNL     1       0.819   9.675  21.063  0.00  0.00    +0.000 N 
ATOM     19  H   UNL     1       2.607   7.990  20.984  0.00  0.00    +0.000 HD
ATOM     20  H   UNL     1       1.591   9.965  20.487  0.00  0.00    +0.000 HD
BRANCH  18  21
ATOM     21  C   UNL     1      -0.131  10.629  21.385  0.00  0.00    +0.000 A 
ATOM     22  C   UNL     1      -0.624  11.060  22.637  0.00  0.00    +0.000 A 
ATOM     23  N   UNL     1      -1.555  12.012  22.519  0.00  0.00    +0.000 NA
ATOM     24  N   UNL     1      -1.672  12.173  21.193  0.00  0.00    +0.000 N 
ATOM     25  C   UNL     1      -0.825  11.383  20.468  0.00  0.00    +0.000 A 
ATOM     26  H   UNL     1      -2.356  12.842  20.854  0.00  0.00    +0.000 HD
ENDBRANCH  18  21
ENDBRANCH  14  15
ENDBRANCH   5  14
TORSDOF 6
ENDMDL
MODEL 8
REMARK VINA RESULT:      -7.0      5.302      7.375
REMARK  Name = 
REMARK  7 active torsions:
REMARK  status: ('A' for Active; 'I' for Inactive)
REMARK    1  A    between atoms: C_1  and  N_2
REMARK    2  A    between atoms: N_2  and  S_3
REMARK    3  A    between atoms: S_3  and  C_6
REMARK    4  A    between atoms: C_6  and  C_7
REMARK    5  A    between atoms: C_11  and  C_12
REMARK    6  A    between atoms: C_12  and  N_13
REMARK    7  A    between atoms: N_16  and  C_17
REMARK                            x       y       z     vdW  Elec       q    Type
REMARK                         _______ _______ _______ _____ _____    ______ ____
ROOT
ATOM      1  C   UNL     1       4.509   5.014  17.430  0.00  0.00    +0.000 A 
ATOM      2  C   UNL     1       4.491   4.152  18.534  0.00  0.00    +0.000 A 
ATOM      3  C   UNL     1       3.724   4.458  19.660  0.00  0.00    +0.000 A 
ATOM      4  C   UNL     1       2.976   5.633  19.703  0.00  0.00    +0.000 A 
ATOM      5  C   UNL     1       2.983   6.517  18.617  0.00  0.00    +0.000 A 
ATOM      6  C   UNL     1       3.732   6.183  17.477  0.00  0.00    +0.000 A 
ENDROOT
BRANCH   1   7
ATOM      7  C   UNL     1       5.296   4.648  16.196  0.00  0.00    +0.000 C 
BRANCH   7   8
ATOM      8  S   UNL     1       6.961   5.334  16.267  0.00  0.00    +0.000 S 
ATOM      9  O   UNL     1       7.854   4.397  16.917  0.00  0.00    +0.000 OA
ATOM     10  O   UNL     1       6.936   6.730  16.645  0.00  0.00    +0.000 OA
BRANCH   8  12
ATOM     11  C   UNL     1       6.727   4.346  13.763  0.00  0.00    +0.000 C 
ATOM     12  N   UNL     1       7.419   5.306  14.632  0.00  0.00    +0.000 NA
ATOM     13  H   UNL     1       7.400   6.267  14.279  0.00  0.00    +0.000 HD
ENDBRANCH   8  12
ENDBRANCH   7   8
ENDBRANCH   1   7
BRANCH   5  14
ATOM     14  C   UNL     1       2.220   7.815  18.673  0.00  0.00    +0.000 C 
BRANCH  14  15
ATOM     15  N   UNL     1       1.903   8.230  20.023  0.00  0.00    +0.000 N 
ATOM     16  C   UNL     1       0.948   9.197  20.248  0.00  0.00    +0.000 C 
ATOM     17  O   UNL     1       0.273   9.683  19.349  0.00  0.00    +0.000 OA
ATOM     18  N   UNL     1       0.902   9.570  21.573  0.00  0.00    +0.000 N 
ATOM     19  H   UNL     1       2.053   7.556  20.757  0.00  0.00    +0.000 HD
ATOM     20  H   UNL     1       1.670   9.304  22.165  0.00  0.00    +0.000 HD
BRANCH  18  21
ATOM     21  C   UNL     1       0.029  10.532  22.052  0.00  0.00    +0.000 A 
ATOM     22  C   UNL     1      -0.992  10.455  23.026  0.00  0.00    +0.000 A 
ATOM     23  N   UNL     1      -1.621  11.621  23.200  0.00  0.00    +0.000 NA
ATOM     24  N   UNL     1      -1.016  12.436  22.324  0.00  0.00    +0.000 N 
ATOM     25  C   UNL     1      -0.005  11.839  21.626  0.00  0.00    +0.000 A 
ATOM     26  H   UNL     1      -1.350  13.393  22.256  0.00  0.00    +0.000 HD
ENDBRANCH  18  21
ENDBRANCH  14  15
ENDBRANCH   5  14
TORSDOF 6
ENDMDL
MODEL 9
REMARK VINA RESULT:      -7.0      5.096      7.300
REMARK  Name = 
REMARK  7 active torsions:
REMARK  status: ('A' for Active; 'I' for Inactive)
REMARK    1  A    between atoms: C_1  and  N_2
REMARK    2  A    between atoms: N_2  and  S_3
REMARK    3  A    between atoms: S_3  and  C_6
REMARK    4  A    between atoms: C_6  and  C_7
REMARK    5  A    between atoms: C_11  and  C_12
REMARK    6  A    between atoms: C_12  and  N_13
REMARK    7  A    between atoms: N_16  and  C_17
REMARK                            x       y       z     vdW  Elec       q    Type
REMARK                         _______ _______ _______ _____ _____    ______ ____
ROOT
ATOM      1  C   UNL     1       4.582   5.031  17.107  0.00  0.00    +0.000 A 
ATOM      2  C   UNL     1       3.586   4.129  17.502  0.00  0.00    +0.000 A 
ATOM      3  C   UNL     1       2.360   4.593  17.982  0.00  0.00    +0.000 A 
ATOM      4  C   UNL     1       2.117   5.962  18.084  0.00  0.00    +0.000 A 
ATOM      5  C   UNL     1       3.099   6.885  17.704  0.00  0.00    +0.000 A 
ATOM      6  C   UNL     1       4.316   6.407  17.193  0.00  0.00    +0.000 A 
ENDROOT
BRANCH   1   7
ATOM      7  C   UNL     1       5.883   4.521  16.537  0.00  0.00    +0.000 C 
BRANCH   7   8
ATOM      8  S   UNL     1       7.272   4.982  17.590  0.00  0.00    +0.000 S 
ATOM      9  O   UNL     1       8.420   4.154  17.281  0.00  0.00    +0.000 OA
ATOM     10  O   UNL     1       6.846   5.192  18.956  0.00  0.00    +0.000 OA
BRANCH   8  12
ATOM     11  C   UNL     1       7.807   7.603  17.970  0.00  0.00    +0.000 C 
ATOM     12  N   UNL     1       7.670   6.519  16.988  0.00  0.00    +0.000 NA
ATOM     13  H   UNL     1       8.481   6.419  16.371  0.00  0.00    +0.000 HD
ENDBRANCH   8  12
ENDBRANCH   7   8
ENDBRANCH   1   7
BRANCH   5  14
ATOM     14  C   UNL     1       2.867   8.366  17.860  0.00  0.00    +0.000 C 
BRANCH  14  15
ATOM     15  N   UNL     1       1.490   8.697  18.158  0.00  0.00    +0.000 N 
ATOM     16  C   UNL     1       1.140   9.988  18.489  0.00  0.00    +0.000 C 
ATOM     17  O   UNL     1       1.938  10.917  18.464  0.00  0.00    +0.000 OA
ATOM     18  N   UNL     1      -0.173  10.074  18.894  0.00  0.00    +0.000 N 
ATOM     19  H   UNL     1       0.778   8.126  17.733  0.00  0.00    +0.000 HD
ATOM     20  H   UNL     1      -0.651   9.220  19.127  0.00  0.00    +0.000 HD
BRANCH  18  21
ATOM     21  C   UNL     1      -0.763  11.264  19.285  0.00  0.00    +0.000 A 
ATOM     22  C   UNL     1      -0.886  11.863  20.558  0.00  0.00    +0.000 A 
ATOM     23  N   UNL     1      -1.538  13.029  20.513  0.00  0.00    +0.000 NA
ATOM     24  N   UNL     1      -1.850  13.163  19.216  0.00  0.00    +0.000 N 
ATOM     25  C   UNL     1      -1.389  12.143  18.432  0.00  0.00    +0.000 A 
ATOM     26  H   UNL     1      -2.383  13.981  18.937  0.00  0.00    +0.000 HD
ENDBRANCH  18  21
ENDBRANCH  14  15
ENDBRANCH   5  14
TORSDOF 6
ENDMDL
