MODEL 1
REMARK VINA RESULT:      -7.4      0.000      0.000
REMARK  Name = 
REMARK  6 active torsions:
REMARK  status: ('A' for Active; 'I' for Inactive)
REMARK    1  A    between atoms: C_1  and  C_2
REMARK    2  A    between atoms: C_2  and  S_3
REMARK    3  A    between atoms: S_3  and  N_6
REMARK    4  A    between atoms: N_9  and  C_10
REMARK    5  A    between atoms: C_16  and  C_17
REMARK    6  A    between atoms: C_17  and  C_18
REMARK                            x       y       z     vdW  Elec       q    Type
REMARK                         _______ _______ _______ _____ _____    ______ ____
ROOT
ATOM      1  C   UNL     1       2.229   7.210  18.756  0.00  0.00    +0.000 A 
ATOM      2  C   UNL     1       1.426   6.292  18.061  0.00  0.00    +0.000 A 
ATOM      3  C   UNL     1       1.874   5.006  17.735  0.00  0.00    +0.000 A 
ATOM      4  C   UNL     1       3.157   4.605  18.093  0.00  0.00    +0.000 A 
ATOM      5  C   UNL     1       4.036   5.535  18.654  0.00  0.00    +0.000 A 
ATOM      6  C   UNL     1       3.554   6.810  18.996  0.00  0.00    +0.000 A 
ATOM      7  C   UNL     1       5.496   5.172  18.856  0.00  0.00    +0.000 C 
ATOM      8  N   UNL     1       5.661   3.795  19.367  0.00  0.00    +0.000 NA
ATOM      9  C   UNL     1       4.640   2.816  18.974  0.00  0.00    +0.000 C 
ATOM     10  C   UNL     1       3.638   3.199  17.879  0.00  0.00    +0.000 C 
ATOM     11  H   UNL     1       5.663   3.844  20.387  0.00  0.00    +0.000 HD
ENDROOT
BRANCH   1  15
ATOM     12  N   UNL     1       0.771  11.111  19.879  0.00  0.00    +0.000 NA
ATOM     13  C   UNL     1       1.042  10.038  20.894  0.00  0.00    +0.000 C 
ATOM     14  C   UNL     1       0.915   8.619  20.304  0.00  0.00    +0.000 C 
ATOM     15  N   UNL     1       1.799   8.486  19.117  0.00  0.00    +0.000 N 
ATOM     16  C   UNL     1       1.476   9.483  18.075  0.00  0.00    +0.000 C 
ATOM     17  C   UNL     1       1.607  10.905  18.658  0.00  0.00    +0.000 C 
BRANCH  12  18
ATOM     18  S   UNL     1      -0.852  11.523  19.640  0.00  0.00    +0.000 S 
ATOM     19  O   UNL     1      -1.340  12.136  20.854  0.00  0.00    +0.000 OA
ATOM     20  O   UNL     1      -1.532  10.398  19.043  0.00  0.00    +0.000 OA
BRANCH  18  22
ATOM     21  C   UNL     1      -0.331  14.145  19.040  0.00  0.00    +0.000 C 
ATOM     22  C   UNL     1      -0.677  12.815  18.407  0.00  0.00    +0.000 C 
ENDBRANCH  18  22
ENDBRANCH  12  18
ENDBRANCH   1  15
BRANCH   7  23
ATOM     23  C   UNL     1       6.390   5.456  17.598  0.00  0.00    +0.000 C 
ATOM     24  C   UNL     1       7.249   4.265  16.990  0.00  0.00    +0.000 C 
ATOM     25  C   UNL     1       6.963   4.831  15.593  0.00  0.00    +0.000 C 
ATOM     26  C   UNL     1       5.666   5.428  16.175  0.00  0.00    +0.000 C 
BRANCH  23  27
ATOM     27  C   UNL     1       7.266   6.851  17.847  0.00  0.00    +0.000 A 
ATOM     28  C   UNL     1       7.019   8.015  17.091  0.00  0.00    +0.000 A 
ATOM     29  C   UNL     1       7.642   9.235  17.367  0.00  0.00    +0.000 A 
ATOM     30  C   UNL     1       8.558   9.316  18.408  0.00  0.00    +0.000 A 
ATOM     31 CL   UNL     1       9.278  10.829  18.797  0.00  0.00    +0.000 Cl
ATOM     32  C   UNL     1       8.883   8.180  19.140  0.00  0.00    +0.000 A 
ATOM     33  C   UNL     1       8.253   6.963  18.855  0.00  0.00    +0.000 A 
ENDBRANCH  23  27
ENDBRANCH   7  23
TORSDOF 5
ENDMDL
MODEL 2
REMARK VINA RESULT:      -7.1      4.401      9.125
REMARK  Name = 
REMARK  6 active torsions:
REMARK  status: ('A' for Active; 'I' for Inactive)
REMARK    1  A    between atoms: C_1  and  C_2
REMARK    2  A    between atoms: C_2  and  S_3
REMARK    3  A    between atoms: S_3  and  N_6
REMARK    4  A    between atoms: N_9  and  C_10
REMARK    5  A    between atoms: C_16  and  C_17
REMARK    6  A    between atoms: C_17  and  C_18
REMARK                            x       y       z     vdW  Elec       q    Type
REMARK                         _______ _______ _______ _____ _____    ______ ____
ROOT
ATOM      1  C   UNL     1       1.351   8.585  20.060  0.00  0.00    +0.000 A 
ATOM      2  C   UNL     1       0.810   8.555  21.355  0.00  0.00    +0.000 A 
ATOM      3  C   UNL     1      -0.060   9.547  21.823  0.00  0.00    +0.000 A 
ATOM      4  C   UNL     1      -0.409  10.612  20.999  0.00  0.00    +0.000 A 
ATOM      5  C   UNL     1       0.220  10.756  19.759  0.00  0.00    +0.000 A 
ATOM      6  C   UNL     1       1.069   9.733  19.302  0.00  0.00    +0.000 A 
ATOM      7  C   UNL     1       0.007  12.017  18.943  0.00  0.00    +0.000 C 
ATOM      8  N   UNL     1      -1.402  12.462  18.965  0.00  0.00    +0.000 NA
ATOM      9  C   UNL     1      -2.177  12.149  20.173  0.00  0.00    +0.000 C 
ATOM     10  C   UNL     1      -1.433  11.630  21.407  0.00  0.00    +0.000 C 
ATOM     11  H   UNL     1      -1.876  12.022  18.174  0.00  0.00    +0.000 HD
ENDROOT
BRANCH   1  15
ATOM     12  N   UNL     1       3.874   5.495  18.418  0.00  0.00    +0.000 NA
ATOM     13  C   UNL     1       3.758   6.851  17.783  0.00  0.00    +0.000 C 
ATOM     14  C   UNL     1       2.409   7.535  18.089  0.00  0.00    +0.000 C 
ATOM     15  N   UNL     1       2.198   7.598  19.558  0.00  0.00    +0.000 N 
ATOM     16  C   UNL     1       2.220   6.255  20.176  0.00  0.00    +0.000 C 
ATOM     17  C   UNL     1       3.569   5.568  19.879  0.00  0.00    +0.000 C 
BRANCH  12  18
ATOM     18  S   UNL     1       3.201   4.204  17.556  0.00  0.00    +0.000 S 
ATOM     19  O   UNL     1       4.034   3.956  16.402  0.00  0.00    +0.000 OA
ATOM     20  O   UNL     1       1.781   4.429  17.420  0.00  0.00    +0.000 OA
BRANCH  18  22
ATOM     21  C   UNL     1       2.160   2.257  19.177  0.00  0.00    +0.000 C 
ATOM     22  C   UNL     1       3.467   2.867  18.721  0.00  0.00    +0.000 C 
ENDBRANCH  18  22
ENDBRANCH  12  18
ENDBRANCH   1  15
BRANCH   7  23
ATOM     23  C   UNL     1       1.006  13.173  19.307  0.00  0.00    +0.000 C 
ATOM     24  C   UNL     1       2.123  12.896  20.402  0.00  0.00    +0.000 C 
ATOM     25  C   UNL     1       3.081  13.768  19.578  0.00  0.00    +0.000 C 
ATOM     26  C   UNL     1       2.255  13.382  18.335  0.00  0.00    +0.000 C 
BRANCH  23  27
ATOM     27  C   UNL     1       0.149  14.578  19.566  0.00  0.00    +0.000 A 
ATOM     28  C   UNL     1      -0.231  14.973  20.866  0.00  0.00    +0.000 A 
ATOM     29  C   UNL     1      -0.831  16.209  21.128  0.00  0.00    +0.000 A 
ATOM     30  C   UNL     1      -1.088  17.082  20.080  0.00  0.00    +0.000 A 
ATOM     31 CL   UNL     1      -1.763  18.630  20.403  0.00  0.00    +0.000 Cl
ATOM     32  C   UNL     1      -0.790  16.709  18.774  0.00  0.00    +0.000 A 
ATOM     33  C   UNL     1      -0.190  15.469  18.522  0.00  0.00    +0.000 A 
ENDBRANCH  23  27
ENDBRANCH   7  23
TORSDOF 5
ENDMDL
MODEL 3
REMARK VINA RESULT:      -7.0      0.938      1.532
REMARK  Name = 
REMARK  6 active torsions:
REMARK  status: ('A' for Active; 'I' for Inactive)
REMARK    1  A    between atoms: C_1  and  C_2
REMARK    2  A    between atoms: C_2  and  S_3
REMARK    3  A    between atoms: S_3  and  N_6
REMARK    4  A    between atoms: N_9  and  C_10
REMARK    5  A    between atoms: C_16  and  C_17
REMARK    6  A    between atoms: C_17  and  C_18
REMARK                            x       y       z     vdW  Elec       q    Type
REMARK                         _______ _______ _______ _____ _____    ______ ____
ROOT
ATOM      1  C   UNL     1       2.265   7.128  18.891  0.00  0.00    +0.000 A 
ATOM      2  C   UNL     1       1.445   6.299  18.108  0.00  0.00    +0.000 A 
ATOM      3  C   UNL     1       1.855   5.028  17.686  0.00  0.00    +0.000 A 
ATOM      4  C   UNL     1       3.115   4.552  18.035  0.00  0.00    +0.000 A 
ATOM      5  C   UNL     1       4.014   5.401  18.687  0.00  0.00    +0.000 A 
ATOM      6  C   UNL     1       3.569   6.661  19.122  0.00  0.00    +0.000 A 
ATOM      7  C   UNL     1       5.455   4.970  18.886  0.00  0.00    +0.000 C 
ATOM      8  N   UNL     1       5.560   3.550  19.285  0.00  0.00    +0.000 NA
ATOM      9  C   UNL     1       4.514   2.644  18.795  0.00  0.00    +0.000 C 
ATOM     10  C   UNL     1       3.551   3.152  17.716  0.00  0.00    +0.000 C 
ATOM     11  H   UNL     1       5.542   3.516  20.306  0.00  0.00    +0.000 HD
ENDROOT
BRANCH   1  15
ATOM     12  N   UNL     1       0.928  10.967  20.331  0.00  0.00    +0.000 NA
ATOM     13  C   UNL     1       1.421   9.894  21.260  0.00  0.00    +0.000 C 
ATOM     14  C   UNL     1       1.228   8.477  20.683  0.00  0.00    +0.000 C 
ATOM     15  N   UNL     1       1.873   8.385  19.347  0.00  0.00    +0.000 N 
ATOM     16  C   UNL     1       1.325   9.380  18.401  0.00  0.00    +0.000 C 
ATOM     17  C   UNL     1       1.520  10.800  18.970  0.00  0.00    +0.000 C 
BRANCH  12  18
ATOM     18  S   UNL     1      -0.723  11.327  20.413  0.00  0.00    +0.000 S 
ATOM     19  O   UNL     1      -1.435  10.342  19.632  0.00  0.00    +0.000 OA
ATOM     20  O   UNL     1      -0.901  12.741  20.177  0.00  0.00    +0.000 OA
BRANCH  18  22
ATOM     21  C   UNL     1      -1.559  12.207  22.870  0.00  0.00    +0.000 C 
ATOM     22  C   UNL     1      -1.041  10.984  22.145  0.00  0.00    +0.000 C 
ENDBRANCH  18  22
ENDBRANCH  12  18
ENDBRANCH   1  15
BRANCH   7  23
ATOM     23  C   UNL     1       6.386   5.321  17.672  0.00  0.00    +0.000 C 
ATOM     24  C   UNL     1       7.410   4.221  17.154  0.00  0.00    +0.000 C 
ATOM     25  C   UNL     1       7.146   4.714  15.725  0.00  0.00    +0.000 C 
ATOM     26  C   UNL     1       5.757   5.173  16.212  0.00  0.00    +0.000 C 
BRANCH  23  27
ATOM     27  C   UNL     1       7.081   6.813  17.925  0.00  0.00    +0.000 A 
ATOM     28  C   UNL     1       8.163   6.975  18.816  0.00  0.00    +0.000 A 
ATOM     29  C   UNL     1       8.851   8.184  18.949  0.00  0.00    +0.000 A 
ATOM     30  C   UNL     1       8.455   9.284  18.199  0.00  0.00    +0.000 A 
ATOM     31 CL   UNL     1       9.339  10.755  18.306  0.00  0.00    +0.000 Cl
ATOM     32  C   UNL     1       7.353   9.191  17.356  0.00  0.00    +0.000 A 
ATOM     33  C   UNL     1       6.670   7.975  17.231  0.00  0.00    +0.000 A 
ENDBRANCH  23  27
ENDBRANCH   7  23
TORSDOF 5
ENDMDL
MODEL 4
REMARK VINA RESULT:      -7.0      1.131      1.510
REMARK  Name = 
REMARK  6 active torsions:
REMARK  status: ('A' for Active; 'I' for Inactive)
REMARK    1  A    between atoms: C_1  and  C_2
REMARK    2  A    between atoms: C_2  and  S_3
REMARK    3  A    between atoms: S_3  and  N_6
REMARK    4  A    between atoms: N_9  and  C_10
REMARK    5  A    between atoms: C_16  and  C_17
REMARK    6  A    between atoms: C_17  and  C_18
REMARK                            x       y       z     vdW  Elec       q    Type
REMARK                         _______ _______ _______ _____ _____    ______ ____
ROOT
ATOM      1  C   UNL     1       1.953   6.832  18.602  0.00  0.00    +0.000 A 
ATOM      2  C   UNL     1       1.262   5.810  17.931  0.00  0.00    +0.000 A 
ATOM      3  C   UNL     1       1.859   4.580  17.629  0.00  0.00    +0.000 A 
ATOM      4  C   UNL     1       3.181   4.341  17.990  0.00  0.00    +0.000 A 
ATOM      5  C   UNL     1       3.945   5.381  18.528  0.00  0.00    +0.000 A 
ATOM      6  C   UNL     1       3.316   6.597  18.845  0.00  0.00    +0.000 A 
ATOM      7  C   UNL     1       5.438   5.197  18.731  0.00  0.00    +0.000 C 
ATOM      8  N   UNL     1       5.766   3.860  19.269  0.00  0.00    +0.000 NA
ATOM      9  C   UNL     1       4.867   2.759  18.902  0.00  0.00    +0.000 C 
ATOM     10  C   UNL     1       3.825   2.998  17.804  0.00  0.00    +0.000 C 
ATOM     11  H   UNL     1       5.764   3.931  20.288  0.00  0.00    +0.000 HD
ENDROOT
BRANCH   1  15
ATOM     12  N   UNL     1       0.285  10.681  19.606  0.00  0.00    +0.000 NA
ATOM     13  C   UNL     1       0.296  10.160  18.198  0.00  0.00    +0.000 C 
ATOM     14  C   UNL     1       1.443   9.160  17.946  0.00  0.00    +0.000 C 
ATOM     15  N   UNL     1       1.376   8.056  18.939  0.00  0.00    +0.000 N 
ATOM     16  C   UNL     1       1.458   8.557  20.326  0.00  0.00    +0.000 C 
ATOM     17  C   UNL     1       0.309   9.554  20.587  0.00  0.00    +0.000 C 
BRANCH  12  18
ATOM     18  S   UNL     1       1.296  11.999  19.925  0.00  0.00    +0.000 S 
ATOM     19  O   UNL     1       2.167  12.180  18.787  0.00  0.00    +0.000 OA
ATOM     20  O   UNL     1       1.828  11.862  21.261  0.00  0.00    +0.000 OA
BRANCH  18  22
ATOM     21  C   UNL     1       0.087  14.061  18.586  0.00  0.00    +0.000 C 
ATOM     22  C   UNL     1       0.097  13.334  19.913  0.00  0.00    +0.000 C 
ENDBRANCH  18  22
ENDBRANCH  12  18
ENDBRANCH   1  15
BRANCH   7  23
ATOM     23  C   UNL     1       6.290   5.557  17.462  0.00  0.00    +0.000 C 
ATOM     24  C   UNL     1       7.107   4.401  16.741  0.00  0.00    +0.000 C 
ATOM     25  C   UNL     1       6.778   5.068  15.399  0.00  0.00    +0.000 C 
ATOM     26  C   UNL     1       5.514   5.640  16.069  0.00  0.00    +0.000 C 
BRANCH  23  27
ATOM     27  C   UNL     1       7.196   6.919  17.776  0.00  0.00    +0.000 A 
ATOM     28  C   UNL     1       6.948   8.134  17.103  0.00  0.00    +0.000 A 
ATOM     29  C   UNL     1       7.600   9.324  17.439  0.00  0.00    +0.000 A 
ATOM     30  C   UNL     1       8.545   9.323  18.456  0.00  0.00    +0.000 A 
ATOM     31 CL   UNL     1       9.301  10.796  18.921  0.00  0.00    +0.000 Cl
ATOM     32  C   UNL     1       8.871   8.137  19.104  0.00  0.00    +0.000 A 
ATOM     33  C   UNL     1       8.212   6.951  18.759  0.00  0.00    +0.000 A 
ENDBRANCH  23  27
ENDBRANCH   7  23
TORSDOF 5
ENDMDL
MODEL 5
REMARK VINA RESULT:      -7.0      6.566      8.982
REMARK  Name = 
REMARK  6 active torsions:
REMARK  status: ('A' for Active; 'I' for Inactive)
REMARK    1  A    between atoms: C_1  and  C_2
REMARK    2  A    between atoms: C_2  and  S_3
REMARK    3  A    between atoms: S_3  and  N_6
REMARK    4  A    between atoms: N_9  and  C_10
REMARK    5  A    between atoms: C_16  and  C_17
REMARK    6  A    between atoms: C_17  and  C_18
REMARK                            x       y       z     vdW  Elec       q    Type
REMARK                         _______ _______ _______ _____ _____    ______ ____
ROOT
ATOM      1  C   UNL     1       6.962  15.925  18.701  0.00  0.00    +0.000 A 
ATOM      2  C   UNL     1       7.581  17.147  19.011  0.00  0.00    +0.000 A 
ATOM      3  C   UNL     1       8.945  17.369  18.790  0.00  0.00    +0.000 A 
ATOM      4  C   UNL     1       9.737  16.360  18.252  0.00  0.00    +0.000 A 
ATOM      5  C   UNL     1       9.192  15.086  18.066  0.00  0.00    +0.000 A 
ATOM      6  C   UNL     1       7.816  14.896  18.270  0.00  0.00    +0.000 A 
ATOM      7  C   UNL     1      10.092  13.926  17.679  0.00  0.00    +0.000 C 
ATOM      8  N   UNL     1      11.094  14.315  16.664  0.00  0.00    +0.000 NA
ATOM      9  C   UNL     1      11.550  15.710  16.683  0.00  0.00    +0.000 C 
ATOM     10  C   UNL     1      11.172  16.590  17.880  0.00  0.00    +0.000 C 
ATOM     11  H   UNL     1      10.685  14.138  15.746  0.00  0.00    +0.000 HD
ENDROOT
BRANCH   1  15
ATOM     12  N   UNL     1       2.784  15.063  19.333  0.00  0.00    +0.000 NA
ATOM     13  C   UNL     1       3.641  15.679  20.401  0.00  0.00    +0.000 C 
ATOM     14  C   UNL     1       5.132  15.316  20.246  0.00  0.00    +0.000 C 
ATOM     15  N   UNL     1       5.601  15.684  18.885  0.00  0.00    +0.000 N 
ATOM     16  C   UNL     1       4.819  15.007  17.830  0.00  0.00    +0.000 C 
ATOM     17  C   UNL     1       3.327  15.372  17.976  0.00  0.00    +0.000 C 
BRANCH  12  18
ATOM     18  S   UNL     1       2.266  13.477  19.612  0.00  0.00    +0.000 S 
ATOM     19  O   UNL     1       2.581  13.138  20.980  0.00  0.00    +0.000 OA
ATOM     20  O   UNL     1       2.705  12.647  18.514  0.00  0.00    +0.000 OA
BRANCH  18  22
ATOM     21  C   UNL     1      -0.198  12.435  19.017  0.00  0.00    +0.000 C 
ATOM     22  C   UNL     1       0.489  13.695  19.498  0.00  0.00    +0.000 C 
ENDBRANCH  18  22
ENDBRANCH  12  18
ENDBRANCH   1  15
BRANCH   7  23
ATOM     23  C   UNL     1      10.739  13.200  18.912  0.00  0.00    +0.000 C 
ATOM     24  C   UNL     1      10.945  11.626  18.846  0.00  0.00    +0.000 C 
ATOM     25  C   UNL     1      12.259  11.812  19.615  0.00  0.00    +0.000 C 
ATOM     26  C   UNL     1      12.332  13.230  19.015  0.00  0.00    +0.000 C 
BRANCH  23  27
ATOM     27  C   UNL     1       9.993  13.718  20.309  0.00  0.00    +0.000 A 
ATOM     28  C   UNL     1       8.842  13.073  20.806  0.00  0.00    +0.000 A 
ATOM     29  C   UNL     1       8.275  13.399  22.041  0.00  0.00    +0.000 A 
ATOM     30  C   UNL     1       8.839  14.408  22.810  0.00  0.00    +0.000 A 
ATOM     31 CL   UNL     1       8.188  14.768  24.361  0.00  0.00    +0.000 Cl
ATOM     32  C   UNL     1       9.936  15.117  22.332  0.00  0.00    +0.000 A 
ATOM     33  C   UNL     1      10.496  14.782  21.093  0.00  0.00    +0.000 A 
ENDBRANCH  23  27
ENDBRANCH   7  23
TORSDOF 5
ENDMDL
MODEL 6
REMARK VINA RESULT:      -6.9      2.466      3.257
REMARK  Name = 
REMARK  6 active torsions:
REMARK  status: ('A' for Active; 'I' for Inactive)
REMARK    1  A    between atoms: C_1  and  C_2
REMARK    2  A    between atoms: C_2  and  S_3
REMARK    3  A    between atoms: S_3  and  N_6
REMARK    4  A    between atoms: N_9  and  C_10
REMARK    5  A    between atoms: C_16  and  C_17
REMARK    6  A    between atoms: C_17  and  C_18
REMARK                            x       y       z     vdW  Elec       q    Type
REMARK                         _______ _______ _______ _____ _____    ______ ____
ROOT
ATOM      1  C   UNL     1       1.991   6.838  20.053  0.00  0.00    +0.000 A 
ATOM      2  C   UNL     1       1.156   5.979  20.786  0.00  0.00    +0.000 A 
ATOM      3  C   UNL     1       1.466   4.627  20.982  0.00  0.00    +0.000 A 
ATOM      4  C   UNL     1       2.628   4.093  20.436  0.00  0.00    +0.000 A 
ATOM      5  C   UNL     1       3.409   4.877  19.580  0.00  0.00    +0.000 A 
ATOM      6  C   UNL     1       3.091   6.236  19.422  0.00  0.00    +0.000 A 
ATOM      7  C   UNL     1       4.559   4.248  18.815  0.00  0.00    +0.000 C 
ATOM      8  N   UNL     1       5.331   3.304  19.650  0.00  0.00    +0.000 NA
ATOM      9  C   UNL     1       4.597   2.603  20.711  0.00  0.00    +0.000 C 
ATOM     10  C   UNL     1       3.067   2.687  20.723  0.00  0.00    +0.000 C 
ATOM     11  H   UNL     1       6.083   3.833  20.095  0.00  0.00    +0.000 HD
ENDROOT
BRANCH   1  15
ATOM     12  N   UNL     1       1.025  11.003  19.483  0.00  0.00    +0.000 NA
ATOM     13  C   UNL     1       1.127  10.388  20.849  0.00  0.00    +0.000 C 
ATOM     14  C   UNL     1       0.832   8.874  20.841  0.00  0.00    +0.000 C 
ATOM     15  N   UNL     1       1.721   8.193  19.864  0.00  0.00    +0.000 N 
ATOM     16  C   UNL     1       1.557   8.733  18.499  0.00  0.00    +0.000 C 
ATOM     17  C   UNL     1       1.857  10.247  18.499  0.00  0.00    +0.000 C 
BRANCH  12  18
ATOM     18  S   UNL     1      -0.525  11.466  18.985  0.00  0.00    +0.000 S 
ATOM     19  O   UNL     1      -1.343  11.629  20.164  0.00  0.00    +0.000 OA
ATOM     20  O   UNL     1      -0.938  10.606  17.900  0.00  0.00    +0.000 OA
BRANCH  18  22
ATOM     21  C   UNL     1       0.598  13.943  19.320  0.00  0.00    +0.000 C 
ATOM     22  C   UNL     1      -0.177  13.099  18.331  0.00  0.00    +0.000 C 
ENDBRANCH  18  22
ENDBRANCH  12  18
ENDBRANCH   1  15
BRANCH   7  23
ATOM     23  C   UNL     1       4.126   3.619  17.444  0.00  0.00    +0.000 C 
ATOM     24  C   UNL     1       3.679   2.094  17.413  0.00  0.00    +0.000 C 
ATOM     25  C   UNL     1       2.630   2.471  16.358  0.00  0.00    +0.000 C 
ATOM     26  C   UNL     1       2.628   3.888  16.964  0.00  0.00    +0.000 C 
BRANCH  23  27
ATOM     27  C   UNL     1       5.254   4.007  16.281  0.00  0.00    +0.000 A 
ATOM     28  C   UNL     1       5.091   3.602  14.939  0.00  0.00    +0.000 A 
ATOM     29  C   UNL     1       5.948   4.025  13.919  0.00  0.00    +0.000 A 
ATOM     30  C   UNL     1       7.017   4.856  14.223  0.00  0.00    +0.000 A 
ATOM     31 CL   UNL     1       8.035   5.436  12.964  0.00  0.00    +0.000 Cl
ATOM     32  C   UNL     1       7.257   5.230  15.541  0.00  0.00    +0.000 A 
ATOM     33  C   UNL     1       6.392   4.800  16.556  0.00  0.00    +0.000 A 
ENDBRANCH  23  27
ENDBRANCH   7  23
TORSDOF 5
ENDMDL
MODEL 7
REMARK VINA RESULT:      -6.9      0.933      1.140
REMARK  Name = 
REMARK  6 active torsions:
REMARK  status: ('A' for Active; 'I' for Inactive)
REMARK    1  A    between atoms: C_1  and  C_2
REMARK    2  A    between atoms: C_2  and  S_3
REMARK    3  A    between atoms: S_3  and  N_6
REMARK    4  A    between atoms: N_9  and  C_10
REMARK    5  A    between atoms: C_16  and  C_17
REMARK    6  A    between atoms: C_17  and  C_18
REMARK                            x       y       z     vdW  Elec       q    Type
REMARK                         _______ _______ _______ _____ _____    ______ ____
ROOT
ATOM      1  C   UNL     1       2.257   7.301  18.682  0.00  0.00    +0.000 A 
ATOM      2  C   UNL     1       1.455   6.375  17.996  0.00  0.00    +0.000 A 
ATOM      3  C   UNL     1       1.894   5.077  17.708  0.00  0.00    +0.000 A 
ATOM      4  C   UNL     1       3.166   4.670  18.099  0.00  0.00    +0.000 A 
ATOM      5  C   UNL     1       4.046   5.604  18.653  0.00  0.00    +0.000 A 
ATOM      6  C   UNL     1       3.572   6.892  18.955  0.00  0.00    +0.000 A 
ATOM      7  C   UNL     1       5.498   5.230  18.889  0.00  0.00    +0.000 C 
ATOM      8  N   UNL     1       5.638   3.864  19.435  0.00  0.00    +0.000 NA
ATOM      9  C   UNL     1       4.613   2.887  19.047  0.00  0.00    +0.000 C 
ATOM     10  C   UNL     1       3.635   3.255  17.926  0.00  0.00    +0.000 C 
ATOM     11  H   UNL     1       5.623   3.937  20.453  0.00  0.00    +0.000 HD
ENDROOT
BRANCH   1  15
ATOM     12  N   UNL     1       0.823  11.245  19.677  0.00  0.00    +0.000 NA
ATOM     13  C   UNL     1       0.972  10.167  20.712  0.00  0.00    +0.000 C 
ATOM     14  C   UNL     1       0.855   8.751  20.111  0.00  0.00    +0.000 C 
ATOM     15  N   UNL     1       1.835   8.590  19.006  0.00  0.00    +0.000 N 
ATOM     16  C   UNL     1       1.634   9.593  17.940  0.00  0.00    +0.000 C 
ATOM     17  C   UNL     1       1.756  11.012  18.533  0.00  0.00    +0.000 C 
BRANCH  12  18
ATOM     18  S   UNL     1      -0.760  11.706  19.298  0.00  0.00    +0.000 S 
ATOM     19  O   UNL     1      -0.702  12.634  18.193  0.00  0.00    +0.000 OA
ATOM     20  O   UNL     1      -1.450  12.040  20.522  0.00  0.00    +0.000 OA
BRANCH  18  22
ATOM     21  C   UNL     1      -1.957  10.300  17.274  0.00  0.00    +0.000 C 
ATOM     22  C   UNL     1      -1.405  10.152  18.675  0.00  0.00    +0.000 C 
ENDBRANCH  18  22
ENDBRANCH  12  18
ENDBRANCH   1  15
BRANCH   7  23
ATOM     23  C   UNL     1       6.416   5.473  17.639  0.00  0.00    +0.000 C 
ATOM     24  C   UNL     1       7.314   4.274  17.109  0.00  0.00    +0.000 C 
ATOM     25  C   UNL     1       7.050   4.769  15.681  0.00  0.00    +0.000 C 
ATOM     26  C   UNL     1       5.728   5.365  16.203  0.00  0.00    +0.000 C 
BRANCH  23  27
ATOM     27  C   UNL     1       7.258   6.897  17.844  0.00  0.00    +0.000 A 
ATOM     28  C   UNL     1       6.930   8.053  17.107  0.00  0.00    +0.000 A 
ATOM     29  C   UNL     1       7.527   9.293  17.352  0.00  0.00    +0.000 A 
ATOM     30  C   UNL     1       8.497   9.403  18.339  0.00  0.00    +0.000 A 
ATOM     31 CL   UNL     1       9.188  10.938  18.692  0.00  0.00    +0.000 Cl
ATOM     32  C   UNL     1       8.901   8.277  19.048  0.00  0.00    +0.000 A 
ATOM     33  C   UNL     1       8.296   7.040  18.795  0.00  0.00    +0.000 A 
ENDBRANCH  23  27
ENDBRANCH   7  23
TORSDOF 5
ENDMDL
MODEL 8
REMARK VINA RESULT:      -6.9      4.976      8.657
REMARK  Name = 
REMARK  6 active torsions:
REMARK  status: ('A' for Active; 'I' for Inactive)
REMARK    1  A    between atoms: C_1  and  C_2
REMARK    2  A    between atoms: C_2  and  S_3
REMARK    3  A    between atoms: S_3  and  N_6
REMARK    4  A    between atoms: N_9  and  C_10
REMARK    5  A    between atoms: C_16  and  C_17
REMARK    6  A    between atoms: C_17  and  C_18
REMARK                            x       y       z     vdW  Elec       q    Type
REMARK                         _______ _______ _______ _____ _____    ______ ____
ROOT
ATOM      1  C   UNL     1       2.707  14.587  20.029  0.00  0.00    +0.000 A 
ATOM      2  C   UNL     1       1.627  15.481  20.106  0.00  0.00    +0.000 A 
ATOM      3  C   UNL     1       0.365  15.089  20.568  0.00  0.00    +0.000 A 
ATOM      4  C   UNL     1       0.148  13.773  20.965  0.00  0.00    +0.000 A 
ATOM      5  C   UNL     1       1.152  12.821  20.768  0.00  0.00    +0.000 A 
ATOM      6  C   UNL     1       2.417  13.245  20.327  0.00  0.00    +0.000 A 
ATOM      7  C   UNL     1       0.858  11.350  21.000  0.00  0.00    +0.000 C 
ATOM      8  N   UNL     1       0.041  11.131  22.212  0.00  0.00    +0.000 NA
ATOM      9  C   UNL     1      -0.891  12.202  22.586  0.00  0.00    +0.000 C 
ATOM     10  C   UNL     1      -1.146  13.334  21.586  0.00  0.00    +0.000 C 
ATOM     11  H   UNL     1       0.684  10.996  22.994  0.00  0.00    +0.000 HD
ENDROOT
BRANCH   1  15
ATOM     12  N   UNL     1       6.672  15.598  18.665  0.00  0.00    +0.000 NA
ATOM     13  C   UNL     1       5.519  15.438  17.716  0.00  0.00    +0.000 C 
ATOM     14  C   UNL     1       4.431  14.490  18.261  0.00  0.00    +0.000 C 
ATOM     15  N   UNL     1       3.981  14.956  19.598  0.00  0.00    +0.000 N 
ATOM     16  C   UNL     1       5.098  15.026  20.562  0.00  0.00    +0.000 C 
ATOM     17  C   UNL     1       6.188  15.978  20.026  0.00  0.00    +0.000 C 
BRANCH  12  18
ATOM     18  S   UNL     1       7.880  14.416  18.581  0.00  0.00    +0.000 S 
ATOM     19  O   UNL     1       7.527  13.491  17.529  0.00  0.00    +0.000 OA
ATOM     20  O   UNL     1       8.168  13.954  19.919  0.00  0.00    +0.000 OA
BRANCH  18  22
ATOM     21  C   UNL     1      10.495  14.564  17.779  0.00  0.00    +0.000 C 
ATOM     22  C   UNL     1       9.258  15.406  18.000  0.00  0.00    +0.000 C 
ENDBRANCH  18  22
ENDBRANCH  12  18
ENDBRANCH   1  15
BRANCH   7  23
ATOM     23  C   UNL     1       0.266  10.626  19.739  0.00  0.00    +0.000 C 
ATOM     24  C   UNL     1      -1.275  10.239  19.737  0.00  0.00    +0.000 C 
ATOM     25  C   UNL     1      -1.311  10.576  18.241  0.00  0.00    +0.000 C 
ATOM     26  C   UNL     1      -0.142  11.546  18.501  0.00  0.00    +0.000 C 
BRANCH  23  27
ATOM     27  C   UNL     1       1.271   9.369  19.305  0.00  0.00    +0.000 A 
ATOM     28  C   UNL     1       1.481   8.271  20.164  0.00  0.00    +0.000 A 
ATOM     29  C   UNL     1       2.209   7.143  19.773  0.00  0.00    +0.000 A 
ATOM     30  C   UNL     1       2.771   7.095  18.504  0.00  0.00    +0.000 A 
ATOM     31 CL   UNL     1       3.610   5.684  17.993  0.00  0.00    +0.000 Cl
ATOM     32  C   UNL     1       2.645   8.182  17.646  0.00  0.00    +0.000 A 
ATOM     33  C   UNL     1       1.914   9.307  18.047  0.00  0.00    +0.000 A 
ENDBRANCH  23  27
ENDBRANCH   7  23
TORSDOF 5
ENDMDL
MODEL 9
REMARK VINA RESULT:      -6.8      5.221      9.059
REMARK  Name = 
REMARK  6 active torsions:
REMARK  status: ('A' for Active; 'I' for Inactive)
REMARK    1  A    between atoms: C_1  and  C_2
REMARK    2  A    between atoms: C_2  and  S_3
REMARK    3  A    between atoms: S_3  and  N_6
REMARK    4  A    between atoms: N_9  and  C_10
REMARK    5  A    between atoms: C_16  and  C_17
REMARK    6  A    between atoms: C_17  and  C_18
REMARK                            x       y       z     vdW  Elec       q    Type
REMARK                         _______ _______ _______ _____ _____    ______ ____
ROOT
ATOM      1  C   UNL     1       3.216  14.943  19.974  0.00  0.00    +0.000 A 
ATOM      2  C   UNL     1       2.297  16.004  20.020  0.00  0.00    +0.000 A 
ATOM      3  C   UNL     1       0.983  15.832  20.472  0.00  0.00    +0.000 A 
ATOM      4  C   UNL     1       0.548  14.578  20.888  0.00  0.00    +0.000 A 
ATOM      5  C   UNL     1       1.385  13.471  20.722  0.00  0.00    +0.000 A 
ATOM      6  C   UNL     1       2.707  13.673  20.291  0.00  0.00    +0.000 A 
ATOM      7  C   UNL     1       0.851  12.073  20.975  0.00  0.00    +0.000 C 
ATOM      8  N   UNL     1      -0.004  12.014  22.179  0.00  0.00    +0.000 NA
ATOM      9  C   UNL     1      -0.752  13.230  22.522  0.00  0.00    +0.000 C 
ATOM     10  C   UNL     1      -0.807  14.370  21.498  0.00  0.00    +0.000 C 
ATOM     11  H   UNL     1       0.599  11.791  22.973  0.00  0.00    +0.000 HD
ENDROOT
BRANCH   1  15
ATOM     12  N   UNL     1       7.306  15.265  18.641  0.00  0.00    +0.000 NA
ATOM     13  C   UNL     1       6.148  15.336  17.687  0.00  0.00    +0.000 C 
ATOM     14  C   UNL     1       4.906  14.584  18.207  0.00  0.00    +0.000 C 
ATOM     15  N   UNL     1       4.538  15.090  19.554  0.00  0.00    +0.000 N 
ATOM     16  C   UNL     1       5.644  14.938  20.522  0.00  0.00    +0.000 C 
ATOM     17  C   UNL     1       6.888  15.693  20.011  0.00  0.00    +0.000 C 
BRANCH  12  18
ATOM     18  S   UNL     1       8.284  13.890  18.530  0.00  0.00    +0.000 S 
ATOM     19  O   UNL     1       7.754  13.048  17.483  0.00  0.00    +0.000 OA
ATOM     20  O   UNL     1       8.513  13.376  19.861  0.00  0.00    +0.000 OA
BRANCH  18  22
ATOM     21  C   UNL     1      10.722  13.588  17.315  0.00  0.00    +0.000 C 
ATOM     22  C   UNL     1       9.804  14.626  17.924  0.00  0.00    +0.000 C 
ENDBRANCH  18  22
ENDBRANCH  12  18
ENDBRANCH   1  15
BRANCH   7  23
ATOM     23  C   UNL     1       0.162  11.431  19.719  0.00  0.00    +0.000 C 
ATOM     24  C   UNL     1      -1.425  11.341  19.684  0.00  0.00    +0.000 C 
ATOM     25  C   UNL     1      -1.361  11.629  18.178  0.00  0.00    +0.000 C 
ATOM     26  C   UNL     1      -0.036  12.369  18.443  0.00  0.00    +0.000 C 
BRANCH  23  27
ATOM     27  C   UNL     1       0.920   9.994  19.350  0.00  0.00    +0.000 A 
ATOM     28  C   UNL     1       1.490   9.773  18.079  0.00  0.00    +0.000 A 
ATOM     29  C   UNL     1       2.247   8.636  17.784  0.00  0.00    +0.000 A 
ATOM     30  C   UNL     1       2.436   7.666  18.760  0.00  0.00    +0.000 A 
ATOM     31 CL   UNL     1       3.422   6.297  18.426  0.00  0.00    +0.000 Cl
ATOM     32  C   UNL     1       1.839   7.809  20.008  0.00  0.00    +0.000 A 
ATOM     33  C   UNL     1       1.082   8.952  20.293  0.00  0.00    +0.000 A 
ENDBRANCH  23  27
ENDBRANCH   7  23
TORSDOF 5
ENDMDL
