MODEL 1
REMARK VINA RESULT:      -7.7      0.000      0.000
REMARK  Name = 
REMARK  15 active torsions:
REMARK  status: ('A' for Active; 'I' for Inactive)
REMARK    1  A    between atoms: C_2  and  O_3
REMARK    2  A    between atoms: C_2  and  C_15
REMARK    3  A    between atoms: O_3  and  C_4
REMARK    4  A    between atoms: C_4  and  C_5
REMARK    5  A    between atoms: C_4  and  C_9
REMARK    6  A    between atoms: C_5  and  O_6
REMARK    7  A    between atoms: C_5  and  C_7
REMARK    8  A    between atoms: C_7  and  O_8
REMARK    9  A    between atoms: C_9  and  O_10
REMARK   10  A    between atoms: C_9  and  C_11
REMARK   11  A    between atoms: C_11  and  O_12
REMARK   12  A    between atoms: C_11  and  C_13
REMARK   13  A    between atoms: C_13  and  O_14
REMARK   14  A    between atoms: N_17  and  C_18
REMARK   15  A    between atoms: C_18  and  C_19
REMARK                            x       y       z     vdW  Elec       q    Type
REMARK                         _______ _______ _______ _____ _____    ______ ____
ROOT
ATOM      1  O   UNL     1       4.664   7.112  16.243  0.00  0.00    +0.000 OA
ATOM      2  C   UNL     1       4.397   6.051  16.805  0.00  0.00    +0.000 C 
ENDROOT
BRANCH   2   3
ATOM      3  C   UNL     1       3.411   5.924  17.901  0.00  0.00    +0.000 A 
ATOM      4  N   UNL     1       3.241   6.876  18.842  0.00  0.00    +0.000 NA
ATOM      5  N   UNL     1       2.354   6.349  19.714  0.00  0.00    +0.000 N 
ATOM      6  C   UNL     1       1.959   5.069  19.394  0.00  0.00    +0.000 A 
ATOM      7  C   UNL     1       1.147   4.135  20.063  0.00  0.00    +0.000 A 
ATOM      8  C   UNL     1       0.993   2.875  19.484  0.00  0.00    +0.000 A 
ATOM      9  C   UNL     1       1.603   2.564  18.269  0.00  0.00    +0.000 A 
ATOM     10  C   UNL     1       2.401   3.506  17.610  0.00  0.00    +0.000 A 
ATOM     11  C   UNL     1       2.601   4.778  18.193  0.00  0.00    +0.000 A 
BRANCH   5  12
ATOM     12  C   UNL     1       2.106   7.040  20.979  0.00  0.00    +0.000 C 
BRANCH  12  13
ATOM     13  C   UNL     1       1.204   8.246  20.868  0.00  0.00    +0.000 A 
ATOM     14  C   UNL     1       0.461   8.688  21.978  0.00  0.00    +0.000 A 
ATOM     15  C   UNL     1      -0.278   9.873  21.914  0.00  0.00    +0.000 A 
ATOM     16 CL   UNL     1      -1.147  10.408  23.300  0.00  0.00    +0.000 Cl
ATOM     17  C   UNL     1      -0.296  10.638  20.752  0.00  0.00    +0.000 A 
ATOM     18  C   UNL     1       0.427  10.204  19.645  0.00  0.00    +0.000 A 
ATOM     19 CL   UNL     1       0.437  11.156  18.212  0.00  0.00    +0.000 Cl
ATOM     20  C   UNL     1       1.171   9.021  19.696  0.00  0.00    +0.000 A 
ENDBRANCH  12  13
ENDBRANCH   5  12
ENDBRANCH   2   3
BRANCH   2  21
ATOM     21  O   UNL     1       4.909   4.849  16.405  0.00  0.00    +0.000 OA
BRANCH  21  22
ATOM     22  C   UNL     1       6.321   4.677  16.074  0.00  0.00    +0.000 C 
BRANCH  22  23
ATOM     23  C   UNL     1       6.582   5.117  14.605  0.00  0.00    +0.000 C 
BRANCH  23  24
ATOM     24  O   UNL     1       7.915   5.573  14.359  0.00  0.00    +0.000 OA
ATOM     25  H   UNL     1       8.316   5.837  15.213  0.00  0.00    +0.000 HD
ENDBRANCH  23  24
BRANCH  23  26
ATOM     26  C   UNL     1       6.253   4.025  13.576  0.00  0.00    +0.000 C 
BRANCH  26  27
ATOM     27  O   UNL     1       5.820   2.837  14.231  0.00  0.00    +0.000 OA
ATOM     28  H   UNL     1       6.280   2.803  15.090  0.00  0.00    +0.000 HD
ENDBRANCH  26  27
ENDBRANCH  23  26
ENDBRANCH  22  23
BRANCH  22  29
ATOM     29  C   UNL     1       7.366   5.225  17.085  0.00  0.00    +0.000 C 
BRANCH  29  30
ATOM     30  O   UNL     1       7.358   6.658  17.158  0.00  0.00    +0.000 OA
ATOM     31  H   UNL     1       7.310   6.983  16.229  0.00  0.00    +0.000 HD
ENDBRANCH  29  30
BRANCH  29  32
ATOM     32  C   UNL     1       7.284   4.614  18.498  0.00  0.00    +0.000 C 
BRANCH  32  33
ATOM     33  O   UNL     1       6.126   3.781  18.594  0.00  0.00    +0.000 OA
ATOM     34  H   UNL     1       5.977   3.638  19.554  0.00  0.00    +0.000 HD
ENDBRANCH  32  33
BRANCH  32  35
ATOM     35  C   UNL     1       7.207   5.707  19.581  0.00  0.00    +0.000 C 
BRANCH  35  36
ATOM     36  O   UNL     1       8.117   5.420  20.644  0.00  0.00    +0.000 OA
ATOM     37  H   UNL     1       7.634   5.592  21.480  0.00  0.00    +0.000 HD
ENDBRANCH  35  36
ENDBRANCH  32  35
ENDBRANCH  29  32
ENDBRANCH  22  29
ENDBRANCH  21  22
ENDBRANCH   2  21
TORSDOF 15
ENDMDL
MODEL 2
REMARK VINA RESULT:      -7.7      0.974      3.427
REMARK  Name = 
REMARK  15 active torsions:
REMARK  status: ('A' for Active; 'I' for Inactive)
REMARK    1  A    between atoms: C_2  and  O_3
REMARK    2  A    between atoms: C_2  and  C_15
REMARK    3  A    between atoms: O_3  and  C_4
REMARK    4  A    between atoms: C_4  and  C_5
REMARK    5  A    between atoms: C_4  and  C_9
REMARK    6  A    between atoms: C_5  and  O_6
REMARK    7  A    between atoms: C_5  and  C_7
REMARK    8  A    between atoms: C_7  and  O_8
REMARK    9  A    between atoms: C_9  and  O_10
REMARK   10  A    between atoms: C_9  and  C_11
REMARK   11  A    between atoms: C_11  and  O_12
REMARK   12  A    between atoms: C_11  and  C_13
REMARK   13  A    between atoms: C_13  and  O_14
REMARK   14  A    between atoms: N_17  and  C_18
REMARK   15  A    between atoms: C_18  and  C_19
REMARK                            x       y       z     vdW  Elec       q    Type
REMARK                         _______ _______ _______ _____ _____    ______ ____
ROOT
ATOM      1  O   UNL     1       4.475   7.099  16.577  0.00  0.00    +0.000 OA
ATOM      2  C   UNL     1       4.306   6.131  17.315  0.00  0.00    +0.000 C 
ENDROOT
BRANCH   2   3
ATOM      3  C   UNL     1       3.251   6.058  18.351  0.00  0.00    +0.000 A 
ATOM      4  N   UNL     1       3.026   7.054  19.232  0.00  0.00    +0.000 NA
ATOM      5  N   UNL     1       2.082   6.571  20.070  0.00  0.00    +0.000 N 
ATOM      6  C   UNL     1       1.702   5.278  19.787  0.00  0.00    +0.000 A 
ATOM      7  C   UNL     1       0.845   4.379  20.446  0.00  0.00    +0.000 A 
ATOM      8  C   UNL     1       0.722   3.092  19.920  0.00  0.00    +0.000 A 
ATOM      9  C   UNL     1       1.407   2.722  18.762  0.00  0.00    +0.000 A 
ATOM     10  C   UNL     1       2.250   3.631  18.111  0.00  0.00    +0.000 A 
ATOM     11  C   UNL     1       2.418   4.929  18.644  0.00  0.00    +0.000 A 
BRANCH   5  12
ATOM     12  C   UNL     1       1.757   7.322  21.282  0.00  0.00    +0.000 C 
BRANCH  12  13
ATOM     13  C   UNL     1       0.946   8.573  21.045  0.00  0.00    +0.000 A 
ATOM     14  C   UNL     1       0.617   8.977  19.738  0.00  0.00    +0.000 A 
ATOM     15  C   UNL     1      -0.235  10.064  19.521  0.00  0.00    +0.000 A 
ATOM     16 CL   UNL     1      -0.649  10.511  17.912  0.00  0.00    +0.000 Cl
ATOM     17  C   UNL     1      -0.773  10.770  20.592  0.00  0.00    +0.000 A 
ATOM     18  C   UNL     1      -0.446  10.386  21.889  0.00  0.00    +0.000 A 
ATOM     19 CL   UNL     1      -1.128  11.232  23.222  0.00  0.00    +0.000 Cl
ATOM     20  C   UNL     1       0.405   9.300  22.120  0.00  0.00    +0.000 A 
ENDBRANCH  12  13
ENDBRANCH   5  12
ENDBRANCH   2   3
BRANCH   2  21
ATOM     21  O   UNL     1       5.010   4.967  17.188  0.00  0.00    +0.000 OA
BRANCH  21  22
ATOM     22  C   UNL     1       6.435   4.952  16.867  0.00  0.00    +0.000 C 
BRANCH  22  23
ATOM     23  C   UNL     1       7.267   4.652  18.146  0.00  0.00    +0.000 C 
BRANCH  23  24
ATOM     24  O   UNL     1       8.512   3.994  17.893  0.00  0.00    +0.000 OA
ATOM     25  H   UNL     1       8.402   3.039  18.081  0.00  0.00    +0.000 HD
ENDBRANCH  23  24
BRANCH  23  26
ATOM     26  C   UNL     1       7.551   5.901  18.993  0.00  0.00    +0.000 C 
BRANCH  26  27
ATOM     27  O   UNL     1       7.980   5.531  20.299  0.00  0.00    +0.000 OA
ATOM     28  H   UNL     1       8.244   4.594  20.256  0.00  0.00    +0.000 HD
ENDBRANCH  26  27
ENDBRANCH  23  26
ENDBRANCH  22  23
BRANCH  22  29
ATOM     29  C   UNL     1       6.881   4.132  15.624  0.00  0.00    +0.000 C 
BRANCH  29  30
ATOM     30  O   UNL     1       6.171   2.892  15.503  0.00  0.00    +0.000 OA
ATOM     31  H   UNL     1       5.212   3.118  15.524  0.00  0.00    +0.000 HD
ENDBRANCH  29  30
BRANCH  29  32
ATOM     32  C   UNL     1       6.847   4.905  14.291  0.00  0.00    +0.000 C 
BRANCH  32  33
ATOM     33  O   UNL     1       5.823   5.901  14.340  0.00  0.00    +0.000 OA
ATOM     34  H   UNL     1       6.072   6.506  15.073  0.00  0.00    +0.000 HD
ENDBRANCH  32  33
BRANCH  32  35
ATOM     35  C   UNL     1       6.575   3.964  13.102  0.00  0.00    +0.000 C 
BRANCH  35  36
ATOM     36  O   UNL     1       5.170   3.766  12.934  0.00  0.00    +0.000 OA
ATOM     37  H   UNL     1       4.947   2.931  13.396  0.00  0.00    +0.000 HD
ENDBRANCH  35  36
ENDBRANCH  32  35
ENDBRANCH  29  32
ENDBRANCH  22  29
ENDBRANCH  21  22
ENDBRANCH   2  21
TORSDOF 15
ENDMDL
MODEL 3
REMARK VINA RESULT:      -7.5      3.282      5.513
REMARK  Name = 
REMARK  15 active torsions:
REMARK  status: ('A' for Active; 'I' for Inactive)
REMARK    1  A    between atoms: C_2  and  O_3
REMARK    2  A    between atoms: C_2  and  C_15
REMARK    3  A    between atoms: O_3  and  C_4
REMARK    4  A    between atoms: C_4  and  C_5
REMARK    5  A    between atoms: C_4  and  C_9
REMARK    6  A    between atoms: C_5  and  O_6
REMARK    7  A    between atoms: C_5  and  C_7
REMARK    8  A    between atoms: C_7  and  O_8
REMARK    9  A    between atoms: C_9  and  O_10
REMARK   10  A    between atoms: C_9  and  C_11
REMARK   11  A    between atoms: C_11  and  O_12
REMARK   12  A    between atoms: C_11  and  C_13
REMARK   13  A    between atoms: C_13  and  O_14
REMARK   14  A    between atoms: N_17  and  C_18
REMARK   15  A    between atoms: C_18  and  C_19
REMARK                            x       y       z     vdW  Elec       q    Type
REMARK                         _______ _______ _______ _____ _____    ______ ____
ROOT
ATOM      1  O   UNL     1       3.270   8.103  17.359  0.00  0.00    +0.000 OA
ATOM      2  C   UNL     1       2.554   7.875  18.333  0.00  0.00    +0.000 C 
ENDROOT
BRANCH   2   3
ATOM      3  C   UNL     1       1.491   8.789  18.807  0.00  0.00    +0.000 A 
ATOM      4  N   UNL     1       0.866   9.664  17.992  0.00  0.00    +0.000 NA
ATOM      5  N   UNL     1       0.061  10.383  18.805  0.00  0.00    +0.000 N 
ATOM      6  C   UNL     1       0.160  10.030  20.132  0.00  0.00    +0.000 A 
ATOM      7  C   UNL     1      -0.409  10.571  21.300  0.00  0.00    +0.000 A 
ATOM      8  C   UNL     1      -0.048  10.004  22.523  0.00  0.00    +0.000 A 
ATOM      9  C   UNL     1       0.826   8.919  22.581  0.00  0.00    +0.000 A 
ATOM     10  C   UNL     1       1.378   8.385  21.410  0.00  0.00    +0.000 A 
ATOM     11  C   UNL     1       1.056   8.963  20.161  0.00  0.00    +0.000 A 
BRANCH   5  12
ATOM     12  C   UNL     1      -0.607  11.570  18.274  0.00  0.00    +0.000 C 
BRANCH  12  13
ATOM     13  C   UNL     1      -2.027  11.337  17.815  0.00  0.00    +0.000 A 
ATOM     14  C   UNL     1      -3.113  11.751  18.609  0.00  0.00    +0.000 A 
ATOM     15  C   UNL     1      -4.423  11.648  18.133  0.00  0.00    +0.000 A 
ATOM     16 CL   UNL     1      -5.728  12.197  19.111  0.00  0.00    +0.000 Cl
ATOM     17  C   UNL     1      -4.681  11.133  16.867  0.00  0.00    +0.000 A 
ATOM     18  C   UNL     1      -3.615  10.712  16.077  0.00  0.00    +0.000 A 
ATOM     19 CL   UNL     1      -3.919  10.100  14.498  0.00  0.00    +0.000 Cl
ATOM     20  C   UNL     1      -2.299  10.809  16.541  0.00  0.00    +0.000 A 
ENDBRANCH  12  13
ENDBRANCH   5  12
ENDBRANCH   2   3
BRANCH   2  21
ATOM     21  O   UNL     1       2.594   6.697  19.025  0.00  0.00    +0.000 OA
BRANCH  21  22
ATOM     22  C   UNL     1       2.533   5.401  18.355  0.00  0.00    +0.000 C 
BRANCH  22  23
ATOM     23  C   UNL     1       3.962   4.951  17.935  0.00  0.00    +0.000 C 
BRANCH  23  24
ATOM     24  O   UNL     1       4.450   5.584  16.749  0.00  0.00    +0.000 OA
ATOM     25  H   UNL     1       5.430   5.582  16.777  0.00  0.00    +0.000 HD
ENDBRANCH  23  24
BRANCH  23  26
ATOM     26  C   UNL     1       5.009   5.139  19.043  0.00  0.00    +0.000 C 
BRANCH  26  27
ATOM     27  O   UNL     1       5.929   4.053  19.050  0.00  0.00    +0.000 OA
ATOM     28  H   UNL     1       6.644   4.291  19.668  0.00  0.00    +0.000 HD
ENDBRANCH  26  27
ENDBRANCH  23  26
ENDBRANCH  22  23
BRANCH  22  29
ATOM     29  C   UNL     1       1.700   4.280  19.037  0.00  0.00    +0.000 C 
BRANCH  29  30
ATOM     30  O   UNL     1       2.241   2.973  18.795  0.00  0.00    +0.000 OA
ATOM     31  H   UNL     1       2.581   2.979  17.870  0.00  0.00    +0.000 HD
ENDBRANCH  29  30
BRANCH  29  32
ATOM     32  C   UNL     1       1.444   4.486  20.543  0.00  0.00    +0.000 C 
BRANCH  32  33
ATOM     33  O   UNL     1       2.582   5.113  21.141  0.00  0.00    +0.000 OA
ATOM     34  H   UNL     1       2.253   5.955  21.524  0.00  0.00    +0.000 HD
ENDBRANCH  32  33
BRANCH  32  35
ATOM     35  C   UNL     1       1.175   3.148  21.256  0.00  0.00    +0.000 C 
BRANCH  35  36
ATOM     36  O   UNL     1       2.334   2.726  21.979  0.00  0.00    +0.000 OA
ATOM     37  H   UNL     1       2.047   1.996  22.567  0.00  0.00    +0.000 HD
ENDBRANCH  35  36
ENDBRANCH  32  35
ENDBRANCH  29  32
ENDBRANCH  22  29
ENDBRANCH  21  22
ENDBRANCH   2  21
TORSDOF 15
ENDMDL
MODEL 4
REMARK VINA RESULT:      -7.4      1.019      1.298
REMARK  Name = 
REMARK  15 active torsions:
REMARK  status: ('A' for Active; 'I' for Inactive)
REMARK    1  A    between atoms: C_2  and  O_3
REMARK    2  A    between atoms: C_2  and  C_15
REMARK    3  A    between atoms: O_3  and  C_4
REMARK    4  A    between atoms: C_4  and  C_5
REMARK    5  A    between atoms: C_4  and  C_9
REMARK    6  A    between atoms: C_5  and  O_6
REMARK    7  A    between atoms: C_5  and  C_7
REMARK    8  A    between atoms: C_7  and  O_8
REMARK    9  A    between atoms: C_9  and  O_10
REMARK   10  A    between atoms: C_9  and  C_11
REMARK   11  A    between atoms: C_11  and  O_12
REMARK   12  A    between atoms: C_11  and  C_13
REMARK   13  A    between atoms: C_13  and  O_14
REMARK   14  A    between atoms: N_17  and  C_18
REMARK   15  A    between atoms: C_18  and  C_19
REMARK                            x       y       z     vdW  Elec       q    Type
REMARK                         _______ _______ _______ _____ _____    ______ ____
ROOT
ATOM      1  O   UNL     1       4.563   2.713  16.479  0.00  0.00    +0.000 OA
ATOM      2  C   UNL     1       4.359   3.921  16.578  0.00  0.00    +0.000 C 
ENDROOT
BRANCH   2   3
ATOM      3  C   UNL     1       3.530   4.534  17.639  0.00  0.00    +0.000 A 
ATOM      4  N   UNL     1       3.785   5.758  18.148  0.00  0.00    +0.000 NA
ATOM      5  N   UNL     1       2.896   5.909  19.154  0.00  0.00    +0.000 N 
ATOM      6  C   UNL     1       2.085   4.813  19.344  0.00  0.00    +0.000 A 
ATOM      7  C   UNL     1       1.114   4.511  20.316  0.00  0.00    +0.000 A 
ATOM      8  C   UNL     1       0.504   3.257  20.259  0.00  0.00    +0.000 A 
ATOM      9  C   UNL     1       0.827   2.347  19.254  0.00  0.00    +0.000 A 
ATOM     10  C   UNL     1       1.789   2.664  18.287  0.00  0.00    +0.000 A 
ATOM     11  C   UNL     1       2.447   3.913  18.343  0.00  0.00    +0.000 A 
BRANCH   5  12
ATOM     12  C   UNL     1       3.038   7.047  20.061  0.00  0.00    +0.000 C 
BRANCH  12  13
ATOM     13  C   UNL     1       1.823   7.940  20.142  0.00  0.00    +0.000 A 
ATOM     14  C   UNL     1       1.193   8.181  21.377  0.00  0.00    +0.000 A 
ATOM     15  C   UNL     1       0.145   9.102  21.474  0.00  0.00    +0.000 A 
ATOM     16 CL   UNL     1      -0.580   9.405  23.005  0.00  0.00    +0.000 Cl
ATOM     17  C   UNL     1      -0.297   9.795  20.353  0.00  0.00    +0.000 A 
ATOM     18  C   UNL     1       0.312   9.557  19.125  0.00  0.00    +0.000 A 
ATOM     19 CL   UNL     1      -0.207  10.430  17.736  0.00  0.00    +0.000 Cl
ATOM     20  C   UNL     1       1.361   8.639  19.013  0.00  0.00    +0.000 A 
ENDBRANCH  12  13
ENDBRANCH   5  12
ENDBRANCH   2   3
BRANCH   2  21
ATOM     21  O   UNL     1       4.966   4.845  15.774  0.00  0.00    +0.000 OA
BRANCH  21  22
ATOM     22  C   UNL     1       6.419   4.969  15.693  0.00  0.00    +0.000 C 
BRANCH  22  23
ATOM     23  C   UNL     1       6.842   5.339  14.242  0.00  0.00    +0.000 C 
BRANCH  23  24
ATOM     24  O   UNL     1       8.247   5.552  14.079  0.00  0.00    +0.000 OA
ATOM     25  H   UNL     1       8.381   6.214  13.369  0.00  0.00    +0.000 HD
ENDBRANCH  23  24
BRANCH  23  26
ATOM     26  C   UNL     1       6.390   4.310  13.196  0.00  0.00    +0.000 C 
BRANCH  26  27
ATOM     27  O   UNL     1       6.136   3.052  13.812  0.00  0.00    +0.000 OA
ATOM     28  H   UNL     1       6.514   3.093  14.710  0.00  0.00    +0.000 HD
ENDBRANCH  26  27
ENDBRANCH  23  26
ENDBRANCH  22  23
BRANCH  22  29
ATOM     29  C   UNL     1       7.129   5.815  16.786  0.00  0.00    +0.000 C 
BRANCH  29  30
ATOM     30  O   UNL     1       6.360   6.963  17.174  0.00  0.00    +0.000 OA
ATOM     31  H   UNL     1       6.067   7.397  16.339  0.00  0.00    +0.000 HD
ENDBRANCH  29  30
BRANCH  29  32
ATOM     32  C   UNL     1       7.578   5.023  18.029  0.00  0.00    +0.000 C 
BRANCH  32  33
ATOM     33  O   UNL     1       6.634   3.985  18.304  0.00  0.00    +0.000 OA
ATOM     34  H   UNL     1       7.166   3.198  18.551  0.00  0.00    +0.000 HD
ENDBRANCH  32  33
BRANCH  32  35
ATOM     35  C   UNL     1       7.695   5.935  19.265  0.00  0.00    +0.000 C 
BRANCH  35  36
ATOM     36  O   UNL     1       8.483   7.088  18.961  0.00  0.00    +0.000 OA
ATOM     37  H   UNL     1       7.901   7.703  18.466  0.00  0.00    +0.000 HD
ENDBRANCH  35  36
ENDBRANCH  32  35
ENDBRANCH  29  32
ENDBRANCH  22  29
ENDBRANCH  21  22
ENDBRANCH   2  21
TORSDOF 15
ENDMDL
MODEL 5
REMARK VINA RESULT:      -7.3      4.596      8.257
REMARK  Name = 
REMARK  15 active torsions:
REMARK  status: ('A' for Active; 'I' for Inactive)
REMARK    1  A    between atoms: C_2  and  O_3
REMARK    2  A    between atoms: C_2  and  C_15
REMARK    3  A    between atoms: O_3  and  C_4
REMARK    4  A    between atoms: C_4  and  C_5
REMARK    5  A    between atoms: C_4  and  C_9
REMARK    6  A    between atoms: C_5  and  O_6
REMARK    7  A    between atoms: C_5  and  C_7
REMARK    8  A    between atoms: C_7  and  O_8
REMARK    9  A    between atoms: C_9  and  O_10
REMARK   10  A    between atoms: C_9  and  C_11
REMARK   11  A    between atoms: C_11  and  O_12
REMARK   12  A    between atoms: C_11  and  C_13
REMARK   13  A    between atoms: C_13  and  O_14
REMARK   14  A    between atoms: N_17  and  C_18
REMARK   15  A    between atoms: C_18  and  C_19
REMARK                            x       y       z     vdW  Elec       q    Type
REMARK                         _______ _______ _______ _____ _____    ______ ____
ROOT
ATOM      1  O   UNL     1       0.021   7.770  21.743  0.00  0.00    +0.000 OA
ATOM      2  C   UNL     1       0.929   8.254  21.070  0.00  0.00    +0.000 C 
ENDROOT
BRANCH   2   3
ATOM      3  C   UNL     1       1.736   7.484  20.098  0.00  0.00    +0.000 A 
ATOM      4  N   UNL     1       2.458   8.073  19.122  0.00  0.00    +0.000 NA
ATOM      5  N   UNL     1       2.948   7.051  18.386  0.00  0.00    +0.000 N 
ATOM      6  C   UNL     1       2.547   5.810  18.828  0.00  0.00    +0.000 A 
ATOM      7  C   UNL     1       2.737   4.515  18.313  0.00  0.00    +0.000 A 
ATOM      8  C   UNL     1       2.132   3.452  18.984  0.00  0.00    +0.000 A 
ATOM      9  C   UNL     1       1.387   3.666  20.144  0.00  0.00    +0.000 A 
ATOM     10  C   UNL     1       1.213   4.960  20.651  0.00  0.00    +0.000 A 
ATOM     11  C   UNL     1       1.787   6.057  19.970  0.00  0.00    +0.000 A 
BRANCH   5  12
ATOM     12  C   UNL     1       3.607   7.344  17.115  0.00  0.00    +0.000 C 
BRANCH  12  13
ATOM     13  C   UNL     1       4.902   6.600  16.893  0.00  0.00    +0.000 A 
ATOM     14  C   UNL     1       5.867   6.521  17.914  0.00  0.00    +0.000 A 
ATOM     15  C   UNL     1       7.010   5.732  17.755  0.00  0.00    +0.000 A 
ATOM     16 CL   UNL     1       8.154   5.625  19.036  0.00  0.00    +0.000 Cl
ATOM     17  C   UNL     1       7.218   5.011  16.584  0.00  0.00    +0.000 A 
ATOM     18  C   UNL     1       6.275   5.090  15.563  0.00  0.00    +0.000 A 
ATOM     19 CL   UNL     1       6.507   4.180  14.122  0.00  0.00    +0.000 Cl
ATOM     20  C   UNL     1       5.128   5.875  15.709  0.00  0.00    +0.000 A 
ENDBRANCH  12  13
ENDBRANCH   5  12
ENDBRANCH   2   3
BRANCH   2  21
ATOM     21  O   UNL     1       1.223   9.588  21.070  0.00  0.00    +0.000 OA
BRANCH  21  22
ATOM     22  C   UNL     1       0.217  10.606  20.780  0.00  0.00    +0.000 C 
BRANCH  22  23
ATOM     23  C   UNL     1      -0.130  11.397  22.074  0.00  0.00    +0.000 C 
BRANCH  23  24
ATOM     24  O   UNL     1      -0.806  12.635  21.839  0.00  0.00    +0.000 OA
ATOM     25  H   UNL     1      -1.323  12.864  22.639  0.00  0.00    +0.000 HD
ENDBRANCH  23  24
BRANCH  23  26
ATOM     26  C   UNL     1      -0.959  10.584  23.079  0.00  0.00    +0.000 C 
BRANCH  26  27
ATOM     27  O   UNL     1      -0.109   9.792  23.901  0.00  0.00    +0.000 OA
ATOM     28  H   UNL     1       0.736  10.272  23.981  0.00  0.00    +0.000 HD
ENDBRANCH  26  27
ENDBRANCH  23  26
ENDBRANCH  22  23
BRANCH  22  29
ATOM     29  C   UNL     1       0.450  11.511  19.538  0.00  0.00    +0.000 C 
BRANCH  29  30
ATOM     30  O   UNL     1       1.709  11.252  18.900  0.00  0.00    +0.000 OA
ATOM     31  H   UNL     1       1.968  12.087  18.447  0.00  0.00    +0.000 HD
ENDBRANCH  29  30
BRANCH  29  32
ATOM     32  C   UNL     1      -0.691  11.496  18.502  0.00  0.00    +0.000 C 
BRANCH  32  33
ATOM     33  O   UNL     1      -1.885  12.012  19.096  0.00  0.00    +0.000 OA
ATOM     34  H   UNL     1      -2.007  11.510  19.931  0.00  0.00    +0.000 HD
ENDBRANCH  32  33
BRANCH  32  35
ATOM     35  C   UNL     1      -0.963  10.071  17.983  0.00  0.00    +0.000 C 
BRANCH  35  36
ATOM     36  O   UNL     1       0.234   9.497  17.455  0.00  0.00    +0.000 OA
ATOM     37  H   UNL     1       0.303   8.595  17.832  0.00  0.00    +0.000 HD
ENDBRANCH  35  36
ENDBRANCH  32  35
ENDBRANCH  29  32
ENDBRANCH  22  29
ENDBRANCH  21  22
ENDBRANCH   2  21
TORSDOF 15
ENDMDL
MODEL 6
REMARK VINA RESULT:      -7.2      3.285      5.932
REMARK  Name = 
REMARK  15 active torsions:
REMARK  status: ('A' for Active; 'I' for Inactive)
REMARK    1  A    between atoms: C_2  and  O_3
REMARK    2  A    between atoms: C_2  and  C_15
REMARK    3  A    between atoms: O_3  and  C_4
REMARK    4  A    between atoms: C_4  and  C_5
REMARK    5  A    between atoms: C_4  and  C_9
REMARK    6  A    between atoms: C_5  and  O_6
REMARK    7  A    between atoms: C_5  and  C_7
REMARK    8  A    between atoms: C_7  and  O_8
REMARK    9  A    between atoms: C_9  and  O_10
REMARK   10  A    between atoms: C_9  and  C_11
REMARK   11  A    between atoms: C_11  and  O_12
REMARK   12  A    between atoms: C_11  and  C_13
REMARK   13  A    between atoms: C_13  and  O_14
REMARK   14  A    between atoms: N_17  and  C_18
REMARK   15  A    between atoms: C_18  and  C_19
REMARK                            x       y       z     vdW  Elec       q    Type
REMARK                         _______ _______ _______ _____ _____    ______ ____
ROOT
ATOM      1  O   UNL     1       3.351   7.896  17.573  0.00  0.00    +0.000 OA
ATOM      2  C   UNL     1       2.385   7.640  18.289  0.00  0.00    +0.000 C 
ENDROOT
BRANCH   2   3
ATOM      3  C   UNL     1       1.420   8.655  18.768  0.00  0.00    +0.000 A 
ATOM      4  N   UNL     1       0.857   9.568  17.950  0.00  0.00    +0.000 NA
ATOM      5  N   UNL     1       0.141  10.372  18.766  0.00  0.00    +0.000 N 
ATOM      6  C   UNL     1       0.241  10.037  20.097  0.00  0.00    +0.000 A 
ATOM      7  C   UNL     1      -0.247  10.650  21.266  0.00  0.00    +0.000 A 
ATOM      8  C   UNL     1       0.093  10.076  22.492  0.00  0.00    +0.000 A 
ATOM      9  C   UNL     1       0.867   8.917  22.552  0.00  0.00    +0.000 A 
ATOM     10  C   UNL     1       1.338   8.313  21.380  0.00  0.00    +0.000 A 
ATOM     11  C   UNL     1       1.038   8.894  20.128  0.00  0.00    +0.000 A 
BRANCH   5  12
ATOM     12  C   UNL     1      -0.430  11.604  18.225  0.00  0.00    +0.000 C 
BRANCH  12  13
ATOM     13  C   UNL     1      -1.876  11.493  17.803  0.00  0.00    +0.000 A 
ATOM     14  C   UNL     1      -2.215  10.977  16.538  0.00  0.00    +0.000 A 
ATOM     15  C   UNL     1      -3.552  10.759  16.192  0.00  0.00    +0.000 A 
ATOM     16 CL   UNL     1      -3.933  10.092  14.653  0.00  0.00    +0.000 Cl
ATOM     17  C   UNL     1      -4.574  11.050  17.090  0.00  0.00    +0.000 A 
ATOM     18  C   UNL     1      -4.250  11.570  18.339  0.00  0.00    +0.000 A 
ATOM     19 CL   UNL     1      -5.504  11.906  19.469  0.00  0.00    +0.000 Cl
ATOM     20  C   UNL     1      -2.917  11.793  18.698  0.00  0.00    +0.000 A 
ENDBRANCH  12  13
ENDBRANCH   5  12
ENDBRANCH   2   3
BRANCH   2  21
ATOM     21  O   UNL     1       2.035   6.365  18.636  0.00  0.00    +0.000 OA
BRANCH  21  22
ATOM     22  C   UNL     1       2.998   5.420  19.194  0.00  0.00    +0.000 C 
BRANCH  22  23
ATOM     23  C   UNL     1       2.342   4.610  20.350  0.00  0.00    +0.000 C 
BRANCH  23  24
ATOM     24  O   UNL     1       2.739   5.030  21.658  0.00  0.00    +0.000 OA
ATOM     25  H   UNL     1       2.261   5.857  21.877  0.00  0.00    +0.000 HD
ENDBRANCH  23  24
BRANCH  23  26
ATOM     26  C   UNL     1       0.807   4.608  20.294  0.00  0.00    +0.000 C 
BRANCH  26  27
ATOM     27  O   UNL     1       0.317   3.287  20.087  0.00  0.00    +0.000 OA
ATOM     28  H   UNL     1      -0.422   3.354  19.456  0.00  0.00    +0.000 HD
ENDBRANCH  26  27
ENDBRANCH  23  26
ENDBRANCH  22  23
BRANCH  22  29
ATOM     29  C   UNL     1       3.803   4.543  18.196  0.00  0.00    +0.000 C 
BRANCH  29  30
ATOM     30  O   UNL     1       4.916   3.887  18.819  0.00  0.00    +0.000 OA
ATOM     31  H   UNL     1       5.522   4.600  19.127  0.00  0.00    +0.000 HD
ENDBRANCH  29  30
BRANCH  29  32
ATOM     32  C   UNL     1       2.960   3.530  17.396  0.00  0.00    +0.000 C 
BRANCH  32  33
ATOM     33  O   UNL     1       1.622   4.015  17.269  0.00  0.00    +0.000 OA
ATOM     34  H   UNL     1       1.621   4.909  17.674  0.00  0.00    +0.000 HD
ENDBRANCH  32  33
BRANCH  32  35
ATOM     35  C   UNL     1       2.932   2.153  18.086  0.00  0.00    +0.000 C 
BRANCH  35  36
ATOM     36  O   UNL     1       4.134   1.432  17.810  0.00  0.00    +0.000 OA
ATOM     37  H   UNL     1       3.959   0.495  18.040  0.00  0.00    +0.000 HD
ENDBRANCH  35  36
ENDBRANCH  32  35
ENDBRANCH  29  32
ENDBRANCH  22  29
ENDBRANCH  21  22
ENDBRANCH   2  21
TORSDOF 15
ENDMDL
MODEL 7
REMARK VINA RESULT:      -7.2      4.715      8.252
REMARK  Name = 
REMARK  15 active torsions:
REMARK  status: ('A' for Active; 'I' for Inactive)
REMARK    1  A    between atoms: C_2  and  O_3
REMARK    2  A    between atoms: C_2  and  C_15
REMARK    3  A    between atoms: O_3  and  C_4
REMARK    4  A    between atoms: C_4  and  C_5
REMARK    5  A    between atoms: C_4  and  C_9
REMARK    6  A    between atoms: C_5  and  O_6
REMARK    7  A    between atoms: C_5  and  C_7
REMARK    8  A    between atoms: C_7  and  O_8
REMARK    9  A    between atoms: C_9  and  O_10
REMARK   10  A    between atoms: C_9  and  C_11
REMARK   11  A    between atoms: C_11  and  O_12
REMARK   12  A    between atoms: C_11  and  C_13
REMARK   13  A    between atoms: C_13  and  O_14
REMARK   14  A    between atoms: N_17  and  C_18
REMARK   15  A    between atoms: C_18  and  C_19
REMARK                            x       y       z     vdW  Elec       q    Type
REMARK                         _______ _______ _______ _____ _____    ______ ____
ROOT
ATOM      1  O   UNL     1       1.399   8.503  22.195  0.00  0.00    +0.000 OA
ATOM      2  C   UNL     1       1.213   8.526  20.980  0.00  0.00    +0.000 C 
ENDROOT
BRANCH   2   3
ATOM      3  C   UNL     1       1.915   7.642  20.022  0.00  0.00    +0.000 A 
ATOM      4  N   UNL     1       2.634   8.119  18.984  0.00  0.00    +0.000 NA
ATOM      5  N   UNL     1       3.012   7.023  18.290  0.00  0.00    +0.000 N 
ATOM      6  C   UNL     1       2.540   5.844  18.821  0.00  0.00    +0.000 A 
ATOM      7  C   UNL     1       2.610   4.511  18.375  0.00  0.00    +0.000 A 
ATOM      8  C   UNL     1       1.959   3.537  19.133  0.00  0.00    +0.000 A 
ATOM      9  C   UNL     1       1.286   3.872  20.307  0.00  0.00    +0.000 A 
ATOM     10  C   UNL     1       1.232   5.201  20.744  0.00  0.00    +0.000 A 
ATOM     11  C   UNL     1       1.854   6.211  19.976  0.00  0.00    +0.000 A 
BRANCH   5  12
ATOM     12  C   UNL     1       3.632   7.193  16.977  0.00  0.00    +0.000 C 
BRANCH  12  13
ATOM     13  C   UNL     1       4.918   6.425  16.786  0.00  0.00    +0.000 A 
ATOM     14  C   UNL     1       5.890   6.391  17.804  0.00  0.00    +0.000 A 
ATOM     15  C   UNL     1       7.024   5.583  17.679  0.00  0.00    +0.000 A 
ATOM     16 CL   UNL     1       8.175   5.532  18.957  0.00  0.00    +0.000 Cl
ATOM     17  C   UNL     1       7.217   4.800  16.546  0.00  0.00    +0.000 A 
ATOM     18  C   UNL     1       6.268   4.834  15.529  0.00  0.00    +0.000 A 
ATOM     19 CL   UNL     1       6.480   3.848  14.136  0.00  0.00    +0.000 Cl
ATOM     20  C   UNL     1       5.128   5.638  15.641  0.00  0.00    +0.000 A 
ENDBRANCH  12  13
ENDBRANCH   5  12
ENDBRANCH   2   3
BRANCH   2  21
ATOM     21  O   UNL     1       0.257   9.301  20.389  0.00  0.00    +0.000 OA
BRANCH  21  22
ATOM     22  C   UNL     1       0.371  10.755  20.316  0.00  0.00    +0.000 C 
BRANCH  22  23
ATOM     23  C   UNL     1       0.106  11.239  18.861  0.00  0.00    +0.000 C 
BRANCH  23  24
ATOM     24  O   UNL     1       0.786  10.479  17.858  0.00  0.00    +0.000 OA
ATOM     25  H   UNL     1       1.670  10.876  17.713  0.00  0.00    +0.000 HD
ENDBRANCH  23  24
BRANCH  23  26
ATOM     26  C   UNL     1      -1.385  11.283  18.498  0.00  0.00    +0.000 C 
BRANCH  26  27
ATOM     27  O   UNL     1      -1.555  11.269  17.085  0.00  0.00    +0.000 OA
ATOM     28  H   UNL     1      -0.665  11.324  16.691  0.00  0.00    +0.000 HD
ENDBRANCH  26  27
ENDBRANCH  23  26
ENDBRANCH  22  23
BRANCH  22  29
ATOM     29  C   UNL     1      -0.373  11.588  21.397  0.00  0.00    +0.000 C 
BRANCH  29  30
ATOM     30  O   UNL     1      -0.124  11.108  22.725  0.00  0.00    +0.000 OA
ATOM     31  H   UNL     1      -0.314  10.141  22.712  0.00  0.00    +0.000 HD
ENDBRANCH  29  30
BRANCH  29  32
ATOM     32  C   UNL     1      -0.135  13.109  21.321  0.00  0.00    +0.000 C 
BRANCH  32  33
ATOM     33  O   UNL     1       1.209  13.404  21.707  0.00  0.00    +0.000 OA
ATOM     34  H   UNL     1       1.301  13.079  22.629  0.00  0.00    +0.000 HD
ENDBRANCH  32  33
BRANCH  32  35
ATOM     35  C   UNL     1      -1.103  13.877  22.242  0.00  0.00    +0.000 C 
BRANCH  35  36
ATOM     36  O   UNL     1      -0.730  13.705  23.610  0.00  0.00    +0.000 OA
ATOM     37  H   UNL     1       0.245  13.601  23.624  0.00  0.00    +0.000 HD
ENDBRANCH  35  36
ENDBRANCH  32  35
ENDBRANCH  29  32
ENDBRANCH  22  29
ENDBRANCH  21  22
ENDBRANCH   2  21
TORSDOF 15
ENDMDL
MODEL 8
REMARK VINA RESULT:      -7.1      4.825      8.435
REMARK  Name = 
REMARK  15 active torsions:
REMARK  status: ('A' for Active; 'I' for Inactive)
REMARK    1  A    between atoms: C_2  and  O_3
REMARK    2  A    between atoms: C_2  and  C_15
REMARK    3  A    between atoms: O_3  and  C_4
REMARK    4  A    between atoms: C_4  and  C_5
REMARK    5  A    between atoms: C_4  and  C_9
REMARK    6  A    between atoms: C_5  and  O_6
REMARK    7  A    between atoms: C_5  and  C_7
REMARK    8  A    between atoms: C_7  and  O_8
REMARK    9  A    between atoms: C_9  and  O_10
REMARK   10  A    between atoms: C_9  and  C_11
REMARK   11  A    between atoms: C_11  and  O_12
REMARK   12  A    between atoms: C_11  and  C_13
REMARK   13  A    between atoms: C_13  and  O_14
REMARK   14  A    between atoms: N_17  and  C_18
REMARK   15  A    between atoms: C_18  and  C_19
REMARK                            x       y       z     vdW  Elec       q    Type
REMARK                         _______ _______ _______ _____ _____    ______ ____
ROOT
ATOM      1  O   UNL     1       1.480   8.918  22.008  0.00  0.00    +0.000 OA
ATOM      2  C   UNL     1       1.167   8.686  20.842  0.00  0.00    +0.000 C 
ENDROOT
BRANCH   2   3
ATOM      3  C   UNL     1       1.895   7.741  19.965  0.00  0.00    +0.000 A 
ATOM      4  N   UNL     1       2.650   8.147  18.924  0.00  0.00    +0.000 NA
ATOM      5  N   UNL     1       3.045   7.008  18.314  0.00  0.00    +0.000 N 
ATOM      6  C   UNL     1       2.547   5.867  18.902  0.00  0.00    +0.000 A 
ATOM      7  C   UNL     1       2.622   4.508  18.543  0.00  0.00    +0.000 A 
ATOM      8  C   UNL     1       1.940   3.587  19.338  0.00  0.00    +0.000 A 
ATOM      9  C   UNL     1       1.230   3.999  20.466  0.00  0.00    +0.000 A 
ATOM     10  C   UNL     1       1.171   5.353  20.816  0.00  0.00    +0.000 A 
ATOM     11  C   UNL     1       1.825   6.310  20.008  0.00  0.00    +0.000 A 
BRANCH   5  12
ATOM     12  C   UNL     1       3.709   7.092  17.014  0.00  0.00    +0.000 C 
BRANCH  12  13
ATOM     13  C   UNL     1       4.929   6.213  16.875  0.00  0.00    +0.000 A 
ATOM     14  C   UNL     1       5.186   5.531  15.671  0.00  0.00    +0.000 A 
ATOM     15  C   UNL     1       6.375   4.816  15.498  0.00  0.00    +0.000 A 
ATOM     16 CL   UNL     1       6.678   4.023  14.001  0.00  0.00    +0.000 Cl
ATOM     17  C   UNL     1       7.325   4.761  16.512  0.00  0.00    +0.000 A 
ATOM     18  C   UNL     1       7.077   5.424  17.710  0.00  0.00    +0.000 A 
ATOM     19 CL   UNL     1       8.258   5.389  18.960  0.00  0.00    +0.000 Cl
ATOM     20  C   UNL     1       5.892   6.143  17.897  0.00  0.00    +0.000 A 
ENDBRANCH  12  13
ENDBRANCH   5  12
ENDBRANCH   2   3
BRANCH   2  21
ATOM     21  O   UNL     1       0.044   9.200  20.257  0.00  0.00    +0.000 OA
BRANCH  21  22
ATOM     22  C   UNL     1      -0.208  10.637  20.190  0.00  0.00    +0.000 C 
BRANCH  22  23
ATOM     23  C   UNL     1       1.043  11.373  19.633  0.00  0.00    +0.000 C 
BRANCH  23  24
ATOM     24  O   UNL     1       0.835  12.005  18.366  0.00  0.00    +0.000 OA
ATOM     25  H   UNL     1      -0.118  12.211  18.275  0.00  0.00    +0.000 HD
ENDBRANCH  23  24
BRANCH  23  26
ATOM     26  C   UNL     1       1.613  12.421  20.601  0.00  0.00    +0.000 C 
BRANCH  26  27
ATOM     27  O   UNL     1       0.594  13.326  21.011  0.00  0.00    +0.000 OA
ATOM     28  H   UNL     1       0.208  13.705  20.201  0.00  0.00    +0.000 HD
ENDBRANCH  26  27
ENDBRANCH  23  26
ENDBRANCH  22  23
BRANCH  22  29
ATOM     29  C   UNL     1      -1.545  11.101  19.546  0.00  0.00    +0.000 C 
BRANCH  29  30
ATOM     30  O   UNL     1      -1.609  12.525  19.387  0.00  0.00    +0.000 OA
ATOM     31  H   UNL     1      -1.190  12.727  18.519  0.00  0.00    +0.000 HD
ENDBRANCH  29  30
BRANCH  29  32
ATOM     32  C   UNL     1      -1.908  10.395  18.225  0.00  0.00    +0.000 C 
BRANCH  32  33
ATOM     33  O   UNL     1      -0.726   9.851  17.632  0.00  0.00    +0.000 OA
ATOM     34  H   UNL     1      -0.404  10.532  17.002  0.00  0.00    +0.000 HD
ENDBRANCH  32  33
BRANCH  32  35
ATOM     35  C   UNL     1      -2.568  11.367  17.230  0.00  0.00    +0.000 C 
BRANCH  35  36
ATOM     36  O   UNL     1      -1.595  12.261  16.686  0.00  0.00    +0.000 OA
ATOM     37  H   UNL     1      -1.982  13.161  16.734  0.00  0.00    +0.000 HD
ENDBRANCH  35  36
ENDBRANCH  32  35
ENDBRANCH  29  32
ENDBRANCH  22  29
ENDBRANCH  21  22
ENDBRANCH   2  21
TORSDOF 15
ENDMDL
MODEL 9
REMARK VINA RESULT:      -7.1      1.131      3.222
REMARK  Name = 
REMARK  15 active torsions:
REMARK  status: ('A' for Active; 'I' for Inactive)
REMARK    1  A    between atoms: C_2  and  O_3
REMARK    2  A    between atoms: C_2  and  C_15
REMARK    3  A    between atoms: O_3  and  C_4
REMARK    4  A    between atoms: C_4  and  C_5
REMARK    5  A    between atoms: C_4  and  C_9
REMARK    6  A    between atoms: C_5  and  O_6
REMARK    7  A    between atoms: C_5  and  C_7
REMARK    8  A    between atoms: C_7  and  O_8
REMARK    9  A    between atoms: C_9  and  O_10
REMARK   10  A    between atoms: C_9  and  C_11
REMARK   11  A    between atoms: C_11  and  O_12
REMARK   12  A    between atoms: C_11  and  C_13
REMARK   13  A    between atoms: C_13  and  O_14
REMARK   14  A    between atoms: N_17  and  C_18
REMARK   15  A    between atoms: C_18  and  C_19
REMARK                            x       y       z     vdW  Elec       q    Type
REMARK                         _______ _______ _______ _____ _____    ______ ____
ROOT
ATOM      1  O   UNL     1       3.836   7.622  16.401  0.00  0.00    +0.000 OA
ATOM      2  C   UNL     1       4.030   6.895  17.373  0.00  0.00    +0.000 C 
ENDROOT
BRANCH   2   3
ATOM      3  C   UNL     1       3.035   6.669  18.446  0.00  0.00    +0.000 A 
ATOM      4  N   UNL     1       2.640   7.645  19.290  0.00  0.00    +0.000 NA
ATOM      5  N   UNL     1       1.830   7.029  20.179  0.00  0.00    +0.000 N 
ATOM      6  C   UNL     1       1.705   5.675  19.966  0.00  0.00    +0.000 A 
ATOM      7  C   UNL     1       1.057   4.659  20.692  0.00  0.00    +0.000 A 
ATOM      8  C   UNL     1       1.176   3.349  20.226  0.00  0.00    +0.000 A 
ATOM      9  C   UNL     1       1.892   3.062  19.064  0.00  0.00    +0.000 A 
ATOM     10  C   UNL     1       2.525   4.085  18.346  0.00  0.00    +0.000 A 
ATOM     11  C   UNL     1       2.448   5.415  18.816  0.00  0.00    +0.000 A 
BRANCH   5  12
ATOM     12  C   UNL     1       1.393   7.761  21.366  0.00  0.00    +0.000 C 
BRANCH  12  13
ATOM     13  C   UNL     1       0.600   9.013  21.075  0.00  0.00    +0.000 A 
ATOM     14  C   UNL     1       0.181   9.306  19.764  0.00  0.00    +0.000 A 
ATOM     15  C   UNL     1      -0.655  10.397  19.510  0.00  0.00    +0.000 A 
ATOM     16 CL   UNL     1      -1.181  10.708  17.902  0.00  0.00    +0.000 Cl
ATOM     17  C   UNL     1      -1.089  11.216  20.548  0.00  0.00    +0.000 A 
ATOM     18  C   UNL     1      -0.673  10.941  21.847  0.00  0.00    +0.000 A 
ATOM     19 CL   UNL     1      -1.227  11.928  23.142  0.00  0.00    +0.000 Cl
ATOM     20  C   UNL     1       0.164   9.853  22.114  0.00  0.00    +0.000 A 
ENDBRANCH  12  13
ENDBRANCH   5  12
ENDBRANCH   2   3
BRANCH   2  21
ATOM     21  O   UNL     1       5.152   6.128  17.516  0.00  0.00    +0.000 OA
BRANCH  21  22
ATOM     22  C   UNL     1       6.349   6.347  16.710  0.00  0.00    +0.000 C 
BRANCH  22  23
ATOM     23  C   UNL     1       7.622   6.174  17.588  0.00  0.00    +0.000 C 
BRANCH  23  24
ATOM     24  O   UNL     1       7.999   7.350  18.311  0.00  0.00    +0.000 OA
ATOM     25  H   UNL     1       7.976   8.113  17.696  0.00  0.00    +0.000 HD
ENDBRANCH  23  24
BRANCH  23  26
ATOM     26  C   UNL     1       7.517   5.012  18.587  0.00  0.00    +0.000 C 
BRANCH  26  27
ATOM     27  O   UNL     1       6.892   5.445  19.791  0.00  0.00    +0.000 OA
ATOM     28  H   UNL     1       6.031   5.827  19.542  0.00  0.00    +0.000 HD
ENDBRANCH  26  27
ENDBRANCH  23  26
ENDBRANCH  22  23
BRANCH  22  29
ATOM     29  C   UNL     1       6.434   5.621  15.338  0.00  0.00    +0.000 C 
BRANCH  29  30
ATOM     30  O   UNL     1       7.773   5.222  15.012  0.00  0.00    +0.000 OA
ATOM     31  H   UNL     1       8.034   5.745  14.219  0.00  0.00    +0.000 HD
ENDBRANCH  29  30
BRANCH  29  32
ATOM     32  C   UNL     1       5.463   4.436  15.170  0.00  0.00    +0.000 C 
BRANCH  32  33
ATOM     33  O   UNL     1       5.894   3.344  15.985  0.00  0.00    +0.000 OA
ATOM     34  H   UNL     1       5.075   2.922  16.324  0.00  0.00    +0.000 HD
ENDBRANCH  32  33
BRANCH  32  35
ATOM     35  C   UNL     1       5.391   3.971  13.703  0.00  0.00    +0.000 C 
BRANCH  35  36
ATOM     36  O   UNL     1       6.520   3.156  13.383  0.00  0.00    +0.000 OA
ATOM     37  H   UNL     1       6.461   2.359  13.951  0.00  0.00    +0.000 HD
ENDBRANCH  35  36
ENDBRANCH  32  35
ENDBRANCH  29  32
ENDBRANCH  22  29
ENDBRANCH  21  22
ENDBRANCH   2  21
TORSDOF 15
ENDMDL
