MODEL 1
REMARK VINA RESULT:      -5.0      0.000      0.000
REMARK  Name = 
REMARK  5 active torsions:
REMARK  status: ('A' for Active; 'I' for Inactive)
REMARK    1  A    between atoms: C_1  and  C_2
REMARK    2  A    between atoms: C_5  and  S_6
REMARK    3  A    between atoms: S_6  and  C_7
REMARK    4  A    between atoms: C_7  and  C_8
REMARK    5  A    between atoms: C_8  and  O_9
REMARK                            x       y       z     vdW  Elec       q    Type
REMARK                         _______ _______ _______ _____ _____    ______ ____
ROOT
ATOM      1  C   UNL     1       1.063   3.779  18.207  0.00  0.00    +0.000 C 
ATOM      2  C   UNL     1       2.430   4.250  17.800  0.00  0.00    +0.000 A 
ATOM      3  C   UNL     1       3.350   3.367  17.227  0.00  0.00    +0.000 A 
ATOM      4  C   UNL     1       4.625   3.809  16.855  0.00  0.00    +0.000 A 
ATOM      5  C   UNL     1       4.994   5.143  17.043  0.00  0.00    +0.000 A 
ATOM      6  C   UNL     1       4.084   6.022  17.633  0.00  0.00    +0.000 A 
ATOM      7  C   UNL     1       2.806   5.581  18.005  0.00  0.00    +0.000 A 
ENDROOT
BRANCH   5   8
ATOM      8  S   UNL     1       6.629   5.726  16.620  0.00  0.00    +0.000 S 
BRANCH   8   9
ATOM      9  C   UNL     1       7.614   4.992  17.983  0.00  0.00    +0.000 C 
BRANCH   9  10
ATOM     10  C   UNL     1       7.841   6.027  19.084  0.00  0.00    +0.000 C 
BRANCH  10  11
ATOM     11  O   UNL     1       7.955   5.412  20.364  0.00  0.00    +0.000 OA
ATOM     12  H   UNL     1       7.311   4.679  20.377  0.00  0.00    +0.000 HD
ENDBRANCH  10  11
ENDBRANCH   9  10
ENDBRANCH   8   9
ENDBRANCH   5   8
TORSDOF 4
ENDMDL
MODEL 2
REMARK VINA RESULT:      -4.9      1.338      1.855
REMARK  Name = 
REMARK  5 active torsions:
REMARK  status: ('A' for Active; 'I' for Inactive)
REMARK    1  A    between atoms: C_1  and  C_2
REMARK    2  A    between atoms: C_5  and  S_6
REMARK    3  A    between atoms: S_6  and  C_7
REMARK    4  A    between atoms: C_7  and  C_8
REMARK    5  A    between atoms: C_8  and  O_9
REMARK                            x       y       z     vdW  Elec       q    Type
REMARK                         _______ _______ _______ _____ _____    ______ ____
ROOT
ATOM      1  C   UNL     1       0.789   3.367  20.099  0.00  0.00    +0.000 C 
ATOM      2  C   UNL     1       1.958   4.022  19.423  0.00  0.00    +0.000 A 
ATOM      3  C   UNL     1       2.907   4.734  20.162  0.00  0.00    +0.000 A 
ATOM      4  C   UNL     1       3.992   5.348  19.527  0.00  0.00    +0.000 A 
ATOM      5  C   UNL     1       4.148   5.251  18.142  0.00  0.00    +0.000 A 
ATOM      6  C   UNL     1       3.191   4.557  17.399  0.00  0.00    +0.000 A 
ATOM      7  C   UNL     1       2.104   3.940  18.034  0.00  0.00    +0.000 A 
ENDROOT
BRANCH   5   8
ATOM      8  S   UNL     1       5.497   6.063  17.297  0.00  0.00    +0.000 S 
BRANCH   8   9
ATOM      9  C   UNL     1       6.931   5.174  18.016  0.00  0.00    +0.000 C 
BRANCH   9  10
ATOM     10  C   UNL     1       7.717   6.104  18.940  0.00  0.00    +0.000 C 
BRANCH  10  11
ATOM     11  O   UNL     1       7.889   5.532  20.233  0.00  0.00    +0.000 OA
ATOM     12  H   UNL     1       8.839   5.602  20.442  0.00  0.00    +0.000 HD
ENDBRANCH  10  11
ENDBRANCH   9  10
ENDBRANCH   8   9
ENDBRANCH   5   8
TORSDOF 4
ENDMDL
MODEL 3
REMARK VINA RESULT:      -4.9      1.941      2.295
REMARK  Name = 
REMARK  5 active torsions:
REMARK  status: ('A' for Active; 'I' for Inactive)
REMARK    1  A    between atoms: C_1  and  C_2
REMARK    2  A    between atoms: C_5  and  S_6
REMARK    3  A    between atoms: S_6  and  C_7
REMARK    4  A    between atoms: C_7  and  C_8
REMARK    5  A    between atoms: C_8  and  O_9
REMARK                            x       y       z     vdW  Elec       q    Type
REMARK                         _______ _______ _______ _____ _____    ______ ____
ROOT
ATOM      1  C   UNL     1       1.092   3.085  20.742  0.00  0.00    +0.000 C 
ATOM      2  C   UNL     1       2.144   3.332  19.700  0.00  0.00    +0.000 A 
ATOM      3  C   UNL     1       3.489   3.049  19.958  0.00  0.00    +0.000 A 
ATOM      4  C   UNL     1       4.467   3.285  18.987  0.00  0.00    +0.000 A 
ATOM      5  C   UNL     1       4.113   3.801  17.738  0.00  0.00    +0.000 A 
ATOM      6  C   UNL     1       2.774   4.103  17.483  0.00  0.00    +0.000 A 
ATOM      7  C   UNL     1       1.792   3.866  18.456  0.00  0.00    +0.000 A 
ENDROOT
BRANCH   5   8
ATOM      8  S   UNL     1       5.345   4.157  16.493  0.00  0.00    +0.000 S 
BRANCH   8   9
ATOM      9  C   UNL     1       6.112   5.667  17.197  0.00  0.00    +0.000 C 
BRANCH   9  10
ATOM     10  C   UNL     1       7.496   5.342  17.757  0.00  0.00    +0.000 C 
BRANCH  10  11
ATOM     11  O   UNL     1       8.015   4.138  17.202  0.00  0.00    +0.000 OA
ATOM     12  H   UNL     1       7.396   3.869  16.498  0.00  0.00    +0.000 HD
ENDBRANCH  10  11
ENDBRANCH   9  10
ENDBRANCH   8   9
ENDBRANCH   5   8
TORSDOF 4
ENDMDL
MODEL 4
REMARK VINA RESULT:      -4.9      1.865      2.225
REMARK  Name = 
REMARK  5 active torsions:
REMARK  status: ('A' for Active; 'I' for Inactive)
REMARK    1  A    between atoms: C_1  and  C_2
REMARK    2  A    between atoms: C_5  and  S_6
REMARK    3  A    between atoms: S_6  and  C_7
REMARK    4  A    between atoms: C_7  and  C_8
REMARK    5  A    between atoms: C_8  and  O_9
REMARK                            x       y       z     vdW  Elec       q    Type
REMARK                         _______ _______ _______ _____ _____    ______ ____
ROOT
ATOM      1  C   UNL     1       0.942   3.277  20.552  0.00  0.00    +0.000 C 
ATOM      2  C   UNL     1       1.873   4.074  19.686  0.00  0.00    +0.000 A 
ATOM      3  C   UNL     1       1.969   3.822  18.314  0.00  0.00    +0.000 A 
ATOM      4  C   UNL     1       2.843   4.564  17.513  0.00  0.00    +0.000 A 
ATOM      5  C   UNL     1       3.629   5.576  18.070  0.00  0.00    +0.000 A 
ATOM      6  C   UNL     1       3.550   5.817  19.443  0.00  0.00    +0.000 A 
ATOM      7  C   UNL     1       2.673   5.075  20.248  0.00  0.00    +0.000 A 
ENDROOT
BRANCH   5   8
ATOM      8  S   UNL     1       4.787   6.509  17.081  0.00  0.00    +0.000 S 
BRANCH   8   9
ATOM      9  C   UNL     1       6.379   5.905  17.763  0.00  0.00    +0.000 C 
BRANCH   9  10
ATOM     10  C   UNL     1       6.609   4.451  17.355  0.00  0.00    +0.000 C 
BRANCH  10  11
ATOM     11  O   UNL     1       7.994   4.168  17.183  0.00  0.00    +0.000 OA
ATOM     12  H   UNL     1       8.131   4.028  16.227  0.00  0.00    +0.000 HD
ENDBRANCH  10  11
ENDBRANCH   9  10
ENDBRANCH   8   9
ENDBRANCH   5   8
TORSDOF 4
ENDMDL
MODEL 5
REMARK VINA RESULT:      -4.8      2.433      2.709
REMARK  Name = 
REMARK  5 active torsions:
REMARK  status: ('A' for Active; 'I' for Inactive)
REMARK    1  A    between atoms: C_1  and  C_2
REMARK    2  A    between atoms: C_5  and  S_6
REMARK    3  A    between atoms: S_6  and  C_7
REMARK    4  A    between atoms: C_7  and  C_8
REMARK    5  A    between atoms: C_8  and  O_9
REMARK                            x       y       z     vdW  Elec       q    Type
REMARK                         _______ _______ _______ _____ _____    ______ ____
ROOT
ATOM      1  C   UNL     1       1.380   2.816  21.352  0.00  0.00    +0.000 C 
ATOM      2  C   UNL     1       2.464   3.499  20.569  0.00  0.00    +0.000 A 
ATOM      3  C   UNL     1       3.447   2.756  19.908  0.00  0.00    +0.000 A 
ATOM      4  C   UNL     1       4.458   3.396  19.184  0.00  0.00    +0.000 A 
ATOM      5  C   UNL     1       4.496   4.790  19.103  0.00  0.00    +0.000 A 
ATOM      6  C   UNL     1       3.528   5.535  19.778  0.00  0.00    +0.000 A 
ATOM      7  C   UNL     1       2.513   4.895  20.503  0.00  0.00    +0.000 A 
ENDROOT
BRANCH   5   8
ATOM      8  S   UNL     1       5.801   5.637  18.225  0.00  0.00    +0.000 S 
BRANCH   8   9
ATOM      9  C   UNL     1       5.750   4.762  16.614  0.00  0.00    +0.000 C 
BRANCH   9  10
ATOM     10  C   UNL     1       7.170   4.487  16.119  0.00  0.00    +0.000 C 
BRANCH  10  11
ATOM     11  O   UNL     1       8.049   4.180  17.197  0.00  0.00    +0.000 OA
ATOM     12  H   UNL     1       7.870   4.838  17.895  0.00  0.00    +0.000 HD
ENDBRANCH  10  11
ENDBRANCH   9  10
ENDBRANCH   8   9
ENDBRANCH   5   8
TORSDOF 4
ENDMDL
MODEL 6
REMARK VINA RESULT:      -4.8      1.111      1.828
REMARK  Name = 
REMARK  5 active torsions:
REMARK  status: ('A' for Active; 'I' for Inactive)
REMARK    1  A    between atoms: C_1  and  C_2
REMARK    2  A    between atoms: C_5  and  S_6
REMARK    3  A    between atoms: S_6  and  C_7
REMARK    4  A    between atoms: C_7  and  C_8
REMARK    5  A    between atoms: C_8  and  O_9
REMARK                            x       y       z     vdW  Elec       q    Type
REMARK                         _______ _______ _______ _____ _____    ______ ____
ROOT
ATOM      1  C   UNL     1       0.905   2.246  18.848  0.00  0.00    +0.000 C 
ATOM      2  C   UNL     1       1.994   3.211  18.482  0.00  0.00    +0.000 A 
ATOM      3  C   UNL     1       1.700   4.548  18.196  0.00  0.00    +0.000 A 
ATOM      4  C   UNL     1       2.718   5.443  17.849  0.00  0.00    +0.000 A 
ATOM      5  C   UNL     1       4.047   5.016  17.791  0.00  0.00    +0.000 A 
ATOM      6  C   UNL     1       4.341   3.678  18.057  0.00  0.00    +0.000 A 
ATOM      7  C   UNL     1       3.323   2.779  18.405  0.00  0.00    +0.000 A 
ENDROOT
BRANCH   5   8
ATOM      8  S   UNL     1       5.362   6.125  17.306  0.00  0.00    +0.000 S 
BRANCH   8   9
ATOM      9  C   UNL     1       6.822   5.038  17.533  0.00  0.00    +0.000 C 
BRANCH   9  10
ATOM     10  C   UNL     1       7.699   5.567  18.667  0.00  0.00    +0.000 C 
BRANCH  10  11
ATOM     11  O   UNL     1       7.100   5.344  19.940  0.00  0.00    +0.000 OA
ATOM     12  H   UNL     1       6.513   6.105  20.106  0.00  0.00    +0.000 HD
ENDBRANCH  10  11
ENDBRANCH   9  10
ENDBRANCH   8   9
ENDBRANCH   5   8
TORSDOF 4
ENDMDL
MODEL 7
REMARK VINA RESULT:      -4.8      1.781      2.226
REMARK  Name = 
REMARK  5 active torsions:
REMARK  status: ('A' for Active; 'I' for Inactive)
REMARK    1  A    between atoms: C_1  and  C_2
REMARK    2  A    between atoms: C_5  and  S_6
REMARK    3  A    between atoms: S_6  and  C_7
REMARK    4  A    between atoms: C_7  and  C_8
REMARK    5  A    between atoms: C_8  and  O_9
REMARK                            x       y       z     vdW  Elec       q    Type
REMARK                         _______ _______ _______ _____ _____    ______ ____
ROOT
ATOM      1  C   UNL     1       1.279   3.966  20.641  0.00  0.00    +0.000 C 
ATOM      2  C   UNL     1       2.350   4.068  19.595  0.00  0.00    +0.000 A 
ATOM      3  C   UNL     1       2.279   5.036  18.588  0.00  0.00    +0.000 A 
ATOM      4  C   UNL     1       3.277   5.123  17.611  0.00  0.00    +0.000 A 
ATOM      5  C   UNL     1       4.366   4.249  17.632  0.00  0.00    +0.000 A 
ATOM      6  C   UNL     1       4.430   3.268  18.624  0.00  0.00    +0.000 A 
ATOM      7  C   UNL     1       3.431   3.180  19.604  0.00  0.00    +0.000 A 
ENDROOT
BRANCH   5   8
ATOM      8  S   UNL     1       5.631   4.306  16.372  0.00  0.00    +0.000 S 
BRANCH   8   9
ATOM      9  C   UNL     1       6.657   5.697  16.984  0.00  0.00    +0.000 C 
BRANCH   9  10
ATOM     10  C   UNL     1       7.603   5.210  18.081  0.00  0.00    +0.000 C 
BRANCH  10  11
ATOM     11  O   UNL     1       8.292   4.027  17.690  0.00  0.00    +0.000 OA
ATOM     12  H   UNL     1       9.240   4.194  17.849  0.00  0.00    +0.000 HD
ENDBRANCH  10  11
ENDBRANCH   9  10
ENDBRANCH   8   9
ENDBRANCH   5   8
TORSDOF 4
ENDMDL
MODEL 8
REMARK VINA RESULT:      -4.8      3.059      4.951
REMARK  Name = 
REMARK  5 active torsions:
REMARK  status: ('A' for Active; 'I' for Inactive)
REMARK    1  A    between atoms: C_1  and  C_2
REMARK    2  A    between atoms: C_5  and  S_6
REMARK    3  A    between atoms: S_6  and  C_7
REMARK    4  A    between atoms: C_7  and  C_8
REMARK    5  A    between atoms: C_8  and  O_9
REMARK                            x       y       z     vdW  Elec       q    Type
REMARK                         _______ _______ _______ _____ _____    ______ ____
ROOT
ATOM      1  C   UNL     1       7.357   5.058  17.636  0.00  0.00    +0.000 C 
ATOM      2  C   UNL     1       5.912   4.761  17.913  0.00  0.00    +0.000 A 
ATOM      3  C   UNL     1       5.337   5.087  19.145  0.00  0.00    +0.000 A 
ATOM      4  C   UNL     1       3.991   4.803  19.401  0.00  0.00    +0.000 A 
ATOM      5  C   UNL     1       3.198   4.196  18.424  0.00  0.00    +0.000 A 
ATOM      6  C   UNL     1       3.774   3.851  17.200  0.00  0.00    +0.000 A 
ATOM      7  C   UNL     1       5.122   4.136  16.942  0.00  0.00    +0.000 A 
ENDROOT
BRANCH   5   8
ATOM      8  S   UNL     1       1.489   3.779  18.738  0.00  0.00    +0.000 S 
BRANCH   8   9
ATOM      9  C   UNL     1       1.691   2.363  19.887  0.00  0.00    +0.000 C 
BRANCH   9  10
ATOM     10  C   UNL     1       1.375   2.798  21.318  0.00  0.00    +0.000 C 
BRANCH  10  11
ATOM     11  O   UNL     1       2.521   2.705  22.158  0.00  0.00    +0.000 OA
ATOM     12  H   UNL     1       2.281   3.132  23.001  0.00  0.00    +0.000 HD
ENDBRANCH  10  11
ENDBRANCH   9  10
ENDBRANCH   8   9
ENDBRANCH   5   8
TORSDOF 4
ENDMDL
MODEL 9
REMARK VINA RESULT:      -4.8      2.561      3.084
REMARK  Name = 
REMARK  5 active torsions:
REMARK  status: ('A' for Active; 'I' for Inactive)
REMARK    1  A    between atoms: C_1  and  C_2
REMARK    2  A    between atoms: C_5  and  S_6
REMARK    3  A    between atoms: S_6  and  C_7
REMARK    4  A    between atoms: C_7  and  C_8
REMARK    5  A    between atoms: C_8  and  O_9
REMARK                            x       y       z     vdW  Elec       q    Type
REMARK                         _______ _______ _______ _____ _____    ______ ____
ROOT
ATOM      1  C   UNL     1       0.880   3.531  20.034  0.00  0.00    +0.000 C 
ATOM      2  C   UNL     1       2.177   3.854  19.351  0.00  0.00    +0.000 A 
ATOM      3  C   UNL     1       2.211   4.703  18.241  0.00  0.00    +0.000 A 
ATOM      4  C   UNL     1       3.422   4.996  17.605  0.00  0.00    +0.000 A 
ATOM      5  C   UNL     1       4.619   4.451  18.075  0.00  0.00    +0.000 A 
ATOM      6  C   UNL     1       4.586   3.587  19.171  0.00  0.00    +0.000 A 
ATOM      7  C   UNL     1       3.374   3.293  19.811  0.00  0.00    +0.000 A 
ENDROOT
BRANCH   5   8
ATOM      8  S   UNL     1       6.174   4.770  17.255  0.00  0.00    +0.000 S 
BRANCH   8   9
ATOM      9  C   UNL     1       5.604   5.013  15.529  0.00  0.00    +0.000 C 
BRANCH   9  10
ATOM     10  C   UNL     1       6.656   4.493  14.549  0.00  0.00    +0.000 C 
BRANCH  10  11
ATOM     11  O   UNL     1       7.706   5.435  14.360  0.00  0.00    +0.000 OA
ATOM     12  H   UNL     1       8.500   5.051  14.775  0.00  0.00    +0.000 HD
ENDBRANCH  10  11
ENDBRANCH   9  10
ENDBRANCH   8   9
ENDBRANCH   5   8
TORSDOF 4
ENDMDL
