MODEL 1
REMARK VINA RESULT:      -8.9      0.000      0.000
REMARK  Name = 
REMARK  4 active torsions:
REMARK  status: ('A' for Active; 'I' for Inactive)
REMARK    1  A    between atoms: C_1  and  C_2
REMARK    2  A    between atoms: C_4  and  N_5
REMARK    3  A    between atoms: N_5  and  C_6
REMARK    4  A    between atoms: N_5  and  C_7
REMARK                            x       y       z     vdW  Elec       q    Type
REMARK                         _______ _______ _______ _____ _____    ______ ____
ROOT
ATOM      1  N   UNL     1       3.594   4.433  18.314  0.00  0.00    +0.000 N 
ATOM      2  C   UNL     1       2.780   3.213  18.378  0.00  0.00    +0.000 C 
ENDROOT
BRANCH   1   6
ATOM      3  C   UNL     1       6.286   3.908  14.145  0.00  0.00    +0.000 C 
ATOM      4  C   UNL     1       6.203   4.260  15.611  0.00  0.00    +0.000 A 
ATOM      5  C   UNL     1       4.867   4.153  16.269  0.00  0.00    +0.000 A 
ATOM      6  C   UNL     1       4.787   4.489  17.572  0.00  0.00    +0.000 A 
ATOM      7  N   UNL     1       5.986   4.888  18.221  0.00  0.00    +0.000 N 
ATOM      8  N   UNL     1       6.214   5.222  19.522  0.00  0.00    +0.000 NA
ATOM      9  C   UNL     1       7.518   5.488  19.523  0.00  0.00    +0.000 A 
ATOM     10  N   UNL     1       8.159   5.335  18.337  0.00  0.00    +0.000 NA
ATOM     11  C   UNL     1       7.204   4.949  17.520  0.00  0.00    +0.000 A 
ATOM     12  N   UNL     1       7.299   4.636  16.197  0.00  0.00    +0.000 NA
ENDBRANCH   1   6
BRANCH   1  13
ATOM     13  C   UNL     1       2.966   5.591  18.854  0.00  0.00    +0.000 A 
ATOM     14  C   UNL     1       2.413   5.595  20.145  0.00  0.00    +0.000 A 
ATOM     15  C   UNL     1       1.765   6.720  20.664  0.00  0.00    +0.000 A 
ATOM     16  C   UNL     1       1.650   7.888  19.906  0.00  0.00    +0.000 A 
ATOM     17  C   UNL     1       1.000   9.024  20.415  0.00  0.00    +0.000 A 
ATOM     18  C   UNL     1       0.898  10.186  19.652  0.00  0.00    +0.000 A 
ATOM     19  C   UNL     1       1.438  10.223  18.370  0.00  0.00    +0.000 A 
ATOM     20  C   UNL     1       2.086   9.099  17.850  0.00  0.00    +0.000 A 
ATOM     21  C   UNL     1       2.204   7.923  18.609  0.00  0.00    +0.000 A 
ATOM     22  C   UNL     1       2.858   6.778  18.106  0.00  0.00    +0.000 A 
ENDBRANCH   1  13
TORSDOF 2
ENDMDL
MODEL 2
REMARK VINA RESULT:      -8.6      0.630      1.617
REMARK  Name = 
REMARK  4 active torsions:
REMARK  status: ('A' for Active; 'I' for Inactive)
REMARK    1  A    between atoms: C_1  and  C_2
REMARK    2  A    between atoms: C_4  and  N_5
REMARK    3  A    between atoms: N_5  and  C_6
REMARK    4  A    between atoms: N_5  and  C_7
REMARK                            x       y       z     vdW  Elec       q    Type
REMARK                         _______ _______ _______ _____ _____    ______ ____
ROOT
ATOM      1  N   UNL     1       3.572   4.934  18.334  0.00  0.00    +0.000 N 
ATOM      2  C   UNL     1       2.729   3.780  18.667  0.00  0.00    +0.000 C 
ENDROOT
BRANCH   1   6
ATOM      3  C   UNL     1       6.322   3.929  14.293  0.00  0.00    +0.000 C 
ATOM      4  C   UNL     1       6.234   4.309  15.751  0.00  0.00    +0.000 A 
ATOM      5  C   UNL     1       4.870   4.427  16.350  0.00  0.00    +0.000 A 
ATOM      6  C   UNL     1       4.789   4.789  17.646  0.00  0.00    +0.000 A 
ATOM      7  N   UNL     1       6.008   4.998  18.345  0.00  0.00    +0.000 N 
ATOM      8  N   UNL     1       6.230   5.308  19.653  0.00  0.00    +0.000 NA
ATOM      9  C   UNL     1       7.559   5.361  19.711  0.00  0.00    +0.000 A 
ATOM     10  N   UNL     1       8.218   5.092  18.555  0.00  0.00    +0.000 NA
ATOM     11  C   UNL     1       7.249   4.853  17.699  0.00  0.00    +0.000 A 
ATOM     12  N   UNL     1       7.349   4.511  16.383  0.00  0.00    +0.000 NA
ENDBRANCH   1   6
BRANCH   1  13
ATOM     13  C   UNL     1       2.953   6.198  18.547  0.00  0.00    +0.000 A 
ATOM     14  C   UNL     1       2.942   7.190  17.553  0.00  0.00    +0.000 A 
ATOM     15  C   UNL     1       2.365   8.444  17.772  0.00  0.00    +0.000 A 
ATOM     16  C   UNL     1       1.771   8.751  18.999  0.00  0.00    +0.000 A 
ATOM     17  C   UNL     1       1.191  10.008  19.231  0.00  0.00    +0.000 A 
ATOM     18  C   UNL     1       0.596  10.300  20.458  0.00  0.00    +0.000 A 
ATOM     19  C   UNL     1       0.580   9.341  21.466  0.00  0.00    +0.000 A 
ATOM     20  C   UNL     1       1.157   8.086  21.249  0.00  0.00    +0.000 A 
ATOM     21  C   UNL     1       1.754   7.774  20.017  0.00  0.00    +0.000 A 
ATOM     22  C   UNL     1       2.337   6.513  19.773  0.00  0.00    +0.000 A 
ENDBRANCH   1  13
TORSDOF 2
ENDMDL
MODEL 3
REMARK VINA RESULT:      -8.1      1.019      1.043
REMARK  Name = 
REMARK  4 active torsions:
REMARK  status: ('A' for Active; 'I' for Inactive)
REMARK    1  A    between atoms: C_1  and  C_2
REMARK    2  A    between atoms: C_4  and  N_5
REMARK    3  A    between atoms: N_5  and  C_6
REMARK    4  A    between atoms: N_5  and  C_7
REMARK                            x       y       z     vdW  Elec       q    Type
REMARK                         _______ _______ _______ _____ _____    ______ ____
ROOT
ATOM      1  N   UNL     1       4.025   4.395  17.929  0.00  0.00    +0.000 N 
ATOM      2  C   UNL     1       3.538   3.044  18.231  0.00  0.00    +0.000 C 
ENDROOT
BRANCH   1   6
ATOM      3  C   UNL     1       5.843   3.751  13.326  0.00  0.00    +0.000 C 
ATOM      4  C   UNL     1       5.935   4.394  14.689  0.00  0.00    +0.000 A 
ATOM      5  C   UNL     1       4.881   4.043  15.687  0.00  0.00    +0.000 A 
ATOM      6  C   UNL     1       4.949   4.635  16.897  0.00  0.00    +0.000 A 
ATOM      7  N   UNL     1       6.036   5.519  17.133  0.00  0.00    +0.000 N 
ATOM      8  N   UNL     1       6.385   6.202  18.260  0.00  0.00    +0.000 NA
ATOM      9  C   UNL     1       7.485   6.843  17.873  0.00  0.00    +0.000 A 
ATOM     10  N   UNL     1       7.890   6.619  16.597  0.00  0.00    +0.000 NA
ATOM     11  C   UNL     1       6.989   5.781  16.133  0.00  0.00    +0.000 A 
ATOM     12  N   UNL     1       6.922   5.210  14.897  0.00  0.00    +0.000 NA
ENDBRANCH   1   6
BRANCH   1  13
ATOM     13  C   UNL     1       3.320   5.439  18.591  0.00  0.00    +0.000 A 
ATOM     14  C   UNL     1       2.868   5.299  19.913  0.00  0.00    +0.000 A 
ATOM     15  C   UNL     1       2.145   6.310  20.554  0.00  0.00    +0.000 A 
ATOM     16  C   UNL     1       1.850   7.504  19.891  0.00  0.00    +0.000 A 
ATOM     17  C   UNL     1       1.123   8.526  20.523  0.00  0.00    +0.000 A 
ATOM     18  C   UNL     1       0.840   9.715  19.853  0.00  0.00    +0.000 A 
ATOM     19  C   UNL     1       1.277   9.894  18.544  0.00  0.00    +0.000 A 
ATOM     20  C   UNL     1       2.000   8.885  17.903  0.00  0.00    +0.000 A 
ATOM     21  C   UNL     1       2.298   7.683  18.566  0.00  0.00    +0.000 A 
ATOM     22  C   UNL     1       3.031   6.653  17.940  0.00  0.00    +0.000 A 
ENDBRANCH   1  13
TORSDOF 2
ENDMDL
MODEL 4
REMARK VINA RESULT:      -8.0      1.127      2.911
REMARK  Name = 
REMARK  4 active torsions:
REMARK  status: ('A' for Active; 'I' for Inactive)
REMARK    1  A    between atoms: C_1  and  C_2
REMARK    2  A    between atoms: C_4  and  N_5
REMARK    3  A    between atoms: N_5  and  C_6
REMARK    4  A    between atoms: N_5  and  C_7
REMARK                            x       y       z     vdW  Elec       q    Type
REMARK                         _______ _______ _______ _____ _____    ______ ____
ROOT
ATOM      1  N   UNL     1       3.614   5.319  18.199  0.00  0.00    +0.000 N 
ATOM      2  C   UNL     1       2.747   4.199  17.813  0.00  0.00    +0.000 C 
ENDROOT
BRANCH   1   6
ATOM      3  C   UNL     1       8.271   5.545  19.977  0.00  0.00    +0.000 C 
ATOM      4  C   UNL     1       7.324   5.349  18.819  0.00  0.00    +0.000 A 
ATOM      5  C   UNL     1       5.860   5.449  19.103  0.00  0.00    +0.000 A 
ATOM      6  C   UNL     1       5.012   5.251  18.073  0.00  0.00    +0.000 A 
ATOM      7  N   UNL     1       5.581   4.993  16.797  0.00  0.00    +0.000 N 
ATOM      8  N   UNL     1       4.980   4.815  15.587  0.00  0.00    +0.000 NA
ATOM      9  C   UNL     1       6.021   4.626  14.779  0.00  0.00    +0.000 A 
ATOM     10  N   UNL     1       7.246   4.687  15.359  0.00  0.00    +0.000 NA
ATOM     11  C   UNL     1       6.974   4.928  16.623  0.00  0.00    +0.000 A 
ATOM     12  N   UNL     1       7.846   5.102  17.657  0.00  0.00    +0.000 NA
ENDBRANCH   1   6
BRANCH   1  13
ATOM     13  C   UNL     1       2.922   6.532  18.476  0.00  0.00    +0.000 A 
ATOM     14  C   UNL     1       2.808   7.550  17.516  0.00  0.00    +0.000 A 
ATOM     15  C   UNL     1       2.159   8.756  17.797  0.00  0.00    +0.000 A 
ATOM     16  C   UNL     1       1.596   8.986  19.055  0.00  0.00    +0.000 A 
ATOM     17  C   UNL     1       0.944  10.194  19.350  0.00  0.00    +0.000 A 
ATOM     18  C   UNL     1       0.380  10.408  20.607  0.00  0.00    +0.000 A 
ATOM     19  C   UNL     1       0.467   9.420  21.583  0.00  0.00    +0.000 A 
ATOM     20  C   UNL     1       1.115   8.214  21.303  0.00  0.00    +0.000 A 
ATOM     21  C   UNL     1       1.682   7.980  20.040  0.00  0.00    +0.000 A 
ATOM     22  C   UNL     1       2.337   6.768  19.734  0.00  0.00    +0.000 A 
ENDBRANCH   1  13
TORSDOF 2
ENDMDL
MODEL 5
REMARK VINA RESULT:      -7.9      1.016      2.402
REMARK  Name = 
REMARK  4 active torsions:
REMARK  status: ('A' for Active; 'I' for Inactive)
REMARK    1  A    between atoms: C_1  and  C_2
REMARK    2  A    between atoms: C_4  and  N_5
REMARK    3  A    between atoms: N_5  and  C_6
REMARK    4  A    between atoms: N_5  and  C_7
REMARK                            x       y       z     vdW  Elec       q    Type
REMARK                         _______ _______ _______ _____ _____    ______ ____
ROOT
ATOM      1  N   UNL     1       3.630   5.029  18.178  0.00  0.00    +0.000 N 
ATOM      2  C   UNL     1       2.783   4.020  17.531  0.00  0.00    +0.000 C 
ENDROOT
BRANCH   1   6
ATOM      3  C   UNL     1       8.313   5.556  19.820  0.00  0.00    +0.000 C 
ATOM      4  C   UNL     1       7.348   5.282  18.693  0.00  0.00    +0.000 A 
ATOM      5  C   UNL     1       5.889   5.305  19.015  0.00  0.00    +0.000 A 
ATOM      6  C   UNL     1       5.027   5.038  18.014  0.00  0.00    +0.000 A 
ATOM      7  N   UNL     1       5.574   4.786  16.728  0.00  0.00    +0.000 N 
ATOM      8  N   UNL     1       4.953   4.548  15.538  0.00  0.00    +0.000 NA
ATOM      9  C   UNL     1       5.981   4.402  14.705  0.00  0.00    +0.000 A 
ATOM     10  N   UNL     1       7.216   4.544  15.250  0.00  0.00    +0.000 NA
ATOM     11  C   UNL     1       6.965   4.796  16.516  0.00  0.00    +0.000 A 
ATOM     12  N   UNL     1       7.852   5.040  17.521  0.00  0.00    +0.000 NA
ENDBRANCH   1   6
BRANCH   1  13
ATOM     13  C   UNL     1       2.917   6.109  18.770  0.00  0.00    +0.000 A 
ATOM     14  C   UNL     1       2.333   5.996  20.042  0.00  0.00    +0.000 A 
ATOM     15  C   UNL     1       1.602   7.043  20.611  0.00  0.00    +0.000 A 
ATOM     16  C   UNL     1       1.432   8.248  19.925  0.00  0.00    +0.000 A 
ATOM     17  C   UNL     1       0.699   9.306  20.485  0.00  0.00    +0.000 A 
ATOM     18  C   UNL     1       0.542  10.507  19.793  0.00  0.00    +0.000 A 
ATOM     19  C   UNL     1       1.112  10.659  18.533  0.00  0.00    +0.000 A 
ATOM     20  C   UNL     1       1.842   9.613  17.963  0.00  0.00    +0.000 A 
ATOM     21  C   UNL     1       2.015   8.400  18.649  0.00  0.00    +0.000 A 
ATOM     22  C   UNL     1       2.753   7.333  18.095  0.00  0.00    +0.000 A 
ENDBRANCH   1  13
TORSDOF 2
ENDMDL
MODEL 6
REMARK VINA RESULT:      -7.7      1.652      3.058
REMARK  Name = 
REMARK  4 active torsions:
REMARK  status: ('A' for Active; 'I' for Inactive)
REMARK    1  A    between atoms: C_1  and  C_2
REMARK    2  A    between atoms: C_4  and  N_5
REMARK    3  A    between atoms: N_5  and  C_6
REMARK    4  A    between atoms: N_5  and  C_7
REMARK                            x       y       z     vdW  Elec       q    Type
REMARK                         _______ _______ _______ _____ _____    ______ ____
ROOT
ATOM      1  N   UNL     1       3.609   6.015  17.932  0.00  0.00    +0.000 N 
ATOM      2  C   UNL     1       2.891   4.749  17.742  0.00  0.00    +0.000 C 
ENDROOT
BRANCH   1   6
ATOM      3  C   UNL     1       7.999   8.384  17.803  0.00  0.00    +0.000 C 
ATOM      4  C   UNL     1       7.103   7.268  17.324  0.00  0.00    +0.000 A 
ATOM      5  C   UNL     1       5.722   7.203  17.891  0.00  0.00    +0.000 A 
ATOM      6  C   UNL     1       4.929   6.193  17.481  0.00  0.00    +0.000 A 
ATOM      7  N   UNL     1       5.460   5.291  16.521  0.00  0.00    +0.000 N 
ATOM      8  N   UNL     1       4.877   4.230  15.894  0.00  0.00    +0.000 NA
ATOM      9  C   UNL     1       5.858   3.792  15.108  0.00  0.00    +0.000 A 
ATOM     10  N   UNL     1       7.020   4.490  15.157  0.00  0.00    +0.000 NA
ATOM     11  C   UNL     1       6.771   5.438  16.034  0.00  0.00    +0.000 A 
ATOM     12  N   UNL     1       7.595   6.438  16.455  0.00  0.00    +0.000 NA
ENDBRANCH   1   6
BRANCH   1  13
ATOM     13  C   UNL     1       2.795   7.093  18.380  0.00  0.00    +0.000 A 
ATOM     14  C   UNL     1       2.439   8.151  17.528  0.00  0.00    +0.000 A 
ATOM     15  C   UNL     1       1.669   9.228  17.976  0.00  0.00    +0.000 A 
ATOM     16  C   UNL     1       1.221   9.283  19.299  0.00  0.00    +0.000 A 
ATOM     17  C   UNL     1       0.449  10.361  19.761  0.00  0.00    +0.000 A 
ATOM     18  C   UNL     1       0.004  10.401  21.081  0.00  0.00    +0.000 A 
ATOM     19  C   UNL     1       0.330   9.368  21.954  0.00  0.00    +0.000 A 
ATOM     20  C   UNL     1       1.100   8.291  21.508  0.00  0.00    +0.000 A 
ATOM     21  C   UNL     1       1.551   8.231  20.179  0.00  0.00    +0.000 A 
ATOM     22  C   UNL     1       2.325   7.151  19.706  0.00  0.00    +0.000 A 
ENDBRANCH   1  13
TORSDOF 2
ENDMDL
MODEL 7
REMARK VINA RESULT:      -7.6      1.260      1.980
REMARK  Name = 
REMARK  4 active torsions:
REMARK  status: ('A' for Active; 'I' for Inactive)
REMARK    1  A    between atoms: C_1  and  C_2
REMARK    2  A    between atoms: C_4  and  N_5
REMARK    3  A    between atoms: N_5  and  C_6
REMARK    4  A    between atoms: N_5  and  C_7
REMARK                            x       y       z     vdW  Elec       q    Type
REMARK                         _______ _______ _______ _____ _____    ______ ____
ROOT
ATOM      1  N   UNL     1       3.920   5.231  18.019  0.00  0.00    +0.000 N 
ATOM      2  C   UNL     1       3.444   3.991  18.642  0.00  0.00    +0.000 C 
ENDROOT
BRANCH   1   6
ATOM      3  C   UNL     1       5.819   3.763  13.644  0.00  0.00    +0.000 C 
ATOM      4  C   UNL     1       5.934   4.576  14.911  0.00  0.00    +0.000 A 
ATOM      5  C   UNL     1       4.811   4.483  15.892  0.00  0.00    +0.000 A 
ATOM      6  C   UNL     1       4.902   5.226  17.013  0.00  0.00    +0.000 A 
ATOM      7  N   UNL     1       6.072   6.012  17.185  0.00  0.00    +0.000 N 
ATOM      8  N   UNL     1       6.456   6.803  18.226  0.00  0.00    +0.000 NA
ATOM      9  C   UNL     1       7.635   7.262  17.814  0.00  0.00    +0.000 A 
ATOM     10  N   UNL     1       8.058   6.821  16.603  0.00  0.00    +0.000 NA
ATOM     11  C   UNL     1       7.085   6.028  16.209  0.00  0.00    +0.000 A 
ATOM     12  N   UNL     1       6.999   5.303  15.059  0.00  0.00    +0.000 NA
ENDBRANCH   1   6
BRANCH   1  13
ATOM     13  C   UNL     1       3.151   6.386  18.340  0.00  0.00    +0.000 A 
ATOM     14  C   UNL     1       2.965   7.427  17.416  0.00  0.00    +0.000 A 
ATOM     15  C   UNL     1       2.240   8.577  17.740  0.00  0.00    +0.000 A 
ATOM     16  C   UNL     1       1.668   8.725  19.006  0.00  0.00    +0.000 A 
ATOM     17  C   UNL     1       0.939   9.876  19.344  0.00  0.00    +0.000 A 
ATOM     18  C   UNL     1       0.367  10.009  20.609  0.00  0.00    +0.000 A 
ATOM     19  C   UNL     1       0.523   8.996  21.550  0.00  0.00    +0.000 A 
ATOM     20  C   UNL     1       1.248   7.846  21.227  0.00  0.00    +0.000 A 
ATOM     21  C   UNL     1       1.824   7.693  19.955  0.00  0.00    +0.000 A 
ATOM     22  C   UNL     1       2.556   6.539  19.606  0.00  0.00    +0.000 A 
ENDBRANCH   1  13
TORSDOF 2
ENDMDL
MODEL 8
REMARK VINA RESULT:      -7.5      2.055      3.738
REMARK  Name = 
REMARK  4 active torsions:
REMARK  status: ('A' for Active; 'I' for Inactive)
REMARK    1  A    between atoms: C_1  and  C_2
REMARK    2  A    between atoms: C_4  and  N_5
REMARK    3  A    between atoms: N_5  and  C_6
REMARK    4  A    between atoms: N_5  and  C_7
REMARK                            x       y       z     vdW  Elec       q    Type
REMARK                         _______ _______ _______ _____ _____    ______ ____
ROOT
ATOM      1  N   UNL     1       2.845   7.070  18.000  0.00  0.00    +0.000 N 
ATOM      2  C   UNL     1       3.805   7.667  17.065  0.00  0.00    +0.000 C 
ENDROOT
BRANCH   1   6
ATOM      3  C   UNL     1       0.811   2.572  18.736  0.00  0.00    +0.000 C 
ATOM      4  C   UNL     1       2.019   3.477  18.748  0.00  0.00    +0.000 A 
ATOM      5  C   UNL     1       1.813   4.904  18.357  0.00  0.00    +0.000 A 
ATOM      6  C   UNL     1       2.896   5.708  18.346  0.00  0.00    +0.000 A 
ATOM      7  N   UNL     1       4.138   5.140  18.737  0.00  0.00    +0.000 N 
ATOM      8  N   UNL     1       5.365   5.716  18.874  0.00  0.00    +0.000 NA
ATOM      9  C   UNL     1       6.116   4.693  19.273  0.00  0.00    +0.000 A 
ATOM     10  N   UNL     1       5.477   3.506  19.426  0.00  0.00    +0.000 NA
ATOM     11  C   UNL     1       4.234   3.785  19.101  0.00  0.00    +0.000 A 
ATOM     12  N   UNL     1       3.154   2.952  19.095  0.00  0.00    +0.000 NA
ENDBRANCH   1   6
BRANCH   1  13
ATOM     13  C   UNL     1       2.032   8.011  18.693  0.00  0.00    +0.000 A 
ATOM     14  C   UNL     1       1.425   9.089  18.030  0.00  0.00    +0.000 A 
ATOM     15  C   UNL     1       0.655  10.034  18.714  0.00  0.00    +0.000 A 
ATOM     16  C   UNL     1       0.460   9.930  20.094  0.00  0.00    +0.000 A 
ATOM     17  C   UNL     1      -0.309  10.874  20.792  0.00  0.00    +0.000 A 
ATOM     18  C   UNL     1      -0.501  10.756  22.168  0.00  0.00    +0.000 A 
ATOM     19  C   UNL     1       0.079   9.697  22.860  0.00  0.00    +0.000 A 
ATOM     20  C   UNL     1       0.849   8.752  22.178  0.00  0.00    +0.000 A 
ATOM     21  C   UNL     1       1.046   8.853  20.790  0.00  0.00    +0.000 A 
ATOM     22  C   UNL     1       1.816   7.907  20.080  0.00  0.00    +0.000 A 
ENDBRANCH   1  13
TORSDOF 2
ENDMDL
MODEL 9
REMARK VINA RESULT:      -7.4      1.754      6.557
REMARK  Name = 
REMARK  4 active torsions:
REMARK  status: ('A' for Active; 'I' for Inactive)
REMARK    1  A    between atoms: C_1  and  C_2
REMARK    2  A    between atoms: C_4  and  N_5
REMARK    3  A    between atoms: N_5  and  C_6
REMARK    4  A    between atoms: N_5  and  C_7
REMARK                            x       y       z     vdW  Elec       q    Type
REMARK                         _______ _______ _______ _____ _____    ______ ____
ROOT
ATOM      1  N   UNL     1       5.866   5.167  18.180  0.00  0.00    +0.000 N 
ATOM      2  C   UNL     1       7.129   5.700  18.705  0.00  0.00    +0.000 C 
ENDROOT
BRANCH   1   6
ATOM      3  C   UNL     1       1.862   7.587  19.918  0.00  0.00    +0.000 C 
ATOM      4  C   UNL     1       2.687   6.326  19.824  0.00  0.00    +0.000 A 
ATOM      5  C   UNL     1       3.941   6.384  19.013  0.00  0.00    +0.000 A 
ATOM      6  C   UNL     1       4.667   5.253  18.909  0.00  0.00    +0.000 A 
ATOM      7  N   UNL     1       4.197   4.107  19.604  0.00  0.00    +0.000 N 
ATOM      8  N   UNL     1       4.745   2.865  19.726  0.00  0.00    +0.000 NA
ATOM      9  C   UNL     1       3.860   2.238  20.497  0.00  0.00    +0.000 A 
ATOM     10  N   UNL     1       2.795   2.974  20.904  0.00  0.00    +0.000 NA
ATOM     11  C   UNL     1       3.008   4.150  20.354  0.00  0.00    +0.000 A 
ATOM     12  N   UNL     1       2.249   5.278  20.450  0.00  0.00    +0.000 NA
ENDBRANCH   1   6
BRANCH   1  13
ATOM     13  C   UNL     1       5.910   4.786  16.810  0.00  0.00    +0.000 A 
ATOM     14  C   UNL     1       5.043   3.813  16.288  0.00  0.00    +0.000 A 
ATOM     15  C   UNL     1       5.107   3.412  14.950  0.00  0.00    +0.000 A 
ATOM     16  C   UNL     1       6.045   3.977  14.081  0.00  0.00    +0.000 A 
ATOM     17  C   UNL     1       6.120   3.581  12.736  0.00  0.00    +0.000 A 
ATOM     18  C   UNL     1       7.056   4.156  11.878  0.00  0.00    +0.000 A 
ATOM     19  C   UNL     1       7.928   5.129  12.356  0.00  0.00    +0.000 A 
ATOM     20  C   UNL     1       7.865   5.531  13.693  0.00  0.00    +0.000 A 
ATOM     21  C   UNL     1       6.924   4.966  14.569  0.00  0.00    +0.000 A 
ATOM     22  C   UNL     1       6.839   5.359  15.921  0.00  0.00    +0.000 A 
ENDBRANCH   1  13
TORSDOF 2
ENDMDL
