MODEL 1
REMARK VINA RESULT:      -8.1      0.000      0.000
REMARK  Name = 
REMARK  9 active torsions:
REMARK  status: ('A' for Active; 'I' for Inactive)
REMARK    1  A    between atoms: C_1  and  C_2
REMARK    2  A    between atoms: C_2  and  C_3
REMARK    3  A    between atoms: C_4  and  C_5
REMARK    4  A    between atoms: C_5  and  N_6
REMARK    5  A    between atoms: C_10  and  C_11
REMARK    6  A    between atoms: C_11  and  N_12
REMARK    7  A    between atoms: C_13  and  C_15
REMARK    8  A    between atoms: C_17  and  C_18
REMARK    9  A    between atoms: C_20  and  C_21
REMARK                            x       y       z     vdW  Elec       q    Type
REMARK                         _______ _______ _______ _____ _____    ______ ____
ROOT
ATOM      1  C   UNL     1       3.263   2.445  17.992  0.00  0.00    +0.000 C 
ENDROOT
BRANCH   1   6
ATOM      2  N   UNL     1       2.356   5.222  19.087  0.00  0.00    +0.000 NA
ATOM      3  C   UNL     1       1.549   4.887  20.274  0.00  0.00    +0.000 C 
ATOM      4  C   UNL     1       1.566   3.383  20.531  0.00  0.00    +0.000 C 
ATOM      5  C   UNL     1       1.074   2.607  19.315  0.00  0.00    +0.000 C 
ATOM      6  C   UNL     1       1.827   3.009  18.035  0.00  0.00    +0.000 C 
ATOM      7  C   UNL     1       1.811   4.550  17.894  0.00  0.00    +0.000 C 
BRANCH   2   8
ATOM      8  C   UNL     1       2.430   6.681  18.884  0.00  0.00    +0.000 C 
BRANCH   8  10
ATOM      9  C   UNL     1       1.574   8.084  20.993  0.00  0.00    +0.000 C 
ATOM     10  C   UNL     1       1.979   7.405  20.085  0.00  0.00    +0.000 C 
BRANCH   9  12
ATOM     11  C   UNL     1      -0.471   8.885  22.114  0.00  0.00    +0.000 C 
ATOM     12  C   UNL     1       1.041   8.982  22.023  0.00  0.00    +0.000 C 
ENDBRANCH   9  12
ENDBRANCH   8  10
ENDBRANCH   2   8
ENDBRANCH   1   6
BRANCH   1  13
ATOM     13  N   UNL     1       4.236   3.412  17.500  0.00  0.00    +0.000 N 
ATOM     14  C   UNL     1       5.251   3.942  18.271  0.00  0.00    +0.000 C 
ATOM     15  O   UNL     1       5.420   3.606  19.441  0.00  0.00    +0.000 OA
ATOM     16  H   UNL     1       4.150   3.755  16.549  0.00  0.00    +0.000 HD
BRANCH  14  17
ATOM     17  C   UNL     1       6.083   4.916  17.594  0.00  0.00    +0.000 A 
ATOM     18  O   UNL     1       6.464   6.087  18.223  0.00  0.00    +0.000 OA
ATOM     19  C   UNL     1       7.240   6.727  17.292  0.00  0.00    +0.000 A 
ATOM     20  C   UNL     1       7.820   8.038  17.652  0.00  0.00    +0.000 C 
ATOM     21  N   UNL     1       7.377   6.084  16.152  0.00  0.00    +0.000 NA
ATOM     22  C   UNL     1       6.638   4.934  16.330  0.00  0.00    +0.000 A 
ATOM     23  C   UNL     1       6.513   3.953  15.234  0.00  0.00    +0.000 C 
ENDBRANCH  14  17
ENDBRANCH   1  13
TORSDOF 6
ENDMDL
MODEL 2
REMARK VINA RESULT:      -8.1      0.956      1.758
REMARK  Name = 
REMARK  9 active torsions:
REMARK  status: ('A' for Active; 'I' for Inactive)
REMARK    1  A    between atoms: C_1  and  C_2
REMARK    2  A    between atoms: C_2  and  C_3
REMARK    3  A    between atoms: C_4  and  C_5
REMARK    4  A    between atoms: C_5  and  N_6
REMARK    5  A    between atoms: C_10  and  C_11
REMARK    6  A    between atoms: C_11  and  N_12
REMARK    7  A    between atoms: C_13  and  C_15
REMARK    8  A    between atoms: C_17  and  C_18
REMARK    9  A    between atoms: C_20  and  C_21
REMARK                            x       y       z     vdW  Elec       q    Type
REMARK                         _______ _______ _______ _____ _____    ______ ____
ROOT
ATOM      1  C   UNL     1       3.227   2.521  18.493  0.00  0.00    +0.000 C 
ENDROOT
BRANCH   1   6
ATOM      2  N   UNL     1       2.358   5.373  19.409  0.00  0.00    +0.000 NA
ATOM      3  C   UNL     1       1.451   5.119  20.543  0.00  0.00    +0.000 C 
ATOM      4  C   UNL     1       1.387   3.627  20.857  0.00  0.00    +0.000 C 
ATOM      5  C   UNL     1       0.955   2.821  19.638  0.00  0.00    +0.000 C 
ATOM      6  C   UNL     1       1.817   3.141  18.405  0.00  0.00    +0.000 C 
ATOM      7  C   UNL     1       1.875   4.674  18.205  0.00  0.00    +0.000 C 
BRANCH   2   8
ATOM      8  C   UNL     1       2.507   6.819  19.158  0.00  0.00    +0.000 C 
BRANCH   8  10
ATOM      9  C   UNL     1       1.419   8.336  21.071  0.00  0.00    +0.000 C 
ATOM     10  C   UNL     1       1.860   7.610  20.218  0.00  0.00    +0.000 C 
BRANCH   9  12
ATOM     11  C   UNL     1      -0.455   8.988  22.536  0.00  0.00    +0.000 C 
ATOM     12  C   UNL     1       0.963   9.293  22.085  0.00  0.00    +0.000 C 
ENDBRANCH   9  12
ENDBRANCH   8  10
ENDBRANCH   2   8
ENDBRANCH   1   6
BRANCH   1  13
ATOM     13  N   UNL     1       4.186   3.170  17.607  0.00  0.00    +0.000 N 
ATOM     14  C   UNL     1       5.292   3.867  18.051  0.00  0.00    +0.000 C 
ATOM     15  O   UNL     1       5.560   3.968  19.246  0.00  0.00    +0.000 OA
ATOM     16  H   UNL     1       4.023   3.148  16.607  0.00  0.00    +0.000 HD
BRANCH  14  17
ATOM     17  C   UNL     1       6.093   4.466  17.002  0.00  0.00    +0.000 A 
ATOM     18  O   UNL     1       6.024   4.004  15.701  0.00  0.00    +0.000 OA
ATOM     19  C   UNL     1       6.893   4.812  15.015  0.00  0.00    +0.000 A 
ATOM     20  C   UNL     1       7.060   4.581  13.565  0.00  0.00    +0.000 C 
ATOM     21  N   UNL     1       7.497   5.721  15.748  0.00  0.00    +0.000 NA
ATOM     22  C   UNL     1       7.003   5.505  17.018  0.00  0.00    +0.000 A 
ATOM     23  C   UNL     1       7.481   6.319  18.151  0.00  0.00    +0.000 C 
ENDBRANCH  14  17
ENDBRANCH   1  13
TORSDOF 6
ENDMDL
MODEL 3
REMARK VINA RESULT:      -8.1      1.868      2.589
REMARK  Name = 
REMARK  9 active torsions:
REMARK  status: ('A' for Active; 'I' for Inactive)
REMARK    1  A    between atoms: C_1  and  C_2
REMARK    2  A    between atoms: C_2  and  C_3
REMARK    3  A    between atoms: C_4  and  C_5
REMARK    4  A    between atoms: C_5  and  N_6
REMARK    5  A    between atoms: C_10  and  C_11
REMARK    6  A    between atoms: C_11  and  N_12
REMARK    7  A    between atoms: C_13  and  C_15
REMARK    8  A    between atoms: C_17  and  C_18
REMARK    9  A    between atoms: C_20  and  C_21
REMARK                            x       y       z     vdW  Elec       q    Type
REMARK                         _______ _______ _______ _____ _____    ______ ____
ROOT
ATOM      1  C   UNL     1       3.009   3.137  18.654  0.00  0.00    +0.000 C 
ENDROOT
BRANCH   1   6
ATOM      2  N   UNL     1       2.808   6.250  18.665  0.00  0.00    +0.000 NA
ATOM      3  C   UNL     1       2.269   6.564  20.001  0.00  0.00    +0.000 C 
ATOM      4  C   UNL     1       2.127   5.296  20.837  0.00  0.00    +0.000 C 
ATOM      5  C   UNL     1       1.249   4.265  20.136  0.00  0.00    +0.000 C 
ATOM      6  C   UNL     1       1.724   3.990  18.699  0.00  0.00    +0.000 C 
ATOM      7  C   UNL     1       1.901   5.333  17.953  0.00  0.00    +0.000 C 
BRANCH   2   8
ATOM      8  C   UNL     1       3.045   7.476  17.881  0.00  0.00    +0.000 C 
BRANCH   8  10
ATOM      9  C   UNL     1       1.041   9.226  18.147  0.00  0.00    +0.000 C 
ATOM     10  C   UNL     1       1.904   8.401  17.990  0.00  0.00    +0.000 C 
BRANCH   9  12
ATOM     11  C   UNL     1      -1.237  10.033  17.657  0.00  0.00    +0.000 C 
ATOM     12  C   UNL     1       0.064  10.293  18.393  0.00  0.00    +0.000 C 
ENDBRANCH   9  12
ENDBRANCH   8  10
ENDBRANCH   2   8
ENDBRANCH   1   6
BRANCH   1  13
ATOM     13  N   UNL     1       3.943   3.575  17.626  0.00  0.00    +0.000 N 
ATOM     14  C   UNL     1       5.229   4.006  17.887  0.00  0.00    +0.000 C 
ATOM     15  O   UNL     1       5.688   4.023  19.027  0.00  0.00    +0.000 OA
ATOM     16  H   UNL     1       3.631   3.608  16.661  0.00  0.00    +0.000 HD
BRANCH  14  17
ATOM     17  C   UNL     1       5.976   4.433  16.722  0.00  0.00    +0.000 A 
ATOM     18  O   UNL     1       5.841   3.780  15.510  0.00  0.00    +0.000 OA
ATOM     19  C   UNL     1       6.673   4.469  14.667  0.00  0.00    +0.000 A 
ATOM     20  C   UNL     1       6.767   4.020  13.262  0.00  0.00    +0.000 C 
ATOM     21  N   UNL     1       7.314   5.474  15.224  0.00  0.00    +0.000 NA
ATOM     22  C   UNL     1       6.885   5.455  16.534  0.00  0.00    +0.000 A 
ATOM     23  C   UNL     1       7.419   6.429  17.506  0.00  0.00    +0.000 C 
ENDBRANCH  14  17
ENDBRANCH   1  13
TORSDOF 6
ENDMDL
MODEL 4
REMARK VINA RESULT:      -8.1      1.355      1.594
REMARK  Name = 
REMARK  9 active torsions:
REMARK  status: ('A' for Active; 'I' for Inactive)
REMARK    1  A    between atoms: C_1  and  C_2
REMARK    2  A    between atoms: C_2  and  C_3
REMARK    3  A    between atoms: C_4  and  C_5
REMARK    4  A    between atoms: C_5  and  N_6
REMARK    5  A    between atoms: C_10  and  C_11
REMARK    6  A    between atoms: C_11  and  N_12
REMARK    7  A    between atoms: C_13  and  C_15
REMARK    8  A    between atoms: C_17  and  C_18
REMARK    9  A    between atoms: C_20  and  C_21
REMARK                            x       y       z     vdW  Elec       q    Type
REMARK                         _______ _______ _______ _____ _____    ______ ____
ROOT
ATOM      1  C   UNL     1       3.312   2.673  17.835  0.00  0.00    +0.000 C 
ENDROOT
BRANCH   1   6
ATOM      2  N   UNL     1       2.192   4.584  20.031  0.00  0.00    +0.000 NA
ATOM      3  C   UNL     1       1.192   3.763  20.738  0.00  0.00    +0.000 C 
ATOM      4  C   UNL     1       1.183   2.338  20.193  0.00  0.00    +0.000 C 
ATOM      5  C   UNL     1       0.923   2.320  18.691  0.00  0.00    +0.000 C 
ATOM      6  C   UNL     1       1.884   3.250  17.931  0.00  0.00    +0.000 C 
ATOM      7  C   UNL     1       1.874   4.648  18.594  0.00  0.00    +0.000 C 
BRANCH   2   8
ATOM      8  C   UNL     1       2.282   5.936  20.613  0.00  0.00    +0.000 C 
BRANCH   8  10
ATOM      9  C   UNL     1       2.321   7.808  18.704  0.00  0.00    +0.000 C 
ATOM     10  C   UNL     1       2.369   6.961  19.559  0.00  0.00    +0.000 C 
BRANCH   9  12
ATOM     11  C   UNL     1       1.024   9.797  18.039  0.00  0.00    +0.000 C 
ATOM     12  C   UNL     1       2.153   8.847  17.682  0.00  0.00    +0.000 C 
ENDBRANCH   9  12
ENDBRANCH   8  10
ENDBRANCH   2   8
ENDBRANCH   1   6
BRANCH   1  13
ATOM     13  N   UNL     1       4.291   3.657  17.391  0.00  0.00    +0.000 N 
ATOM     14  C   UNL     1       5.334   4.111  18.174  0.00  0.00    +0.000 C 
ATOM     15  O   UNL     1       5.524   3.687  19.311  0.00  0.00    +0.000 OA
ATOM     16  H   UNL     1       4.189   4.070  16.471  0.00  0.00    +0.000 HD
BRANCH  14  17
ATOM     17  C   UNL     1       6.168   5.118  17.550  0.00  0.00    +0.000 A 
ATOM     18  O   UNL     1       6.536   6.262  18.234  0.00  0.00    +0.000 OA
ATOM     19  C   UNL     1       7.319   6.946  17.340  0.00  0.00    +0.000 A 
ATOM     20  C   UNL     1       7.887   8.242  17.764  0.00  0.00    +0.000 C 
ATOM     21  N   UNL     1       7.472   6.355  16.175  0.00  0.00    +0.000 NA
ATOM     22  C   UNL     1       6.736   5.195  16.293  0.00  0.00    +0.000 A 
ATOM     23  C   UNL     1       6.628   4.262  15.154  0.00  0.00    +0.000 C 
ENDBRANCH  14  17
ENDBRANCH   1  13
TORSDOF 6
ENDMDL
MODEL 5
REMARK VINA RESULT:      -7.8      1.666      1.819
REMARK  Name = 
REMARK  9 active torsions:
REMARK  status: ('A' for Active; 'I' for Inactive)
REMARK    1  A    between atoms: C_1  and  C_2
REMARK    2  A    between atoms: C_2  and  C_3
REMARK    3  A    between atoms: C_4  and  C_5
REMARK    4  A    between atoms: C_5  and  N_6
REMARK    5  A    between atoms: C_10  and  C_11
REMARK    6  A    between atoms: C_11  and  N_12
REMARK    7  A    between atoms: C_13  and  C_15
REMARK    8  A    between atoms: C_17  and  C_18
REMARK    9  A    between atoms: C_20  and  C_21
REMARK                            x       y       z     vdW  Elec       q    Type
REMARK                         _______ _______ _______ _____ _____    ______ ____
ROOT
ATOM      1  C   UNL     1       3.009   3.352  18.380  0.00  0.00    +0.000 C 
ENDROOT
BRANCH   1   6
ATOM      2  N   UNL     1       2.638   6.440  18.627  0.00  0.00    +0.000 NA
ATOM      3  C   UNL     1       2.177   6.631  20.014  0.00  0.00    +0.000 C 
ATOM      4  C   UNL     1       2.163   5.302  20.765  0.00  0.00    +0.000 C 
ATOM      5  C   UNL     1       1.297   4.271  20.051  0.00  0.00    +0.000 C 
ATOM      6  C   UNL     1       1.685   4.122  18.570  0.00  0.00    +0.000 C 
ATOM      7  C   UNL     1       1.735   5.521  17.911  0.00  0.00    +0.000 C 
BRANCH   2   8
ATOM      8  C   UNL     1       2.752   7.728  17.918  0.00  0.00    +0.000 C 
BRANCH   8  10
ATOM      9  C   UNL     1       0.736   9.404  18.445  0.00  0.00    +0.000 C 
ATOM     10  C   UNL     1       1.636   8.623  18.268  0.00  0.00    +0.000 C 
BRANCH   9  12
ATOM     11  C   UNL     1      -1.482  10.072  17.598  0.00  0.00    +0.000 C 
ATOM     12  C   UNL     1      -0.346  10.388  18.555  0.00  0.00    +0.000 C 
ENDBRANCH   9  12
ENDBRANCH   8  10
ENDBRANCH   2   8
ENDBRANCH   1   6
BRANCH   1  13
ATOM     13  N   UNL     1       4.074   4.185  17.837  0.00  0.00    +0.000 N 
ATOM     14  C   UNL     1       5.322   4.311  18.415  0.00  0.00    +0.000 C 
ATOM     15  O   UNL     1       5.630   3.696  19.433  0.00  0.00    +0.000 OA
ATOM     16  H   UNL     1       3.890   4.740  17.009  0.00  0.00    +0.000 HD
BRANCH  14  17
ATOM     17  C   UNL     1       6.219   5.220  17.731  0.00  0.00    +0.000 A 
ATOM     18  O   UNL     1       6.623   6.403  18.324  0.00  0.00    +0.000 OA
ATOM     19  C   UNL     1       7.461   6.968  17.398  0.00  0.00    +0.000 A 
ATOM     20  C   UNL     1       8.079   8.270  17.724  0.00  0.00    +0.000 C 
ATOM     21  N   UNL     1       7.616   6.270  16.294  0.00  0.00    +0.000 NA
ATOM     22  C   UNL     1       6.823   5.159  16.491  0.00  0.00    +0.000 A 
ATOM     23  C   UNL     1       6.701   4.135  15.435  0.00  0.00    +0.000 C 
ENDBRANCH  14  17
ENDBRANCH   1  13
TORSDOF 6
ENDMDL
MODEL 6
REMARK VINA RESULT:      -7.5      1.909      2.704
REMARK  Name = 
REMARK  9 active torsions:
REMARK  status: ('A' for Active; 'I' for Inactive)
REMARK    1  A    between atoms: C_1  and  C_2
REMARK    2  A    between atoms: C_2  and  C_3
REMARK    3  A    between atoms: C_4  and  C_5
REMARK    4  A    between atoms: C_5  and  N_6
REMARK    5  A    between atoms: C_10  and  C_11
REMARK    6  A    between atoms: C_11  and  N_12
REMARK    7  A    between atoms: C_13  and  C_15
REMARK    8  A    between atoms: C_17  and  C_18
REMARK    9  A    between atoms: C_20  and  C_21
REMARK                            x       y       z     vdW  Elec       q    Type
REMARK                         _______ _______ _______ _____ _____    ______ ____
ROOT
ATOM      1  C   UNL     1       4.167   2.145  19.635  0.00  0.00    +0.000 C 
ENDROOT
BRANCH   1   6
ATOM      2  N   UNL     1       2.140   4.411  18.934  0.00  0.00    +0.000 NA
ATOM      3  C   UNL     1       1.672   4.885  20.249  0.00  0.00    +0.000 C 
ATOM      4  C   UNL     1       2.414   4.171  21.375  0.00  0.00    +0.000 C 
ATOM      5  C   UNL     1       2.261   2.658  21.268  0.00  0.00    +0.000 C 
ATOM      6  C   UNL     1       2.642   2.140  19.871  0.00  0.00    +0.000 C 
ATOM      7  C   UNL     1       1.892   2.964  18.797  0.00  0.00    +0.000 C 
BRANCH   2   8
ATOM      8  C   UNL     1       1.504   5.162  17.837  0.00  0.00    +0.000 C 
BRANCH   8  10
ATOM      9  C   UNL     1       2.196   7.743  17.941  0.00  0.00    +0.000 C 
ATOM     10  C   UNL     1       1.928   6.572  17.845  0.00  0.00    +0.000 C 
BRANCH   9  12
ATOM     11  C   UNL     1       1.162   9.972  18.145  0.00  0.00    +0.000 C 
ATOM     12  C   UNL     1       2.452   9.173  18.143  0.00  0.00    +0.000 C 
ENDBRANCH   9  12
ENDBRANCH   8  10
ENDBRANCH   2   8
ENDBRANCH   1   6
BRANCH   1  13
ATOM     13  N   UNL     1       4.545   2.808  18.393  0.00  0.00    +0.000 N 
ATOM     14  C   UNL     1       5.482   3.818  18.314  0.00  0.00    +0.000 C 
ATOM     15  O   UNL     1       6.091   4.216  19.305  0.00  0.00    +0.000 OA
ATOM     16  H   UNL     1       4.071   2.548  17.535  0.00  0.00    +0.000 HD
BRANCH  14  17
ATOM     17  C   UNL     1       5.679   4.363  16.986  0.00  0.00    +0.000 A 
ATOM     18  O   UNL     1       5.832   3.533  15.891  0.00  0.00    +0.000 OA
ATOM     19  C   UNL     1       5.973   4.398  14.837  0.00  0.00    +0.000 A 
ATOM     20  C   UNL     1       6.161   3.824  13.488  0.00  0.00    +0.000 C 
ATOM     21  N   UNL     1       5.930   5.672  15.158  0.00  0.00    +0.000 NA
ATOM     22  C   UNL     1       5.752   5.663  16.526  0.00  0.00    +0.000 A 
ATOM     23  C   UNL     1       5.691   6.932  17.277  0.00  0.00    +0.000 C 
ENDBRANCH  14  17
ENDBRANCH   1  13
TORSDOF 6
ENDMDL
MODEL 7
REMARK VINA RESULT:      -7.3      3.332      7.653
REMARK  Name = 
REMARK  9 active torsions:
REMARK  status: ('A' for Active; 'I' for Inactive)
REMARK    1  A    between atoms: C_1  and  C_2
REMARK    2  A    between atoms: C_2  and  C_3
REMARK    3  A    between atoms: C_4  and  C_5
REMARK    4  A    between atoms: C_5  and  N_6
REMARK    5  A    between atoms: C_10  and  C_11
REMARK    6  A    between atoms: C_11  and  N_12
REMARK    7  A    between atoms: C_13  and  C_15
REMARK    8  A    between atoms: C_17  and  C_18
REMARK    9  A    between atoms: C_20  and  C_21
REMARK                            x       y       z     vdW  Elec       q    Type
REMARK                         _______ _______ _______ _____ _____    ______ ____
ROOT
ATOM      1  C   UNL     1       2.964   7.249  18.139  0.00  0.00    +0.000 C 
ENDROOT
BRANCH   1   6
ATOM      2  N   UNL     1       4.541   4.725  17.204  0.00  0.00    +0.000 NA
ATOM      3  C   UNL     1       3.525   3.657  17.193  0.00  0.00    +0.000 C 
ATOM      4  C   UNL     1       2.148   4.220  17.535  0.00  0.00    +0.000 C 
ATOM      5  C   UNL     1       2.159   4.932  18.883  0.00  0.00    +0.000 C 
ATOM      6  C   UNL     1       3.278   5.984  18.966  0.00  0.00    +0.000 C 
ATOM      7  C   UNL     1       4.619   5.340  18.541  0.00  0.00    +0.000 C 
BRANCH   2   8
ATOM      8  C   UNL     1       5.858   4.215  16.779  0.00  0.00    +0.000 C 
BRANCH   8  10
ATOM      9  C   UNL     1       6.036   3.864  14.134  0.00  0.00    +0.000 C 
ATOM     10  C   UNL     1       5.895   3.997  15.323  0.00  0.00    +0.000 C 
BRANCH   9  12
ATOM     11  C   UNL     1       5.112   3.186  11.951  0.00  0.00    +0.000 C 
ATOM     12  C   UNL     1       6.312   3.738  12.699  0.00  0.00    +0.000 C 
ENDBRANCH   9  12
ENDBRANCH   8  10
ENDBRANCH   2   8
ENDBRANCH   1   6
BRANCH   1  13
ATOM     13  N   UNL     1       1.932   8.079  18.747  0.00  0.00    +0.000 N 
ATOM     14  C   UNL     1       1.600   9.343  18.301  0.00  0.00    +0.000 C 
ATOM     15  O   UNL     1       2.148   9.851  17.326  0.00  0.00    +0.000 OA
ATOM     16  H   UNL     1       1.448   7.738  19.571  0.00  0.00    +0.000 HD
BRANCH  14  17
ATOM     17  C   UNL     1       0.572  10.010  19.074  0.00  0.00    +0.000 A 
ATOM     18  O   UNL     1       0.816  10.440  20.365  0.00  0.00    +0.000 OA
ATOM     19  C   UNL     1      -0.363  11.023  20.750  0.00  0.00    +0.000 A 
ATOM     20  C   UNL     1      -0.443  11.598  22.109  0.00  0.00    +0.000 C 
ATOM     21  N   UNL     1      -1.314  10.998  19.841  0.00  0.00    +0.000 NA
ATOM     22  C   UNL     1      -0.733  10.347  18.773  0.00  0.00    +0.000 A 
ATOM     23  C   UNL     1      -1.514  10.086  17.548  0.00  0.00    +0.000 C 
ENDBRANCH  14  17
ENDBRANCH   1  13
TORSDOF 6
ENDMDL
MODEL 8
REMARK VINA RESULT:      -7.2      1.730      5.919
REMARK  Name = 
REMARK  9 active torsions:
REMARK  status: ('A' for Active; 'I' for Inactive)
REMARK    1  A    between atoms: C_1  and  C_2
REMARK    2  A    between atoms: C_2  and  C_3
REMARK    3  A    between atoms: C_4  and  C_5
REMARK    4  A    between atoms: C_5  and  N_6
REMARK    5  A    between atoms: C_10  and  C_11
REMARK    6  A    between atoms: C_11  and  N_12
REMARK    7  A    between atoms: C_13  and  C_15
REMARK    8  A    between atoms: C_17  and  C_18
REMARK    9  A    between atoms: C_20  and  C_21
REMARK                            x       y       z     vdW  Elec       q    Type
REMARK                         _______ _______ _______ _____ _____    ______ ____
ROOT
ATOM      1  C   UNL     1       5.341   3.388  16.622  0.00  0.00    +0.000 C 
ENDROOT
BRANCH   1   6
ATOM      2  N   UNL     1       6.797   5.905  17.754  0.00  0.00    +0.000 NA
ATOM      3  C   UNL     1       6.101   7.034  17.111  0.00  0.00    +0.000 C 
ATOM      4  C   UNL     1       4.934   6.536  16.263  0.00  0.00    +0.000 C 
ATOM      5  C   UNL     1       5.399   5.530  15.217  0.00  0.00    +0.000 C 
ATOM      6  C   UNL     1       6.219   4.389  15.843  0.00  0.00    +0.000 C 
ATOM      7  C   UNL     1       7.334   4.989  16.732  0.00  0.00    +0.000 C 
BRANCH   2   8
ATOM      8  C   UNL     1       7.864   6.377  18.655  0.00  0.00    +0.000 C 
BRANCH   8  10
ATOM      9  C   UNL     1       8.499   8.950  18.306  0.00  0.00    +0.000 C 
ATOM     10  C   UNL     1       8.170   7.797  18.414  0.00  0.00    +0.000 C 
BRANCH   9  12
ATOM     11  C   UNL     1       9.611  10.754  19.568  0.00  0.00    +0.000 C 
ATOM     12  C   UNL     1       8.977  10.337  18.254  0.00  0.00    +0.000 C 
ENDBRANCH   9  12
ENDBRANCH   8  10
ENDBRANCH   2   8
ENDBRANCH   1   6
BRANCH   1  13
ATOM     13  N   UNL     1       4.375   4.044  17.494  0.00  0.00    +0.000 N 
ATOM     14  C   UNL     1       4.442   4.019  18.873  0.00  0.00    +0.000 C 
ATOM     15  O   UNL     1       5.356   3.451  19.468  0.00  0.00    +0.000 OA
ATOM     16  H   UNL     1       3.580   4.516  17.079  0.00  0.00    +0.000 HD
BRANCH  14  17
ATOM     17  C   UNL     1       3.358   4.704  19.547  0.00  0.00    +0.000 A 
ATOM     18  O   UNL     1       3.251   6.082  19.506  0.00  0.00    +0.000 OA
ATOM     19  C   UNL     1       2.116   6.348  20.228  0.00  0.00    +0.000 A 
ATOM     20  C   UNL     1       1.706   7.759  20.383  0.00  0.00    +0.000 C 
ATOM     21  N   UNL     1       1.511   5.287  20.717  0.00  0.00    +0.000 NA
ATOM     22  C   UNL     1       2.298   4.235  20.298  0.00  0.00    +0.000 A 
ATOM     23  C   UNL     1       1.960   2.852  20.687  0.00  0.00    +0.000 C 
ENDBRANCH  14  17
ENDBRANCH   1  13
TORSDOF 6
ENDMDL
MODEL 9
REMARK VINA RESULT:      -7.2      1.103      1.122
REMARK  Name = 
REMARK  9 active torsions:
REMARK  status: ('A' for Active; 'I' for Inactive)
REMARK    1  A    between atoms: C_1  and  C_2
REMARK    2  A    between atoms: C_2  and  C_3
REMARK    3  A    between atoms: C_4  and  C_5
REMARK    4  A    between atoms: C_5  and  N_6
REMARK    5  A    between atoms: C_10  and  C_11
REMARK    6  A    between atoms: C_11  and  N_12
REMARK    7  A    between atoms: C_13  and  C_15
REMARK    8  A    between atoms: C_17  and  C_18
REMARK    9  A    between atoms: C_20  and  C_21
REMARK                            x       y       z     vdW  Elec       q    Type
REMARK                         _______ _______ _______ _____ _____    ______ ____
ROOT
ATOM      1  C   UNL     1       3.977   2.542  19.180  0.00  0.00    +0.000 C 
ENDROOT
BRANCH   1   6
ATOM      2  N   UNL     1       2.665   5.290  19.857  0.00  0.00    +0.000 NA
ATOM      3  C   UNL     1       1.828   5.001  21.036  0.00  0.00    +0.000 C 
ATOM      4  C   UNL     1       2.014   3.555  21.487  0.00  0.00    +0.000 C 
ATOM      5  C   UNL     1       1.703   2.578  20.360  0.00  0.00    +0.000 C 
ATOM      6  C   UNL     1       2.483   2.914  19.078  0.00  0.00    +0.000 C 
ATOM      7  C   UNL     1       2.286   4.411  18.737  0.00  0.00    +0.000 C 
BRANCH   2   8
ATOM      8  C   UNL     1       2.572   6.709  19.470  0.00  0.00    +0.000 C 
BRANCH   8  10
ATOM      9  C   UNL     1       1.103   8.162  21.168  0.00  0.00    +0.000 C 
ATOM     10  C   UNL     1       1.789   7.476  20.456  0.00  0.00    +0.000 C 
BRANCH   9  12
ATOM     11  C   UNL     1      -0.140  10.292  21.164  0.00  0.00    +0.000 C 
ATOM     12  C   UNL     1       0.222   9.041  21.945  0.00  0.00    +0.000 C 
ENDBRANCH   9  12
ENDBRANCH   8  10
ENDBRANCH   2   8
ENDBRANCH   1   6
BRANCH   1  13
ATOM     13  N   UNL     1       4.855   3.576  18.648  0.00  0.00    +0.000 N 
ATOM     14  C   UNL     1       5.134   3.731  17.304  0.00  0.00    +0.000 C 
ATOM     15  O   UNL     1       4.629   3.008  16.449  0.00  0.00    +0.000 OA
ATOM     16  H   UNL     1       5.326   4.200  19.293  0.00  0.00    +0.000 HD
BRANCH  14  17
ATOM     17  C   UNL     1       6.062   4.800  16.996  0.00  0.00    +0.000 A 
ATOM     18  O   UNL     1       6.431   5.723  17.958  0.00  0.00    +0.000 OA
ATOM     19  C   UNL     1       7.314   6.545  17.307  0.00  0.00    +0.000 A 
ATOM     20  C   UNL     1       7.911   7.664  18.066  0.00  0.00    +0.000 C 
ATOM     21  N   UNL     1       7.529   6.237  16.046  0.00  0.00    +0.000 NA
ATOM     22  C   UNL     1       6.731   5.133  15.834  0.00  0.00    +0.000 A 
ATOM     23  C   UNL     1       6.668   4.505  14.500  0.00  0.00    +0.000 C 
ENDBRANCH  14  17
ENDBRANCH   1  13
TORSDOF 6
ENDMDL
