MODEL 1
REMARK VINA RESULT:      -9.3      0.000      0.000
REMARK  Name = 
REMARK  3 active torsions:
REMARK  status: ('A' for Active; 'I' for Inactive)
REMARK    1  A    between atoms: O_1  and  C_2
REMARK    2  A    between atoms: C_16  and  C_17
REMARK    3  A    between atoms: C_21  and  O_22
REMARK                            x       y       z     vdW  Elec       q    Type
REMARK                         _______ _______ _______ _____ _____    ______ ____
ROOT
ATOM      1  C   UNL     1       5.714   5.604  18.723  0.00  0.00    +0.000 C 
ATOM      2  C   UNL     1       4.511   6.159  18.478  0.00  0.00    +0.000 C 
ATOM      3  C   UNL     1       4.293   6.702  17.109  0.00  0.00    +0.000 C 
ATOM      4  N   UNL     1       3.384   7.571  16.814  0.00  0.00    +0.000 NA
ATOM      5  C   UNL     1       2.586   8.121  17.814  0.00  0.00    +0.000 A 
ATOM      6  C   UNL     1       1.805   9.203  17.430  0.00  0.00    +0.000 A 
ATOM      7  C   UNL     1       0.982   9.842  18.343  0.00  0.00    +0.000 A 
ATOM      8  C   UNL     1       0.934   9.443  19.661  0.00  0.00    +0.000 A 
ATOM      9  N   UNL     1       0.128  10.175  20.450  0.00  0.00    +0.000 NA
ATOM     10  C   UNL     1       0.041   9.852  21.749  0.00  0.00    +0.000 A 
ATOM     11  C   UNL     1       0.757   8.814  22.305  0.00  0.00    +0.000 A 
ATOM     12  C   UNL     1       1.583   8.042  21.475  0.00  0.00    +0.000 A 
ATOM     13  C   UNL     1       1.709   8.333  20.095  0.00  0.00    +0.000 A 
ATOM     14  C   UNL     1       2.529   7.638  19.134  0.00  0.00    +0.000 A 
ATOM     15  C   UNL     1       3.308   6.337  19.412  0.00  0.00    +0.000 C 
ATOM     16  C   UNL     1       5.121   6.212  15.937  0.00  0.00    +0.000 C 
ATOM     17  C   UNL     1       6.311   5.344  16.280  0.00  0.00    +0.000 C 
ATOM     18  C   UNL     1       6.820   5.532  17.701  0.00  0.00    +0.000 C 
ENDROOT
BRANCH  15  19
ATOM     19  C   UNL     1       2.408   5.093  19.310  0.00  0.00    +0.000 A 
ATOM     20  C   UNL     1       2.057   4.559  18.053  0.00  0.00    +0.000 A 
ATOM     21  C   UNL     1       1.310   3.385  17.941  0.00  0.00    +0.000 A 
ATOM     22  C   UNL     1       0.879   2.726  19.085  0.00  0.00    +0.000 A 
ATOM     23  C   UNL     1       1.200   3.253  20.332  0.00  0.00    +0.000 A 
ATOM     24  C   UNL     1       1.962   4.417  20.457  0.00  0.00    +0.000 A 
BRANCH  23  25
ATOM     25  O   UNL     1       0.778   2.640  21.477  0.00  0.00    +0.000 OA
ATOM     26  H   UNL     1       0.410   3.319  22.068  0.00  0.00    +0.000 HD
ENDBRANCH  23  25
ENDBRANCH  15  19
BRANCH   1  27
ATOM     27  O   UNL     1       6.054   5.017  19.926  0.00  0.00    +0.000 OA
ATOM     28  H   UNL     1       5.272   4.949  20.497  0.00  0.00    +0.000 HD
ENDBRANCH   1  27
TORSDOF 3
ENDMDL
MODEL 2
REMARK VINA RESULT:      -9.0      0.955      1.279
REMARK  Name = 
REMARK  3 active torsions:
REMARK  status: ('A' for Active; 'I' for Inactive)
REMARK    1  A    between atoms: O_1  and  C_2
REMARK    2  A    between atoms: C_16  and  C_17
REMARK    3  A    between atoms: C_21  and  O_22
REMARK                            x       y       z     vdW  Elec       q    Type
REMARK                         _______ _______ _______ _____ _____    ______ ____
ROOT
ATOM      1  C   UNL     1       5.892   5.441  18.820  0.00  0.00    +0.000 C 
ATOM      2  C   UNL     1       4.681   5.963  18.542  0.00  0.00    +0.000 C 
ATOM      3  C   UNL     1       4.469   6.452  17.152  0.00  0.00    +0.000 C 
ATOM      4  N   UNL     1       3.547   7.291  16.816  0.00  0.00    +0.000 NA
ATOM      5  C   UNL     1       2.727   7.862  17.787  0.00  0.00    +0.000 A 
ATOM      6  C   UNL     1       1.930   8.913  17.354  0.00  0.00    +0.000 A 
ATOM      7  C   UNL     1       1.084   9.569  18.235  0.00  0.00    +0.000 A 
ATOM      8  C   UNL     1       1.029   9.217  19.566  0.00  0.00    +0.000 A 
ATOM      9  N   UNL     1       0.199   9.961  20.318  0.00  0.00    +0.000 NA
ATOM     10  C   UNL     1       0.104   9.684  21.627  0.00  0.00    +0.000 A 
ATOM     11  C   UNL     1       0.833   8.681  22.228  0.00  0.00    +0.000 A 
ATOM     12  C   UNL     1       1.683   7.895  21.436  0.00  0.00    +0.000 A 
ATOM     13  C   UNL     1       1.820   8.138  20.048  0.00  0.00    +0.000 A 
ATOM     14  C   UNL     1       2.664   7.425  19.122  0.00  0.00    +0.000 A 
ATOM     15  C   UNL     1       3.464   6.151  19.456  0.00  0.00    +0.000 C 
ATOM     16  C   UNL     1       5.320   5.936  16.008  0.00  0.00    +0.000 C 
ATOM     17  C   UNL     1       6.522   5.105  16.395  0.00  0.00    +0.000 C 
ATOM     18  C   UNL     1       7.011   5.354  17.814  0.00  0.00    +0.000 C 
ENDROOT
BRANCH  15  19
ATOM     19  C   UNL     1       2.589   4.887  19.389  0.00  0.00    +0.000 A 
ATOM     20  C   UNL     1       1.558   4.673  20.326  0.00  0.00    +0.000 A 
ATOM     21  C   UNL     1       0.702   3.575  20.233  0.00  0.00    +0.000 A 
ATOM     22  C   UNL     1       0.869   2.652  19.209  0.00  0.00    +0.000 A 
ATOM     23  C   UNL     1       1.896   2.838  18.288  0.00  0.00    +0.000 A 
ATOM     24  C   UNL     1       2.748   3.943  18.362  0.00  0.00    +0.000 A 
BRANCH  23  25
ATOM     25  O   UNL     1       2.100   1.941  17.280  0.00  0.00    +0.000 OA
ATOM     26  H   UNL     1       3.051   1.914  17.083  0.00  0.00    +0.000 HD
ENDBRANCH  23  25
ENDBRANCH  15  19
BRANCH   1  27
ATOM     27  O   UNL     1       6.229   4.905  20.047  0.00  0.00    +0.000 OA
ATOM     28  H   UNL     1       6.301   3.939  19.980  0.00  0.00    +0.000 HD
ENDBRANCH   1  27
TORSDOF 3
ENDMDL
MODEL 3
REMARK VINA RESULT:      -8.6      2.065      4.559
REMARK  Name = 
REMARK  3 active torsions:
REMARK  status: ('A' for Active; 'I' for Inactive)
REMARK    1  A    between atoms: O_1  and  C_2
REMARK    2  A    between atoms: C_16  and  C_17
REMARK    3  A    between atoms: C_21  and  O_22
REMARK                            x       y       z     vdW  Elec       q    Type
REMARK                         _______ _______ _______ _____ _____    ______ ____
ROOT
ATOM      1  C   UNL     1       3.398   3.221  17.226  0.00  0.00    +0.000 C 
ATOM      2  C   UNL     1       3.374   4.186  18.166  0.00  0.00    +0.000 C 
ATOM      3  C   UNL     1       3.110   3.748  19.564  0.00  0.00    +0.000 C 
ATOM      4  N   UNL     1       2.691   4.534  20.499  0.00  0.00    +0.000 NA
ATOM      5  C   UNL     1       2.380   5.862  20.215  0.00  0.00    +0.000 A 
ATOM      6  C   UNL     1       1.727   6.554  21.226  0.00  0.00    +0.000 A 
ATOM      7  C   UNL     1       1.353   7.877  21.052  0.00  0.00    +0.000 A 
ATOM      8  C   UNL     1       1.592   8.535  19.865  0.00  0.00    +0.000 A 
ATOM      9  N   UNL     1       1.141   9.800  19.814  0.00  0.00    +0.000 NA
ATOM     10  C   UNL     1       1.327  10.499  18.684  0.00  0.00    +0.000 A 
ATOM     11  C   UNL     1       1.946   9.964  17.575  0.00  0.00    +0.000 A 
ATOM     12  C   UNL     1       2.432   8.650  17.639  0.00  0.00    +0.000 A 
ATOM     13  C   UNL     1       2.269   7.867  18.808  0.00  0.00    +0.000 A 
ATOM     14  C   UNL     1       2.700   6.506  19.006  0.00  0.00    +0.000 A 
ATOM     15  C   UNL     1       3.566   5.700  18.018  0.00  0.00    +0.000 C 
ATOM     16  C   UNL     1       3.373   2.318  19.994  0.00  0.00    +0.000 C 
ATOM     17  C   UNL     1       3.679   1.336  18.886  0.00  0.00    +0.000 C 
ATOM     18  C   UNL     1       3.156   1.764  17.524  0.00  0.00    +0.000 C 
ENDROOT
BRANCH  15  19
ATOM     19  C   UNL     1       5.063   6.030  18.162  0.00  0.00    +0.000 A 
ATOM     20  C   UNL     1       5.692   6.926  17.275  0.00  0.00    +0.000 A 
ATOM     21  C   UNL     1       7.026   7.301  17.438  0.00  0.00    +0.000 A 
ATOM     22  C   UNL     1       7.771   6.772  18.485  0.00  0.00    +0.000 A 
ATOM     23  C   UNL     1       7.169   5.870  19.357  0.00  0.00    +0.000 A 
ATOM     24  C   UNL     1       5.830   5.501  19.213  0.00  0.00    +0.000 A 
BRANCH  23  25
ATOM     25  O   UNL     1       7.876   5.317  20.386  0.00  0.00    +0.000 OA
ATOM     26  H   UNL     1       7.264   5.150  21.122  0.00  0.00    +0.000 HD
ENDBRANCH  23  25
ENDBRANCH  15  19
BRANCH   1  27
ATOM     27  O   UNL     1       3.675   3.459  15.894  0.00  0.00    +0.000 OA
ATOM     28  H   UNL     1       3.097   4.160  15.553  0.00  0.00    +0.000 HD
ENDBRANCH   1  27
TORSDOF 3
ENDMDL
MODEL 4
REMARK VINA RESULT:      -8.5      1.915      4.722
REMARK  Name = 
REMARK  3 active torsions:
REMARK  status: ('A' for Active; 'I' for Inactive)
REMARK    1  A    between atoms: O_1  and  C_2
REMARK    2  A    between atoms: C_16  and  C_17
REMARK    3  A    between atoms: C_21  and  O_22
REMARK                            x       y       z     vdW  Elec       q    Type
REMARK                         _______ _______ _______ _____ _____    ______ ____
ROOT
ATOM      1  C   UNL     1       1.963   3.508  17.877  0.00  0.00    +0.000 C 
ATOM      2  C   UNL     1       2.177   4.544  18.710  0.00  0.00    +0.000 C 
ATOM      3  C   UNL     1       1.909   4.305  20.154  0.00  0.00    +0.000 C 
ATOM      4  N   UNL     1       1.702   5.246  21.015  0.00  0.00    +0.000 NA
ATOM      5  C   UNL     1       1.638   6.576  20.602  0.00  0.00    +0.000 A 
ATOM      6  C   UNL     1       1.187   7.478  21.556  0.00  0.00    +0.000 A 
ATOM      7  C   UNL     1       1.067   8.825  21.256  0.00  0.00    +0.000 A 
ATOM      8  C   UNL     1       1.364   9.304  19.998  0.00  0.00    +0.000 A 
ATOM      9  N   UNL     1       1.163  10.623  19.828  0.00  0.00    +0.000 NA
ATOM     10  C   UNL     1       1.419  11.157  18.626  0.00  0.00    +0.000 A 
ATOM     11  C   UNL     1       1.862  10.406  17.559  0.00  0.00    +0.000 A 
ATOM     12  C   UNL     1       2.087   9.035  17.745  0.00  0.00    +0.000 A 
ATOM     13  C   UNL     1       1.840   8.417  18.995  0.00  0.00    +0.000 A 
ATOM     14  C   UNL     1       2.010   7.023  19.321  0.00  0.00    +0.000 A 
ATOM     15  C   UNL     1       2.649   5.969  18.396  0.00  0.00    +0.000 C 
ATOM     16  C   UNL     1       1.914   2.901  20.725  0.00  0.00    +0.000 C 
ATOM     17  C   UNL     1       1.963   1.774  19.717  0.00  0.00    +0.000 C 
ATOM     18  C   UNL     1       1.460   2.163  18.336  0.00  0.00    +0.000 C 
ENDROOT
BRANCH  15  19
ATOM     19  C   UNL     1       4.187   6.009  18.453  0.00  0.00    +0.000 A 
ATOM     20  C   UNL     1       4.894   5.223  19.385  0.00  0.00    +0.000 A 
ATOM     21  C   UNL     1       6.289   5.183  19.398  0.00  0.00    +0.000 A 
ATOM     22  C   UNL     1       7.012   5.945  18.489  0.00  0.00    +0.000 A 
ATOM     23  C   UNL     1       6.329   6.742  17.577  0.00  0.00    +0.000 A 
ATOM     24  C   UNL     1       4.932   6.777  17.544  0.00  0.00    +0.000 A 
BRANCH  23  25
ATOM     25  O   UNL     1       7.007   7.517  16.682  0.00  0.00    +0.000 OA
ATOM     26  H   UNL     1       6.473   7.588  15.873  0.00  0.00    +0.000 HD
ENDBRANCH  23  25
ENDBRANCH  15  19
BRANCH   1  27
ATOM     27  O   UNL     1       2.208   3.555  16.519  0.00  0.00    +0.000 OA
ATOM     28  H   UNL     1       1.417   3.280  16.027  0.00  0.00    +0.000 HD
ENDBRANCH   1  27
TORSDOF 3
ENDMDL
MODEL 5
REMARK VINA RESULT:      -8.3      2.238      4.756
REMARK  Name = 
REMARK  3 active torsions:
REMARK  status: ('A' for Active; 'I' for Inactive)
REMARK    1  A    between atoms: O_1  and  C_2
REMARK    2  A    between atoms: C_16  and  C_17
REMARK    3  A    between atoms: C_21  and  O_22
REMARK                            x       y       z     vdW  Elec       q    Type
REMARK                         _______ _______ _______ _____ _____    ______ ____
ROOT
ATOM      1  C   UNL     1       3.353   3.348  17.151  0.00  0.00    +0.000 C 
ATOM      2  C   UNL     1       3.297   4.278  18.124  0.00  0.00    +0.000 C 
ATOM      3  C   UNL     1       2.948   3.795  19.488  0.00  0.00    +0.000 C 
ATOM      4  N   UNL     1       2.494   4.556  20.428  0.00  0.00    +0.000 NA
ATOM      5  C   UNL     1       2.224   5.900  20.177  0.00  0.00    +0.000 A 
ATOM      6  C   UNL     1       1.531   6.568  21.177  0.00  0.00    +0.000 A 
ATOM      7  C   UNL     1       1.193   7.904  21.033  0.00  0.00    +0.000 A 
ATOM      8  C   UNL     1       1.509   8.599  19.886  0.00  0.00    +0.000 A 
ATOM      9  N   UNL     1       1.086   9.875  19.858  0.00  0.00    +0.000 NA
ATOM     10  C   UNL     1       1.347  10.610  18.767  0.00  0.00    +0.000 A 
ATOM     11  C   UNL     1       2.015  10.103  17.673  0.00  0.00    +0.000 A 
ATOM     12  C   UNL     1       2.471   8.778  17.714  0.00  0.00    +0.000 A 
ATOM     13  C   UNL     1       2.229   7.957  18.842  0.00  0.00    +0.000 A 
ATOM     14  C   UNL     1       2.622   6.580  19.012  0.00  0.00    +0.000 A 
ATOM     15  C   UNL     1       3.526   5.792  18.043  0.00  0.00    +0.000 C 
ATOM     16  C   UNL     1       3.159   2.346  19.878  0.00  0.00    +0.000 C 
ATOM     17  C   UNL     1       3.506   1.398  18.752  0.00  0.00    +0.000 C 
ATOM     18  C   UNL     1       3.066   1.886  17.380  0.00  0.00    +0.000 C 
ENDROOT
BRANCH  15  19
ATOM     19  C   UNL     1       5.018   6.084  18.280  0.00  0.00    +0.000 A 
ATOM     20  C   UNL     1       5.738   5.396  19.277  0.00  0.00    +0.000 A 
ATOM     21  C   UNL     1       7.109   5.588  19.453  0.00  0.00    +0.000 A 
ATOM     22  C   UNL     1       7.792   6.488  18.645  0.00  0.00    +0.000 A 
ATOM     23  C   UNL     1       7.090   7.191  17.670  0.00  0.00    +0.000 A 
ATOM     24  C   UNL     1       5.721   6.994  17.474  0.00  0.00    +0.000 A 
BRANCH  23  25
ATOM     25  O   UNL     1       7.726   8.096  16.870  0.00  0.00    +0.000 OA
ATOM     26  H   UNL     1       8.652   7.818  16.770  0.00  0.00    +0.000 HD
ENDBRANCH  23  25
ENDBRANCH  15  19
BRANCH   1  27
ATOM     27  O   UNL     1       3.707   3.628  15.845  0.00  0.00    +0.000 OA
ATOM     28  H   UNL     1       2.927   3.575  15.269  0.00  0.00    +0.000 HD
ENDBRANCH   1  27
TORSDOF 3
ENDMDL
MODEL 6
REMARK VINA RESULT:      -7.7      4.439      8.089
REMARK  Name = 
REMARK  3 active torsions:
REMARK  status: ('A' for Active; 'I' for Inactive)
REMARK    1  A    between atoms: O_1  and  C_2
REMARK    2  A    between atoms: C_16  and  C_17
REMARK    3  A    between atoms: C_21  and  O_22
REMARK                            x       y       z     vdW  Elec       q    Type
REMARK                         _______ _______ _______ _____ _____    ______ ____
ROOT
ATOM      1  C   UNL     1      -0.529  14.092  19.812  0.00  0.00    +0.000 C 
ATOM      2  C   UNL     1      -0.626  12.769  20.048  0.00  0.00    +0.000 C 
ATOM      3  C   UNL     1      -1.125  12.367  21.391  0.00  0.00    +0.000 C 
ATOM      4  N   UNL     1      -0.934  11.200  21.912  0.00  0.00    +0.000 NA
ATOM      5  C   UNL     1      -0.155  10.253  21.251  0.00  0.00    +0.000 A 
ATOM      6  C   UNL     1       0.176   9.127  21.992  0.00  0.00    +0.000 A 
ATOM      7  C   UNL     1       0.960   8.124  21.444  0.00  0.00    +0.000 A 
ATOM      8  C   UNL     1       1.457   8.227  20.163  0.00  0.00    +0.000 A 
ATOM      9  N   UNL     1       2.238   7.206  19.770  0.00  0.00    +0.000 NA
ATOM     10  C   UNL     1       2.767   7.244  18.539  0.00  0.00    +0.000 A 
ATOM     11  C   UNL     1       2.554   8.294  17.672  0.00  0.00    +0.000 A 
ATOM     12  C   UNL     1       1.723   9.348  18.078  0.00  0.00    +0.000 A 
ATOM     13  C   UNL     1       1.133   9.359  19.365  0.00  0.00    +0.000 A 
ATOM     14  C   UNL     1       0.278  10.379  19.918  0.00  0.00    +0.000 A 
ATOM     15  C   UNL     1      -0.279  11.585  19.137  0.00  0.00    +0.000 C 
ATOM     16  C   UNL     1      -1.956  13.318  22.230  0.00  0.00    +0.000 C 
ATOM     17  C   UNL     1      -2.034  14.745  21.735  0.00  0.00    +0.000 C 
ATOM     18  C   UNL     1      -0.879  15.146  20.831  0.00  0.00    +0.000 C 
ENDROOT
BRANCH  15  19
ATOM     19  C   UNL     1      -1.523  11.212  18.310  0.00  0.00    +0.000 A 
ATOM     20  C   UNL     1      -1.509  10.093  17.453  0.00  0.00    +0.000 A 
ATOM     21  C   UNL     1      -2.650   9.691  16.758  0.00  0.00    +0.000 A 
ATOM     22  C   UNL     1      -3.831  10.410  16.890  0.00  0.00    +0.000 A 
ATOM     23  C   UNL     1      -3.855  11.529  17.716  0.00  0.00    +0.000 A 
ATOM     24  C   UNL     1      -2.723  11.931  18.430  0.00  0.00    +0.000 A 
BRANCH  23  25
ATOM     25  O   UNL     1      -4.993  12.270  17.855  0.00  0.00    +0.000 OA
ATOM     26  H   UNL     1      -5.714  11.809  17.394  0.00  0.00    +0.000 HD
ENDBRANCH  23  25
ENDBRANCH  15  19
BRANCH   1  27
ATOM     27  O   UNL     1      -0.128  14.625  18.602  0.00  0.00    +0.000 OA
ATOM     28  H   UNL     1       0.669  15.167  18.725  0.00  0.00    +0.000 HD
ENDBRANCH   1  27
TORSDOF 3
ENDMDL
MODEL 7
REMARK VINA RESULT:      -7.7      4.472      8.261
REMARK  Name = 
REMARK  3 active torsions:
REMARK  status: ('A' for Active; 'I' for Inactive)
REMARK    1  A    between atoms: O_1  and  C_2
REMARK    2  A    between atoms: C_16  and  C_17
REMARK    3  A    between atoms: C_21  and  O_22
REMARK                            x       y       z     vdW  Elec       q    Type
REMARK                         _______ _______ _______ _____ _____    ______ ____
ROOT
ATOM      1  C   UNL     1      -0.800  14.357  19.809  0.00  0.00    +0.000 C 
ATOM      2  C   UNL     1      -0.857  13.046  20.114  0.00  0.00    +0.000 C 
ATOM      3  C   UNL     1      -1.256  12.701  21.505  0.00  0.00    +0.000 C 
ATOM      4  N   UNL     1      -1.010  11.564  22.066  0.00  0.00    +0.000 NA
ATOM      5  C   UNL     1      -0.261  10.598  21.398  0.00  0.00    +0.000 A 
ATOM      6  C   UNL     1       0.139   9.513  22.167  0.00  0.00    +0.000 A 
ATOM      7  C   UNL     1       0.902   8.497  21.614  0.00  0.00    +0.000 A 
ATOM      8  C   UNL     1       1.308   8.545  20.298  0.00  0.00    +0.000 A 
ATOM      9  N   UNL     1       2.079   7.518  19.902  0.00  0.00    +0.000 NA
ATOM     10  C   UNL     1       2.523   7.504  18.636  0.00  0.00    +0.000 A 
ATOM     11  C   UNL     1       2.232   8.507  17.737  0.00  0.00    +0.000 A 
ATOM     12  C   UNL     1       1.413   9.568  18.150  0.00  0.00    +0.000 A 
ATOM     13  C   UNL     1       0.911   9.632  19.473  0.00  0.00    +0.000 A 
ATOM     14  C   UNL     1       0.078  10.666  20.035  0.00  0.00    +0.000 A 
ATOM     15  C   UNL     1      -0.552  11.824  19.238  0.00  0.00    +0.000 C 
ATOM     16  C   UNL     1      -2.045  13.680  22.353  0.00  0.00    +0.000 C 
ATOM     17  C   UNL     1      -2.182  15.080  21.799  0.00  0.00    +0.000 C 
ATOM     18  C   UNL     1      -1.099  15.454  20.799  0.00  0.00    +0.000 C 
ENDROOT
BRANCH  15  19
ATOM     19  C   UNL     1      -1.842  11.394  18.517  0.00  0.00    +0.000 A 
ATOM     20  C   UNL     1      -3.105  11.804  18.991  0.00  0.00    +0.000 A 
ATOM     21  C   UNL     1      -4.280  11.492  18.306  0.00  0.00    +0.000 A 
ATOM     22  C   UNL     1      -4.222  10.746  17.137  0.00  0.00    +0.000 A 
ATOM     23  C   UNL     1      -2.985  10.315  16.667  0.00  0.00    +0.000 A 
ATOM     24  C   UNL     1      -1.801  10.636  17.335  0.00  0.00    +0.000 A 
BRANCH  23  25
ATOM     25  O   UNL     1      -2.893   9.564  15.531  0.00  0.00    +0.000 OA
ATOM     26  H   UNL     1      -3.041   8.633  15.768  0.00  0.00    +0.000 HD
ENDBRANCH  23  25
ENDBRANCH  15  19
BRANCH   1  27
ATOM     27  O   UNL     1      -0.491  14.836  18.551  0.00  0.00    +0.000 OA
ATOM     28  H   UNL     1      -1.299  15.126  18.097  0.00  0.00    +0.000 HD
ENDBRANCH   1  27
TORSDOF 3
ENDMDL
MODEL 8
REMARK VINA RESULT:      -7.6      2.205      5.766
REMARK  Name = 
REMARK  3 active torsions:
REMARK  status: ('A' for Active; 'I' for Inactive)
REMARK    1  A    between atoms: O_1  and  C_2
REMARK    2  A    between atoms: C_16  and  C_17
REMARK    3  A    between atoms: C_21  and  O_22
REMARK                            x       y       z     vdW  Elec       q    Type
REMARK                         _______ _______ _______ _____ _____    ______ ____
ROOT
ATOM      1  C   UNL     1       2.282   4.023  20.873  0.00  0.00    +0.000 C 
ATOM      2  C   UNL     1       2.651   4.456  19.652  0.00  0.00    +0.000 C 
ATOM      3  C   UNL     1       2.095   3.716  18.486  0.00  0.00    +0.000 C 
ATOM      4  N   UNL     1       2.611   3.743  17.303  0.00  0.00    +0.000 NA
ATOM      5  C   UNL     1       3.803   4.427  17.069  0.00  0.00    +0.000 A 
ATOM      6  C   UNL     1       4.388   4.206  15.830  0.00  0.00    +0.000 A 
ATOM      7  C   UNL     1       5.583   4.820  15.492  0.00  0.00    +0.000 A 
ATOM      8  C   UNL     1       6.238   5.643  16.381  0.00  0.00    +0.000 A 
ATOM      9  N   UNL     1       7.408   6.140  15.943  0.00  0.00    +0.000 NA
ATOM     10  C   UNL     1       8.108   6.941  16.760  0.00  0.00    +0.000 A 
ATOM     11  C   UNL     1       7.682   7.257  18.032  0.00  0.00    +0.000 A 
ATOM     12  C   UNL     1       6.452   6.752  18.478  0.00  0.00    +0.000 A 
ATOM     13  C   UNL     1       5.668   5.907  17.657  0.00  0.00    +0.000 A 
ATOM     14  C   UNL     1       4.401   5.306  17.991  0.00  0.00    +0.000 A 
ATOM     15  C   UNL     1       3.588   5.607  19.265  0.00  0.00    +0.000 C 
ATOM     16  C   UNL     1       0.822   2.904  18.615  0.00  0.00    +0.000 C 
ATOM     17  C   UNL     1       0.304   2.699  20.021  0.00  0.00    +0.000 C 
ATOM     18  C   UNL     1       1.370   2.843  21.096  0.00  0.00    +0.000 C 
ENDROOT
BRANCH  15  19
ATOM     19  C   UNL     1       2.762   6.898  19.131  0.00  0.00    +0.000 A 
ATOM     20  C   UNL     1       2.675   7.573  17.896  0.00  0.00    +0.000 A 
ATOM     21  C   UNL     1       1.867   8.699  17.734  0.00  0.00    +0.000 A 
ATOM     22  C   UNL     1       1.138   9.189  18.810  0.00  0.00    +0.000 A 
ATOM     23  C   UNL     1       1.231   8.547  20.041  0.00  0.00    +0.000 A 
ATOM     24  C   UNL     1       2.023   7.409  20.210  0.00  0.00    +0.000 A 
BRANCH  23  25
ATOM     25  O   UNL     1       0.543   9.012  21.124  0.00  0.00    +0.000 OA
ATOM     26  H   UNL     1       0.954   8.648  21.926  0.00  0.00    +0.000 HD
ENDBRANCH  23  25
ENDBRANCH  15  19
BRANCH   1  27
ATOM     27  O   UNL     1       2.674   4.630  22.050  0.00  0.00    +0.000 OA
ATOM     28  H   UNL     1       2.888   5.563  21.890  0.00  0.00    +0.000 HD
ENDBRANCH   1  27
TORSDOF 3
ENDMDL
MODEL 9
REMARK VINA RESULT:      -7.6      2.207      5.908
REMARK  Name = 
REMARK  3 active torsions:
REMARK  status: ('A' for Active; 'I' for Inactive)
REMARK    1  A    between atoms: O_1  and  C_2
REMARK    2  A    between atoms: C_16  and  C_17
REMARK    3  A    between atoms: C_21  and  O_22
REMARK                            x       y       z     vdW  Elec       q    Type
REMARK                         _______ _______ _______ _____ _____    ______ ____
ROOT
ATOM      1  C   UNL     1       2.325   3.742  20.891  0.00  0.00    +0.000 C 
ATOM      2  C   UNL     1       2.668   4.249  19.691  0.00  0.00    +0.000 C 
ATOM      3  C   UNL     1       2.095   3.574  18.495  0.00  0.00    +0.000 C 
ATOM      4  N   UNL     1       2.588   3.674  17.305  0.00  0.00    +0.000 NA
ATOM      5  C   UNL     1       3.770   4.381  17.090  0.00  0.00    +0.000 A 
ATOM      6  C   UNL     1       4.333   4.238  15.830  0.00  0.00    +0.000 A 
ATOM      7  C   UNL     1       5.516   4.882  15.506  0.00  0.00    +0.000 A 
ATOM      8  C   UNL     1       6.182   5.658  16.429  0.00  0.00    +0.000 A 
ATOM      9  N   UNL     1       7.339   6.190  15.999  0.00  0.00    +0.000 NA
ATOM     10  C   UNL     1       8.048   6.948  16.848  0.00  0.00    +0.000 A 
ATOM     11  C   UNL     1       7.644   7.186  18.144  0.00  0.00    +0.000 A 
ATOM     12  C   UNL     1       6.427   6.645  18.583  0.00  0.00    +0.000 A 
ATOM     13  C   UNL     1       5.634   5.841  17.728  0.00  0.00    +0.000 A 
ATOM     14  C   UNL     1       4.378   5.210  18.050  0.00  0.00    +0.000 A 
ATOM     15  C   UNL     1       3.588   5.429  19.355  0.00  0.00    +0.000 C 
ATOM     16  C   UNL     1       0.831   2.743  18.600  0.00  0.00    +0.000 C 
ATOM     17  C   UNL     1       0.342   2.451  20.001  0.00  0.00    +0.000 C 
ATOM     18  C   UNL     1       1.427   2.543  21.062  0.00  0.00    +0.000 C 
ENDROOT
BRANCH  15  19
ATOM     19  C   UNL     1       2.749   6.719  19.312  0.00  0.00    +0.000 A 
ATOM     20  C   UNL     1       2.002   7.130  20.434  0.00  0.00    +0.000 A 
ATOM     21  C   UNL     1       1.301   8.338  20.442  0.00  0.00    +0.000 A 
ATOM     22  C   UNL     1       1.316   9.155  19.319  0.00  0.00    +0.000 A 
ATOM     23  C   UNL     1       2.032   8.752  18.196  0.00  0.00    +0.000 A 
ATOM     24  C   UNL     1       2.751   7.554  18.183  0.00  0.00    +0.000 A 
BRANCH  23  25
ATOM     25  O   UNL     1       2.054   9.522  17.069  0.00  0.00    +0.000 OA
ATOM     26  H   UNL     1       1.937  10.450  17.332  0.00  0.00    +0.000 HD
ENDBRANCH  23  25
ENDBRANCH  15  19
BRANCH   1  27
ATOM     27  O   UNL     1       2.735   4.283  22.095  0.00  0.00    +0.000 OA
ATOM     28  H   UNL     1       3.562   4.776  21.974  0.00  0.00    +0.000 HD
ENDBRANCH   1  27
TORSDOF 3
ENDMDL
