MODEL 1
REMARK VINA RESULT:      -8.2      0.000      0.000
REMARK  Name = 
REMARK  6 active torsions:
REMARK  status: ('A' for Active; 'I' for Inactive)
REMARK    1  A    between atoms: C_1  and  C_2
REMARK    2  A    between atoms: C_2  and  C_3
REMARK    3  A    between atoms: C_8  and  C_9
REMARK    4  A    between atoms: C_9  and  C_11
REMARK    5  A    between atoms: C_19  and  N_20
REMARK    6  A    between atoms: C_31  and  O_32
REMARK                            x       y       z     vdW  Elec       q    Type
REMARK                         _______ _______ _______ _____ _____    ______ ____
ROOT
ATOM      1  C   UNL     1       0.723   2.233  19.427  0.00  0.00    +0.000 C 
ATOM      2  C   UNL     1       1.907   3.195  19.231  0.00  0.00    +0.000 C 
ATOM      3  C   UNL     1       2.975   2.799  20.276  0.00  0.00    +0.000 C 
ATOM      4  O   UNL     1       2.405   2.919  17.911  0.00  0.00    +0.000 OA
ATOM      5  C   UNL     1       3.382   3.773  17.474  0.00  0.00    +0.000 A 
ATOM      6  C   UNL     1       4.290   3.212  16.579  0.00  0.00    +0.000 A 
ATOM      7  C   UNL     1       5.412   3.933  16.188  0.00  0.00    +0.000 A 
ATOM      8  C   UNL     1       5.607   5.224  16.684  0.00  0.00    +0.000 A 
ATOM      9  C   UNL     1       4.641   5.821  17.507  0.00  0.00    +0.000 A 
ATOM     10  C   UNL     1       3.514   5.094  17.925  0.00  0.00    +0.000 A 
ATOM     11  C   UNL     1       2.596   5.648  18.995  0.00  0.00    +0.000 C 
ATOM     12  C   UNL     1       1.425   4.672  19.303  0.00  0.00    +0.000 C 
ENDROOT
BRANCH  11  13
ATOM     13  N   UNL     1       2.124   7.033  18.677  0.00  0.00    +0.000 N 
ATOM     14  C   UNL     1       1.801   7.852  19.729  0.00  0.00    +0.000 A 
ATOM     15  N   UNL     1       2.130   7.578  20.999  0.00  0.00    +0.000 NA
ATOM     16  O   UNL     1       1.362   8.392  21.788  0.00  0.00    +0.000 OA
ATOM     17  C   UNL     1       0.663   9.243  21.009  0.00  0.00    +0.000 A 
ATOM     18  C   UNL     1      -0.278  10.154  21.477  0.00  0.00    +0.000 A 
ATOM     19  C   UNL     1      -0.815  11.029  20.535  0.00  0.00    +0.000 A 
ATOM     20  C   UNL     1      -0.378  10.989  19.209  0.00  0.00    +0.000 A 
ATOM     21 CL   UNL     1      -0.945  12.210  18.129  0.00  0.00    +0.000 Cl
ATOM     22  C   UNL     1       0.514   9.997  18.745  0.00  0.00    +0.000 A 
ATOM     23  C   UNL     1       1.020   9.060  19.678  0.00  0.00    +0.000 A 
ATOM     24  H   UNL     1       1.502   7.062  17.874  0.00  0.00    +0.000 HD
ENDBRANCH  11  13
BRANCH   8  25
ATOM     25  C   UNL     1       6.873   5.917  16.345  0.00  0.00    +0.000 C 
ATOM     26  O   UNL     1       7.430   5.650  15.286  0.00  0.00    +0.000 OA
BRANCH  25  27
ATOM     27  C   UNL     1       7.484   6.908  17.267  0.00  0.00    +0.000 A 
ATOM     28  C   UNL     1       8.028   6.441  18.469  0.00  0.00    +0.000 A 
ATOM     29  C   UNL     1       8.620   7.330  19.360  0.00  0.00    +0.000 A 
ATOM     30  C   UNL     1       8.672   8.697  19.062  0.00  0.00    +0.000 A 
ATOM     31  C   UNL     1       8.116   9.165  17.872  0.00  0.00    +0.000 A 
ATOM     32  C   UNL     1       7.508   8.278  16.983  0.00  0.00    +0.000 A 
ENDBRANCH  25  27
ENDBRANCH   8  25
BRANCH  12  33
ATOM     33  O   UNL     1       0.824   4.965  20.575  0.00  0.00    +0.000 OA
ATOM     34  H   UNL     1       1.530   5.062  21.238  0.00  0.00    +0.000 HD
ENDBRANCH  12  33
TORSDOF 4
ENDMDL
MODEL 2
REMARK VINA RESULT:      -8.0      3.230      7.160
REMARK  Name = 
REMARK  6 active torsions:
REMARK  status: ('A' for Active; 'I' for Inactive)
REMARK    1  A    between atoms: C_1  and  C_2
REMARK    2  A    between atoms: C_2  and  C_3
REMARK    3  A    between atoms: C_8  and  C_9
REMARK    4  A    between atoms: C_9  and  C_11
REMARK    5  A    between atoms: C_19  and  N_20
REMARK    6  A    between atoms: C_31  and  O_32
REMARK                            x       y       z     vdW  Elec       q    Type
REMARK                         _______ _______ _______ _____ _____    ______ ____
ROOT
ATOM      1  C   UNL     1       1.881   2.125  21.564  0.00  0.00    +0.000 C 
ATOM      2  C   UNL     1       1.593   3.229  20.533  0.00  0.00    +0.000 C 
ATOM      3  C   UNL     1       0.059   3.419  20.507  0.00  0.00    +0.000 C 
ATOM      4  O   UNL     1       2.212   4.413  21.063  0.00  0.00    +0.000 OA
ATOM      5  C   UNL     1       2.198   5.495  20.223  0.00  0.00    +0.000 A 
ATOM      6  C   UNL     1       2.173   6.731  20.864  0.00  0.00    +0.000 A 
ATOM      7  C   UNL     1       2.001   7.893  20.121  0.00  0.00    +0.000 A 
ATOM      8  C   UNL     1       1.873   7.809  18.733  0.00  0.00    +0.000 A 
ATOM      9  C   UNL     1       1.997   6.572  18.083  0.00  0.00    +0.000 A 
ATOM     10  C   UNL     1       2.150   5.389  18.826  0.00  0.00    +0.000 A 
ATOM     11  C   UNL     1       2.048   4.038  18.149  0.00  0.00    +0.000 C 
ATOM     12  C   UNL     1       2.241   2.875  19.164  0.00  0.00    +0.000 C 
ENDROOT
BRANCH  11  13
ATOM     13  N   UNL     1       2.956   3.926  16.964  0.00  0.00    +0.000 N 
ATOM     14  C   UNL     1       4.309   3.943  17.196  0.00  0.00    +0.000 A 
ATOM     15  N   UNL     1       4.845   3.790  18.415  0.00  0.00    +0.000 NA
ATOM     16  O   UNL     1       6.145   4.210  18.326  0.00  0.00    +0.000 OA
ATOM     17  C   UNL     1       6.439   4.498  17.041  0.00  0.00    +0.000 A 
ATOM     18  C   UNL     1       7.648   5.028  16.605  0.00  0.00    +0.000 A 
ATOM     19  C   UNL     1       7.808   5.152  15.227  0.00  0.00    +0.000 A 
ATOM     20  C   UNL     1       6.802   4.719  14.360  0.00  0.00    +0.000 A 
ATOM     21 CL   UNL     1       7.127   4.732  12.665  0.00  0.00    +0.000 Cl
ATOM     22  C   UNL     1       5.551   4.265  14.834  0.00  0.00    +0.000 A 
ATOM     23  C   UNL     1       5.349   4.194  16.233  0.00  0.00    +0.000 A 
ATOM     24  H   UNL     1       2.628   4.461  16.164  0.00  0.00    +0.000 HD
ENDBRANCH  11  13
BRANCH   8  25
ATOM     25  C   UNL     1       1.569   9.051  17.984  0.00  0.00    +0.000 C 
ATOM     26  O   UNL     1       2.330   9.409  17.093  0.00  0.00    +0.000 OA
BRANCH  25  27
ATOM     27  C   UNL     1       0.376   9.876  18.305  0.00  0.00    +0.000 A 
ATOM     28  C   UNL     1      -0.800   9.643  17.582  0.00  0.00    +0.000 A 
ATOM     29  C   UNL     1      -1.946  10.383  17.854  0.00  0.00    +0.000 A 
ATOM     30  C   UNL     1      -1.929  11.369  18.848  0.00  0.00    +0.000 A 
ATOM     31  C   UNL     1      -0.754  11.613  19.557  0.00  0.00    +0.000 A 
ATOM     32  C   UNL     1       0.402  10.883  19.278  0.00  0.00    +0.000 A 
ENDBRANCH  25  27
ENDBRANCH   8  25
BRANCH  12  33
ATOM     33  O   UNL     1       1.724   1.639  18.644  0.00  0.00    +0.000 OA
ATOM     34  H   UNL     1       1.488   1.062  19.391  0.00  0.00    +0.000 HD
ENDBRANCH  12  33
TORSDOF 4
ENDMDL
MODEL 3
REMARK VINA RESULT:      -7.5      1.899      2.906
REMARK  Name = 
REMARK  6 active torsions:
REMARK  status: ('A' for Active; 'I' for Inactive)
REMARK    1  A    between atoms: C_1  and  C_2
REMARK    2  A    between atoms: C_2  and  C_3
REMARK    3  A    between atoms: C_8  and  C_9
REMARK    4  A    between atoms: C_9  and  C_11
REMARK    5  A    between atoms: C_19  and  N_20
REMARK    6  A    between atoms: C_31  and  O_32
REMARK                            x       y       z     vdW  Elec       q    Type
REMARK                         _______ _______ _______ _____ _____    ______ ____
ROOT
ATOM      1  C   UNL     1       0.932   2.649  20.755  0.00  0.00    +0.000 C 
ATOM      2  C   UNL     1       2.021   3.525  20.112  0.00  0.00    +0.000 C 
ATOM      3  C   UNL     1       3.283   3.379  20.993  0.00  0.00    +0.000 C 
ATOM      4  O   UNL     1       2.268   2.936  18.824  0.00  0.00    +0.000 OA
ATOM      5  C   UNL     1       3.112   3.652  18.016  0.00  0.00    +0.000 A 
ATOM      6  C   UNL     1       3.853   2.885  17.120  0.00  0.00    +0.000 A 
ATOM      7  C   UNL     1       4.852   3.481  16.360  0.00  0.00    +0.000 A 
ATOM      8  C   UNL     1       5.091   4.851  16.491  0.00  0.00    +0.000 A 
ATOM      9  C   UNL     1       4.278   5.637  17.321  0.00  0.00    +0.000 A 
ATOM     10  C   UNL     1       3.279   5.041  18.109  0.00  0.00    +0.000 A 
ATOM     11  C   UNL     1       2.562   5.844  19.175  0.00  0.00    +0.000 C 
ATOM     12  C   UNL     1       1.507   4.980  19.925  0.00  0.00    +0.000 C 
ENDROOT
BRANCH  11  13
ATOM     13  N   UNL     1       1.987   7.117  18.637  0.00  0.00    +0.000 N 
ATOM     14  C   UNL     1       1.696   8.113  19.535  0.00  0.00    +0.000 A 
ATOM     15  N   UNL     1       2.136   8.109  20.801  0.00  0.00    +0.000 NA
ATOM     16  O   UNL     1       1.383   9.030  21.480  0.00  0.00    +0.000 OA
ATOM     17  C   UNL     1       0.578   9.680  20.614  0.00  0.00    +0.000 A 
ATOM     18  C   UNL     1      -0.376  10.624  20.976  0.00  0.00    +0.000 A 
ATOM     19  C   UNL     1      -1.032  11.272  19.932  0.00  0.00    +0.000 A 
ATOM     20  C   UNL     1      -0.695  10.991  18.607  0.00  0.00    +0.000 A 
ATOM     21 CL   UNL     1      -1.412  11.950  17.363  0.00  0.00    +0.000 Cl
ATOM     22  C   UNL     1       0.216   9.965  18.268  0.00  0.00    +0.000 A 
ATOM     23  C   UNL     1       0.845   9.253  19.318  0.00  0.00    +0.000 A 
ATOM     24  H   UNL     1       1.305   6.960  17.899  0.00  0.00    +0.000 HD
ENDBRANCH  11  13
BRANCH   8  25
ATOM     25  C   UNL     1       6.242   5.430  15.759  0.00  0.00    +0.000 C 
ATOM     26  O   UNL     1       6.909   6.306  16.298  0.00  0.00    +0.000 OA
BRANCH  25  27
ATOM     27  C   UNL     1       6.588   4.986  14.384  0.00  0.00    +0.000 A 
ATOM     28  C   UNL     1       5.810   3.978  13.802  0.00  0.00    +0.000 A 
ATOM     29  C   UNL     1       6.089   3.536  12.513  0.00  0.00    +0.000 A 
ATOM     30  C   UNL     1       7.153   4.093  11.792  0.00  0.00    +0.000 A 
ATOM     31  C   UNL     1       7.938   5.085  12.377  0.00  0.00    +0.000 A 
ATOM     32  C   UNL     1       7.670   5.521  13.676  0.00  0.00    +0.000 A 
ENDBRANCH  25  27
ENDBRANCH   8  25
BRANCH  12  33
ATOM     33  O   UNL     1       1.149   5.574  21.184  0.00  0.00    +0.000 OA
ATOM     34  H   UNL     1       1.248   4.905  21.884  0.00  0.00    +0.000 HD
ENDBRANCH  12  33
TORSDOF 4
ENDMDL
MODEL 4
REMARK VINA RESULT:      -7.0      5.494      9.488
REMARK  Name = 
REMARK  6 active torsions:
REMARK  status: ('A' for Active; 'I' for Inactive)
REMARK    1  A    between atoms: C_1  and  C_2
REMARK    2  A    between atoms: C_2  and  C_3
REMARK    3  A    between atoms: C_8  and  C_9
REMARK    4  A    between atoms: C_9  and  C_11
REMARK    5  A    between atoms: C_19  and  N_20
REMARK    6  A    between atoms: C_31  and  O_32
REMARK                            x       y       z     vdW  Elec       q    Type
REMARK                         _______ _______ _______ _____ _____    ______ ____
ROOT
ATOM      1  C   UNL     1      -0.458  17.392  18.286  0.00  0.00    +0.000 C 
ATOM      2  C   UNL     1      -0.073  16.133  19.081  0.00  0.00    +0.000 C 
ATOM      3  C   UNL     1      -1.000  16.090  20.317  0.00  0.00    +0.000 C 
ATOM      4  O   UNL     1      -0.383  15.029  18.213  0.00  0.00    +0.000 OA
ATOM      5  C   UNL     1       0.020  13.804  18.674  0.00  0.00    +0.000 A 
ATOM      6  C   UNL     1      -0.768  12.734  18.254  0.00  0.00    +0.000 A 
ATOM      7  C   UNL     1      -0.551  11.467  18.781  0.00  0.00    +0.000 A 
ATOM      8  C   UNL     1       0.470  11.275  19.715  0.00  0.00    +0.000 A 
ATOM      9  C   UNL     1       1.323  12.334  20.060  0.00  0.00    +0.000 A 
ATOM     10  C   UNL     1       1.100  13.623  19.550  0.00  0.00    +0.000 A 
ATOM     11  C   UNL     1       1.866  14.810  20.099  0.00  0.00    +0.000 C 
ATOM     12  C   UNL     1       1.450  16.132  19.393  0.00  0.00    +0.000 C 
ENDROOT
BRANCH  11  13
ATOM     13  N   UNL     1       3.346  14.587  20.081  0.00  0.00    +0.000 N 
ATOM     14  C   UNL     1       3.996  14.533  21.288  0.00  0.00    +0.000 A 
ATOM     15  N   UNL     1       3.356  14.404  22.459  0.00  0.00    +0.000 NA
ATOM     16  O   UNL     1       4.256  14.739  23.436  0.00  0.00    +0.000 OA
ATOM     17  C   UNL     1       5.467  14.949  22.879  0.00  0.00    +0.000 A 
ATOM     18  C   UNL     1       6.592  15.384  23.572  0.00  0.00    +0.000 A 
ATOM     19  C   UNL     1       7.782  15.433  22.850  0.00  0.00    +0.000 A 
ATOM     20  C   UNL     1       7.813  15.022  21.516  0.00  0.00    +0.000 A 
ATOM     21 CL   UNL     1       9.346  14.936  20.726  0.00  0.00    +0.000 Cl
ATOM     22  C   UNL     1       6.638  14.668  20.815  0.00  0.00    +0.000 A 
ATOM     23  C   UNL     1       5.410  14.674  21.518  0.00  0.00    +0.000 A 
ATOM     24  H   UNL     1       3.813  15.103  19.339  0.00  0.00    +0.000 HD
ENDBRANCH  11  13
BRANCH   8  25
ATOM     25  C   UNL     1       0.595   9.940  20.347  0.00  0.00    +0.000 C 
ATOM     26  O   UNL     1       0.052   9.741  21.427  0.00  0.00    +0.000 OA
BRANCH  25  27
ATOM     27  C   UNL     1       1.379   8.852  19.708  0.00  0.00    +0.000 A 
ATOM     28  C   UNL     1       1.780   9.023  18.377  0.00  0.00    +0.000 A 
ATOM     29  C   UNL     1       2.524   8.035  17.740  0.00  0.00    +0.000 A 
ATOM     30  C   UNL     1       2.872   6.863  18.422  0.00  0.00    +0.000 A 
ATOM     31  C   UNL     1       2.458   6.685  19.741  0.00  0.00    +0.000 A 
ATOM     32  C   UNL     1       1.700   7.667  20.380  0.00  0.00    +0.000 A 
ENDBRANCH  25  27
ENDBRANCH   8  25
BRANCH  12  33
ATOM     33  O   UNL     1       1.824  17.279  20.175  0.00  0.00    +0.000 OA
ATOM     34  H   UNL     1       1.317  17.268  21.006  0.00  0.00    +0.000 HD
ENDBRANCH  12  33
TORSDOF 4
ENDMDL
MODEL 5
REMARK VINA RESULT:      -6.9      6.884     10.086
REMARK  Name = 
REMARK  6 active torsions:
REMARK  status: ('A' for Active; 'I' for Inactive)
REMARK    1  A    between atoms: C_1  and  C_2
REMARK    2  A    between atoms: C_2  and  C_3
REMARK    3  A    between atoms: C_8  and  C_9
REMARK    4  A    between atoms: C_9  and  C_11
REMARK    5  A    between atoms: C_19  and  N_20
REMARK    6  A    between atoms: C_31  and  O_32
REMARK                            x       y       z     vdW  Elec       q    Type
REMARK                         _______ _______ _______ _____ _____    ______ ____
ROOT
ATOM      1  C   UNL     1       3.256  13.968  20.224  0.00  0.00    +0.000 C 
ATOM      2  C   UNL     1       1.918  13.723  19.506  0.00  0.00    +0.000 C 
ATOM      3  C   UNL     1       2.147  14.069  18.016  0.00  0.00    +0.000 C 
ATOM      4  O   UNL     1       1.672  12.313  19.636  0.00  0.00    +0.000 OA
ATOM      5  C   UNL     1       0.447  11.899  19.185  0.00  0.00    +0.000 A 
ATOM      6  C   UNL     1       0.413  10.592  18.704  0.00  0.00    +0.000 A 
ATOM      7  C   UNL     1      -0.732  10.113  18.079  0.00  0.00    +0.000 A 
ATOM      8  C   UNL     1      -1.847  10.946  17.955  0.00  0.00    +0.000 A 
ATOM      9  C   UNL     1      -1.843  12.226  18.527  0.00  0.00    +0.000 A 
ATOM     10  C   UNL     1      -0.684  12.727  19.143  0.00  0.00    +0.000 A 
ATOM     11  C   UNL     1      -0.598  14.184  19.549  0.00  0.00    +0.000 C 
ATOM     12  C   UNL     1       0.775  14.514  20.202  0.00  0.00    +0.000 C 
ENDROOT
BRANCH  11  13
ATOM     13  N   UNL     1      -1.757  14.606  20.399  0.00  0.00    +0.000 N 
ATOM     14  C   UNL     1      -1.898  14.007  21.625  0.00  0.00    +0.000 A 
ATOM     15  N   UNL     1      -0.930  13.279  22.200  0.00  0.00    +0.000 NA
ATOM     16  O   UNL     1      -1.524  12.563  23.206  0.00  0.00    +0.000 OA
ATOM     17  C   UNL     1      -2.813  12.942  23.327  0.00  0.00    +0.000 A 
ATOM     18  C   UNL     1      -3.730  12.361  24.196  0.00  0.00    +0.000 A 
ATOM     19  C   UNL     1      -4.985  12.961  24.263  0.00  0.00    +0.000 A 
ATOM     20  C   UNL     1      -5.258  14.107  23.512  0.00  0.00    +0.000 A 
ATOM     21 CL   UNL     1      -6.764  14.909  23.770  0.00  0.00    +0.000 Cl
ATOM     22  C   UNL     1      -4.336  14.623  22.574  0.00  0.00    +0.000 A 
ATOM     23  C   UNL     1      -3.079  13.985  22.448  0.00  0.00    +0.000 A 
ATOM     24  H   UNL     1      -2.609  14.742  19.862  0.00  0.00    +0.000 HD
ENDBRANCH  11  13
BRANCH   8  25
ATOM     25  C   UNL     1      -3.006  10.448  17.177  0.00  0.00    +0.000 C 
ATOM     26  O   UNL     1      -2.812   9.644  16.271  0.00  0.00    +0.000 OA
BRANCH  25  27
ATOM     27  C   UNL     1      -4.387  10.917  17.459  0.00  0.00    +0.000 A 
ATOM     28  C   UNL     1      -5.143  10.209  18.400  0.00  0.00    +0.000 A 
ATOM     29  C   UNL     1      -6.438  10.616  18.705  0.00  0.00    +0.000 A 
ATOM     30  C   UNL     1      -6.995  11.732  18.069  0.00  0.00    +0.000 A 
ATOM     31  C   UNL     1      -6.247  12.428  17.119  0.00  0.00    +0.000 A 
ATOM     32  C   UNL     1      -4.953  12.014  16.800  0.00  0.00    +0.000 A 
ENDBRANCH  25  27
ENDBRANCH   8  25
BRANCH  12  33
ATOM     33  O   UNL     1       1.032  15.928  20.186  0.00  0.00    +0.000 OA
ATOM     34  H   UNL     1       0.281  16.376  19.758  0.00  0.00    +0.000 HD
ENDBRANCH  12  33
TORSDOF 4
ENDMDL
MODEL 6
REMARK VINA RESULT:      -6.9      4.833      7.995
REMARK  Name = 
REMARK  6 active torsions:
REMARK  status: ('A' for Active; 'I' for Inactive)
REMARK    1  A    between atoms: C_1  and  C_2
REMARK    2  A    between atoms: C_2  and  C_3
REMARK    3  A    between atoms: C_8  and  C_9
REMARK    4  A    between atoms: C_9  and  C_11
REMARK    5  A    between atoms: C_19  and  N_20
REMARK    6  A    between atoms: C_31  and  O_32
REMARK                            x       y       z     vdW  Elec       q    Type
REMARK                         _______ _______ _______ _____ _____    ______ ____
ROOT
ATOM      1  C   UNL     1      -2.483  14.048  20.728  0.00  0.00    +0.000 C 
ATOM      2  C   UNL     1      -1.315  13.060  20.569  0.00  0.00    +0.000 C 
ATOM      3  C   UNL     1      -1.432  12.046  21.730  0.00  0.00    +0.000 C 
ATOM      4  O   UNL     1      -1.557  12.388  19.321  0.00  0.00    +0.000 OA
ATOM      5  C   UNL     1      -0.548  11.556  18.911  0.00  0.00    +0.000 A 
ATOM      6  C   UNL     1      -0.963  10.471  18.143  0.00  0.00    +0.000 A 
ATOM      7  C   UNL     1      -0.054   9.477  17.801  0.00  0.00    +0.000 A 
ATOM      8  C   UNL     1       1.275   9.587  18.218  0.00  0.00    +0.000 A 
ATOM      9  C   UNL     1       1.709  10.729  18.907  0.00  0.00    +0.000 A 
ATOM     10  C   UNL     1       0.794  11.730  19.275  0.00  0.00    +0.000 A 
ATOM     11  C   UNL     1       1.210  12.841  20.217  0.00  0.00    +0.000 C 
ATOM     12  C   UNL     1       0.036  13.825  20.490  0.00  0.00    +0.000 C 
ENDROOT
BRANCH  11  13
ATOM     13  N   UNL     1       2.453  13.539  19.759  0.00  0.00    +0.000 N 
ATOM     14  C   UNL     1       3.300  14.027  20.722  0.00  0.00    +0.000 A 
ATOM     15  N   UNL     1       3.211  13.688  22.015  0.00  0.00    +0.000 NA
ATOM     16  O   UNL     1       3.950  14.607  22.713  0.00  0.00    +0.000 OA
ATOM     17  C   UNL     1       4.585  15.423  21.847  0.00  0.00    +0.000 A 
ATOM     18  C   UNL     1       5.357  16.520  22.214  0.00  0.00    +0.000 A 
ATOM     19  C   UNL     1       6.029  17.177  21.186  0.00  0.00    +0.000 A 
ATOM     20  C   UNL     1       5.940  16.705  19.874  0.00  0.00    +0.000 A 
ATOM     21 CL   UNL     1       6.932  17.448  18.673  0.00  0.00    +0.000 Cl
ATOM     22  C   UNL     1       5.080  15.642  19.519  0.00  0.00    +0.000 A 
ATOM     23  C   UNL     1       4.341  15.005  20.544  0.00  0.00    +0.000 A 
ATOM     24  H   UNL     1       2.294  14.136  18.952  0.00  0.00    +0.000 HD
ENDBRANCH  11  13
BRANCH   8  25
ATOM     25  C   UNL     1       2.188   8.453  17.942  0.00  0.00    +0.000 C 
ATOM     26  O   UNL     1       3.004   8.555  17.033  0.00  0.00    +0.000 OA
BRANCH  25  27
ATOM     27  C   UNL     1       2.121   7.196  18.730  0.00  0.00    +0.000 A 
ATOM     28  C   UNL     1       2.306   5.984  18.053  0.00  0.00    +0.000 A 
ATOM     29  C   UNL     1       2.262   4.781  18.749  0.00  0.00    +0.000 A 
ATOM     30  C   UNL     1       2.027   4.773  20.130  0.00  0.00    +0.000 A 
ATOM     31  C   UNL     1       1.826   5.978  20.801  0.00  0.00    +0.000 A 
ATOM     32  C   UNL     1       1.855   7.187  20.104  0.00  0.00    +0.000 A 
ENDBRANCH  25  27
ENDBRANCH   8  25
BRANCH  12  33
ATOM     33  O   UNL     1       0.271  14.597  21.680  0.00  0.00    +0.000 OA
ATOM     34  H   UNL     1      -0.551  15.063  21.916  0.00  0.00    +0.000 HD
ENDBRANCH  12  33
TORSDOF 4
ENDMDL
MODEL 7
REMARK VINA RESULT:      -6.8      5.655      9.925
REMARK  Name = 
REMARK  6 active torsions:
REMARK  status: ('A' for Active; 'I' for Inactive)
REMARK    1  A    between atoms: C_1  and  C_2
REMARK    2  A    between atoms: C_2  and  C_3
REMARK    3  A    between atoms: C_8  and  C_9
REMARK    4  A    between atoms: C_9  and  C_11
REMARK    5  A    between atoms: C_19  and  N_20
REMARK    6  A    between atoms: C_31  and  O_32
REMARK                            x       y       z     vdW  Elec       q    Type
REMARK                         _______ _______ _______ _____ _____    ______ ____
ROOT
ATOM      1  C   UNL     1      -0.121  17.812  18.025  0.00  0.00    +0.000 C 
ATOM      2  C   UNL     1       0.378  16.601  18.831  0.00  0.00    +0.000 C 
ATOM      3  C   UNL     1      -0.165  16.772  20.268  0.00  0.00    +0.000 C 
ATOM      4  O   UNL     1      -0.242  15.458  18.219  0.00  0.00    +0.000 OA
ATOM      5  C   UNL     1       0.185  14.247  18.697  0.00  0.00    +0.000 A 
ATOM      6  C   UNL     1      -0.765  13.229  18.638  0.00  0.00    +0.000 A 
ATOM      7  C   UNL     1      -0.501  12.002  19.234  0.00  0.00    +0.000 A 
ATOM      8  C   UNL     1       0.724  11.796  19.873  0.00  0.00    +0.000 A 
ATOM      9  C   UNL     1       1.714  12.789  19.845  0.00  0.00    +0.000 A 
ATOM     10  C   UNL     1       1.451  14.040  19.263  0.00  0.00    +0.000 A 
ATOM     11  C   UNL     1       2.423  15.188  19.438  0.00  0.00    +0.000 C 
ATOM     12  C   UNL     1       1.924  16.474  18.717  0.00  0.00    +0.000 C 
ENDROOT
BRANCH  11  13
ATOM     13  N   UNL     1       3.819  14.814  19.047  0.00  0.00    +0.000 N 
ATOM     14  C   UNL     1       4.811  14.995  19.977  0.00  0.00    +0.000 A 
ATOM     15  N   UNL     1       4.564  15.230  21.274  0.00  0.00    +0.000 NA
ATOM     16  O   UNL     1       5.731  15.702  21.815  0.00  0.00    +0.000 OA
ATOM     17  C   UNL     1       6.713  15.637  20.892  0.00  0.00    +0.000 A 
ATOM     18  C   UNL     1       8.008  16.110  21.080  0.00  0.00    +0.000 A 
ATOM     19  C   UNL     1       8.915  15.853  20.055  0.00  0.00    +0.000 A 
ATOM     20  C   UNL     1       8.520  15.121  18.933  0.00  0.00    +0.000 A 
ATOM     21 CL   UNL     1       9.728  14.680  17.782  0.00  0.00    +0.000 Cl
ATOM     22  C   UNL     1       7.177  14.728  18.731  0.00  0.00    +0.000 A 
ATOM     23  C   UNL     1       6.229  15.039  19.735  0.00  0.00    +0.000 A 
ATOM     24  H   UNL     1       4.044  15.077  18.090  0.00  0.00    +0.000 HD
ENDBRANCH  11  13
BRANCH   8  25
ATOM     25  C   UNL     1       0.924  10.522  20.603  0.00  0.00    +0.000 C 
ATOM     26  O   UNL     1       0.687  10.482  21.805  0.00  0.00    +0.000 OA
BRANCH  25  27
ATOM     27  C   UNL     1       1.422   9.304  19.913  0.00  0.00    +0.000 A 
ATOM     28  C   UNL     1       1.635   9.372  18.531  0.00  0.00    +0.000 A 
ATOM     29  C   UNL     1       2.110   8.260  17.842  0.00  0.00    +0.000 A 
ATOM     30  C   UNL     1       2.374   7.067  18.525  0.00  0.00    +0.000 A 
ATOM     31  C   UNL     1       2.146   6.994  19.899  0.00  0.00    +0.000 A 
ATOM     32  C   UNL     1       1.655   8.102  20.591  0.00  0.00    +0.000 A 
ENDBRANCH  25  27
ENDBRANCH   8  25
BRANCH  12  33
ATOM     33  O   UNL     1       2.584  17.645  19.225  0.00  0.00    +0.000 OA
ATOM     34  H   UNL     1       1.938  18.371  19.272  0.00  0.00    +0.000 HD
ENDBRANCH  12  33
TORSDOF 4
ENDMDL
MODEL 8
REMARK VINA RESULT:      -6.8      5.776     10.079
REMARK  Name = 
REMARK  6 active torsions:
REMARK  status: ('A' for Active; 'I' for Inactive)
REMARK    1  A    between atoms: C_1  and  C_2
REMARK    2  A    between atoms: C_2  and  C_3
REMARK    3  A    between atoms: C_8  and  C_9
REMARK    4  A    between atoms: C_9  and  C_11
REMARK    5  A    between atoms: C_19  and  N_20
REMARK    6  A    between atoms: C_31  and  O_32
REMARK                            x       y       z     vdW  Elec       q    Type
REMARK                         _______ _______ _______ _____ _____    ______ ____
ROOT
ATOM      1  C   UNL     1       0.702  18.179  18.154  0.00  0.00    +0.000 C 
ATOM      2  C   UNL     1       1.025  16.877  18.906  0.00  0.00    +0.000 C 
ATOM      3  C   UNL     1       0.463  17.042  20.337  0.00  0.00    +0.000 C 
ATOM      4  O   UNL     1       0.287  15.851  18.220  0.00  0.00    +0.000 OA
ATOM      5  C   UNL     1       0.546  14.575  18.643  0.00  0.00    +0.000 A 
ATOM      6  C   UNL     1      -0.519  13.687  18.507  0.00  0.00    +0.000 A 
ATOM      7  C   UNL     1      -0.427  12.409  19.044  0.00  0.00    +0.000 A 
ATOM      8  C   UNL     1       0.743  12.020  19.700  0.00  0.00    +0.000 A 
ATOM      9  C   UNL     1       1.849  12.882  19.748  0.00  0.00    +0.000 A 
ATOM     10  C   UNL     1       1.759  14.184  19.227  0.00  0.00    +0.000 A 
ATOM     11  C   UNL     1       2.861  15.192  19.486  0.00  0.00    +0.000 C 
ATOM     12  C   UNL     1       2.545  16.563  18.823  0.00  0.00    +0.000 C 
ENDROOT
BRANCH  11  13
ATOM     13  N   UNL     1       4.211  14.666  19.109  0.00  0.00    +0.000 N 
ATOM     14  C   UNL     1       5.276  15.024  19.896  0.00  0.00    +0.000 A 
ATOM     15  N   UNL     1       5.136  15.584  21.106  0.00  0.00    +0.000 NA
ATOM     16  O   UNL     1       6.354  16.119  21.433  0.00  0.00    +0.000 OA
ATOM     17  C   UNL     1       7.260  15.781  20.493  0.00  0.00    +0.000 A 
ATOM     18  C   UNL     1       8.579  16.223  20.470  0.00  0.00    +0.000 A 
ATOM     19  C   UNL     1       9.397  15.678  19.484  0.00  0.00    +0.000 A 
ATOM     20  C   UNL     1       8.896  14.711  18.609  0.00  0.00    +0.000 A 
ATOM     21 CL   UNL     1       9.999  13.942  17.528  0.00  0.00    +0.000 Cl
ATOM     22  C   UNL     1       7.531  14.345  18.602  0.00  0.00    +0.000 A 
ATOM     23  C   UNL     1       6.672  14.939  19.556  0.00  0.00    +0.000 A 
ATOM     24  H   UNL     1       4.370  14.673  18.104  0.00  0.00    +0.000 HD
ENDBRANCH  11  13
BRANCH   8  25
ATOM     25  C   UNL     1       0.763  10.696  20.366  0.00  0.00    +0.000 C 
ATOM     26  O   UNL     1       0.295  10.592  21.494  0.00  0.00    +0.000 OA
BRANCH  25  27
ATOM     27  C   UNL     1       1.352   9.505  19.702  0.00  0.00    +0.000 A 
ATOM     28  C   UNL     1       1.547   8.352  20.472  0.00  0.00    +0.000 A 
ATOM     29  C   UNL     1       2.087   7.208  19.893  0.00  0.00    +0.000 A 
ATOM     30  C   UNL     1       2.442   7.204  18.538  0.00  0.00    +0.000 A 
ATOM     31  C   UNL     1       2.263   8.357  17.776  0.00  0.00    +0.000 A 
ATOM     32  C   UNL     1       1.736   9.512  18.356  0.00  0.00    +0.000 A 
ENDBRANCH  25  27
ENDBRANCH   8  25
BRANCH  12  33
ATOM     33  O   UNL     1       3.329  17.616  19.408  0.00  0.00    +0.000 OA
ATOM     34  H   UNL     1       4.216  17.268  19.610  0.00  0.00    +0.000 HD
ENDBRANCH  12  33
TORSDOF 4
ENDMDL
MODEL 9
REMARK VINA RESULT:      -6.7      4.320      7.681
REMARK  Name = 
REMARK  6 active torsions:
REMARK  status: ('A' for Active; 'I' for Inactive)
REMARK    1  A    between atoms: C_1  and  C_2
REMARK    2  A    between atoms: C_2  and  C_3
REMARK    3  A    between atoms: C_8  and  C_9
REMARK    4  A    between atoms: C_9  and  C_11
REMARK    5  A    between atoms: C_19  and  N_20
REMARK    6  A    between atoms: C_31  and  O_32
REMARK                            x       y       z     vdW  Elec       q    Type
REMARK                         _______ _______ _______ _____ _____    ______ ____
ROOT
ATOM      1  C   UNL     1      -1.183  11.309  22.028  0.00  0.00    +0.000 C 
ATOM      2  C   UNL     1      -0.377  11.900  20.859  0.00  0.00    +0.000 C 
ATOM      3  C   UNL     1      -1.206  13.080  20.303  0.00  0.00    +0.000 C 
ATOM      4  O   UNL     1       0.833  12.403  21.450  0.00  0.00    +0.000 OA
ATOM      5  C   UNL     1       1.768  12.849  20.554  0.00  0.00    +0.000 A 
ATOM      6  C   UNL     1       2.591  13.868  21.029  0.00  0.00    +0.000 A 
ATOM      7  C   UNL     1       3.472  14.506  20.163  0.00  0.00    +0.000 A 
ATOM      8  C   UNL     1       3.535  14.105  18.827  0.00  0.00    +0.000 A 
ATOM      9  C   UNL     1       2.776  13.014  18.378  0.00  0.00    +0.000 A 
ATOM     10  C   UNL     1       1.868  12.376  19.239  0.00  0.00    +0.000 A 
ATOM     11  C   UNL     1       0.882  11.360  18.699  0.00  0.00    +0.000 C 
ATOM     12  C   UNL     1      -0.026  10.792  19.826  0.00  0.00    +0.000 C 
ENDROOT
BRANCH  11  13
ATOM     13  N   UNL     1       1.554  10.284  17.903  0.00  0.00    +0.000 N 
ATOM     14  C   UNL     1       1.739   9.067  18.508  0.00  0.00    +0.000 A 
ATOM     15  N   UNL     1       1.128   8.715  19.647  0.00  0.00    +0.000 NA
ATOM     16  O   UNL     1       1.800   7.623  20.131  0.00  0.00    +0.000 OA
ATOM     17  C   UNL     1       2.731   7.235  19.236  0.00  0.00    +0.000 A 
ATOM     18  C   UNL     1       3.646   6.208  19.441  0.00  0.00    +0.000 A 
ATOM     19  C   UNL     1       4.456   5.875  18.357  0.00  0.00    +0.000 A 
ATOM     20  C   UNL     1       4.300   6.533  17.135  0.00  0.00    +0.000 A 
ATOM     21 CL   UNL     1       5.204   5.959  15.781  0.00  0.00    +0.000 Cl
ATOM     22  C   UNL     1       3.422   7.630  16.982  0.00  0.00    +0.000 A 
ATOM     23  C   UNL     1       2.638   8.021  18.093  0.00  0.00    +0.000 A 
ATOM     24  H   UNL     1       2.329  10.633  17.344  0.00  0.00    +0.000 HD
ENDBRANCH  11  13
BRANCH   8  25
ATOM     25  C   UNL     1       4.393  14.885  17.905  0.00  0.00    +0.000 C 
ATOM     26  O   UNL     1       3.865  15.547  17.018  0.00  0.00    +0.000 OA
BRANCH  25  27
ATOM     27  C   UNL     1       5.874  14.866  18.022  0.00  0.00    +0.000 A 
ATOM     28  C   UNL     1       6.511  16.012  18.511  0.00  0.00    +0.000 A 
ATOM     29  C   UNL     1       7.895  16.038  18.648  0.00  0.00    +0.000 A 
ATOM     30  C   UNL     1       8.660  14.919  18.294  0.00  0.00    +0.000 A 
ATOM     31  C   UNL     1       8.027  13.783  17.792  0.00  0.00    +0.000 A 
ATOM     32  C   UNL     1       6.640  13.758  17.639  0.00  0.00    +0.000 A 
ENDBRANCH  25  27
ENDBRANCH   8  25
BRANCH  12  33
ATOM     33  O   UNL     1      -1.212  10.187  19.284  0.00  0.00    +0.000 OA
ATOM     34  H   UNL     1      -1.971  10.766  19.474  0.00  0.00    +0.000 HD
ENDBRANCH  12  33
TORSDOF 4
ENDMDL
