MODEL 1
REMARK VINA RESULT:      -7.3      0.000      0.000
REMARK  Name = 
REMARK  7 active torsions:
REMARK  status: ('A' for Active; 'I' for Inactive)
REMARK    1  A    between atoms: C_2  and  N_3
REMARK    2  A    between atoms: C_2  and  N_10
REMARK    3  A    between atoms: N_3  and  C_4
REMARK    4  A    between atoms: C_4  and  C_5
REMARK    5  A    between atoms: N_10  and  C_11
REMARK    6  A    between atoms: N_18  and  C_19
REMARK    7  A    between atoms: C_19  and  C_20
REMARK                            x       y       z     vdW  Elec       q    Type
REMARK                         _______ _______ _______ _____ _____    ______ ____
ROOT
ATOM      1  C   UNL     1       4.761   5.586  18.582  0.00  0.00    +0.000 C 
ATOM      2  C   UNL     1       4.787   6.737  17.547  0.00  0.00    +0.000 C 
ATOM      3  C   UNL     1       6.131   6.866  16.808  0.00  0.00    +0.000 C 
ATOM      4  C   UNL     1       7.177   7.705  17.569  0.00  0.00    +0.000 C 
ATOM      5  C   UNL     1       8.077   6.686  18.265  0.00  0.00    +0.000 C 
ATOM      6  C   UNL     1       7.282   5.392  18.127  0.00  0.00    +0.000 C 
ATOM      7  C   UNL     1       6.152   5.386  19.207  0.00  0.00    +0.000 C 
ATOM      8  N   UNL     1       6.689   5.505  16.773  0.00  0.00    +0.000 NA
ENDROOT
BRANCH   1   9
ATOM      9  N   UNL     1       3.679   5.832  19.544  0.00  0.00    +0.000 N 
ATOM     10  H   UNL     1       3.961   5.954  20.510  0.00  0.00    +0.000 HD
BRANCH   9  12
ATOM     11  S   UNL     1       1.756   7.379  20.318  0.00  0.00    +0.000 S 
ATOM     12  C   UNL     1       2.374   6.156  19.363  0.00  0.00    +0.000 C 
BRANCH  12  13
ATOM     13  N   UNL     1       1.672   5.415  18.471  0.00  0.00    +0.000 N 
ATOM     14  H   UNL     1       0.948   5.874  17.937  0.00  0.00    +0.000 HD
BRANCH  13  15
ATOM     15  C   UNL     1       1.724   3.968  18.336  0.00  0.00    +0.000 C 
BRANCH  15  16
ATOM     16  C   UNL     1       1.795   3.375  19.694  0.00  0.00    +0.000 A 
ATOM     17  C   UNL     1       0.856   3.173  20.682  0.00  0.00    +0.000 A 
ATOM     18  C   UNL     1       1.536   2.563  21.762  0.00  0.00    +0.000 A 
ATOM     19  C   UNL     1       2.847   2.436  21.365  0.00  0.00    +0.000 A 
ATOM     20  O   UNL     1       3.017   2.930  20.112  0.00  0.00    +0.000 OA
ENDBRANCH  15  16
ENDBRANCH  13  15
ENDBRANCH  12  13
ENDBRANCH   9  12
ENDBRANCH   1   9
BRANCH   8  21
ATOM     21  C   UNL     1       7.645   5.309  15.668  0.00  0.00    +0.000 C 
BRANCH  21  22
ATOM     22  C   UNL     1       6.981   4.745  14.421  0.00  0.00    +0.000 A 
ATOM     23  C   UNL     1       5.727   4.119  14.501  0.00  0.00    +0.000 A 
ATOM     24  C   UNL     1       5.148   3.536  13.372  0.00  0.00    +0.000 A 
ATOM     25  C   UNL     1       5.814   3.578  12.149  0.00  0.00    +0.000 A 
ATOM     26  C   UNL     1       7.053   4.210  12.053  0.00  0.00    +0.000 A 
ATOM     27  C   UNL     1       7.633   4.793  13.181  0.00  0.00    +0.000 A 
ENDBRANCH  21  22
ENDBRANCH   8  21
TORSDOF 7
ENDMDL
MODEL 2
REMARK VINA RESULT:      -7.2      0.994      1.386
REMARK  Name = 
REMARK  7 active torsions:
REMARK  status: ('A' for Active; 'I' for Inactive)
REMARK    1  A    between atoms: C_2  and  N_3
REMARK    2  A    between atoms: C_2  and  N_10
REMARK    3  A    between atoms: N_3  and  C_4
REMARK    4  A    between atoms: C_4  and  C_5
REMARK    5  A    between atoms: N_10  and  C_11
REMARK    6  A    between atoms: N_18  and  C_19
REMARK    7  A    between atoms: C_19  and  C_20
REMARK                            x       y       z     vdW  Elec       q    Type
REMARK                         _______ _______ _______ _____ _____    ______ ____
ROOT
ATOM      1  C   UNL     1       4.891   5.374  18.840  0.00  0.00    +0.000 C 
ATOM      2  C   UNL     1       4.697   6.438  17.732  0.00  0.00    +0.000 C 
ATOM      3  C   UNL     1       5.960   6.678  16.887  0.00  0.00    +0.000 C 
ATOM      4  C   UNL     1       6.935   7.698  17.509  0.00  0.00    +0.000 C 
ATOM      5  C   UNL     1       8.006   6.856  18.200  0.00  0.00    +0.000 C 
ATOM      6  C   UNL     1       7.380   5.465  18.210  0.00  0.00    +0.000 C 
ATOM      7  C   UNL     1       6.335   5.399  19.370  0.00  0.00    +0.000 C 
ATOM      8  N   UNL     1       6.689   5.400  16.901  0.00  0.00    +0.000 NA
ENDROOT
BRANCH   1   9
ATOM      9  N   UNL     1       3.853   5.554  19.863  0.00  0.00    +0.000 N 
ATOM     10  H   UNL     1       4.176   5.603  20.823  0.00  0.00    +0.000 HD
BRANCH   9  12
ATOM     11  S   UNL     1       2.195   7.351  19.017  0.00  0.00    +0.000 S 
ATOM     12  C   UNL     1       2.544   5.898  19.763  0.00  0.00    +0.000 C 
BRANCH  12  13
ATOM     13  N   UNL     1       1.641   5.063  20.334  0.00  0.00    +0.000 N 
ATOM     14  H   UNL     1       1.488   5.138  21.329  0.00  0.00    +0.000 HD
BRANCH  13  15
ATOM     15  C   UNL     1       1.000   3.930  19.687  0.00  0.00    +0.000 C 
BRANCH  15  16
ATOM     16  C   UNL     1       2.049   3.108  19.036  0.00  0.00    +0.000 A 
ATOM     17  C   UNL     1       2.322   2.803  17.720  0.00  0.00    +0.000 A 
ATOM     18  C   UNL     1       3.459   1.961  17.731  0.00  0.00    +0.000 A 
ATOM     19  C   UNL     1       3.804   1.804  19.054  0.00  0.00    +0.000 A 
ATOM     20  O   UNL     1       2.952   2.493  19.855  0.00  0.00    +0.000 OA
ENDBRANCH  15  16
ENDBRANCH  13  15
ENDBRANCH  12  13
ENDBRANCH   9  12
ENDBRANCH   1   9
BRANCH   8  21
ATOM     21  C   UNL     1       7.586   5.242  15.741  0.00  0.00    +0.000 C 
BRANCH  21  22
ATOM     22  C   UNL     1       6.866   4.691  14.521  0.00  0.00    +0.000 A 
ATOM     23  C   UNL     1       5.598   4.100  14.647  0.00  0.00    +0.000 A 
ATOM     24  C   UNL     1       4.966   3.527  13.541  0.00  0.00    +0.000 A 
ATOM     25  C   UNL     1       5.590   3.545  12.296  0.00  0.00    +0.000 A 
ATOM     26  C   UNL     1       6.842   4.143  12.155  0.00  0.00    +0.000 A 
ATOM     27  C   UNL     1       7.476   4.715  13.260  0.00  0.00    +0.000 A 
ENDBRANCH  21  22
ENDBRANCH   8  21
TORSDOF 7
ENDMDL
MODEL 3
REMARK VINA RESULT:      -7.2      2.990      3.755
REMARK  Name = 
REMARK  7 active torsions:
REMARK  status: ('A' for Active; 'I' for Inactive)
REMARK    1  A    between atoms: C_2  and  N_3
REMARK    2  A    between atoms: C_2  and  N_10
REMARK    3  A    between atoms: N_3  and  C_4
REMARK    4  A    between atoms: C_4  and  C_5
REMARK    5  A    between atoms: N_10  and  C_11
REMARK    6  A    between atoms: N_18  and  C_19
REMARK    7  A    between atoms: C_19  and  C_20
REMARK                            x       y       z     vdW  Elec       q    Type
REMARK                         _______ _______ _______ _____ _____    ______ ____
ROOT
ATOM      1  C   UNL     1       4.007   5.995  18.197  0.00  0.00    +0.000 C 
ATOM      2  C   UNL     1       4.583   6.880  17.065  0.00  0.00    +0.000 C 
ATOM      3  C   UNL     1       6.038   6.538  16.701  0.00  0.00    +0.000 C 
ATOM      4  C   UNL     1       7.080   7.238  17.596  0.00  0.00    +0.000 C 
ATOM      5  C   UNL     1       7.483   6.191  18.634  0.00  0.00    +0.000 C 
ATOM      6  C   UNL     1       6.408   5.122  18.461  0.00  0.00    +0.000 C 
ATOM      7  C   UNL     1       5.112   5.598  19.191  0.00  0.00    +0.000 C 
ATOM      8  N   UNL     1       6.188   5.104  16.995  0.00  0.00    +0.000 NA
ENDROOT
BRANCH   1   9
ATOM      9  N   UNL     1       2.851   6.675  18.795  0.00  0.00    +0.000 N 
ATOM     10  H   UNL     1       2.290   7.238  18.166  0.00  0.00    +0.000 HD
BRANCH   9  12
ATOM     11  S   UNL     1       1.880   4.959  20.470  0.00  0.00    +0.000 S 
ATOM     12  C   UNL     1       2.242   6.520  19.997  0.00  0.00    +0.000 C 
BRANCH  12  13
ATOM     13  N   UNL     1       1.922   7.648  20.678  0.00  0.00    +0.000 N 
ATOM     14  H   UNL     1       2.064   7.655  21.678  0.00  0.00    +0.000 HD
BRANCH  13  15
ATOM     15  C   UNL     1       1.211   8.795  20.140  0.00  0.00    +0.000 C 
BRANCH  15  16
ATOM     16  C   UNL     1       0.456   9.438  21.243  0.00  0.00    +0.000 A 
ATOM     17  C   UNL     1      -0.263   8.936  22.306  0.00  0.00    +0.000 A 
ATOM     18  C   UNL     1      -0.762  10.054  23.016  0.00  0.00    +0.000 A 
ATOM     19  C   UNL     1      -0.318  11.165  22.337  0.00  0.00    +0.000 A 
ATOM     20  O   UNL     1       0.419  10.803  21.256  0.00  0.00    +0.000 OA
ENDBRANCH  15  16
ENDBRANCH  13  15
ENDBRANCH  12  13
ENDBRANCH   9  12
ENDBRANCH   1   9
BRANCH   8  21
ATOM     21  C   UNL     1       7.271   4.472  16.220  0.00  0.00    +0.000 C 
BRANCH  21  22
ATOM     22  C   UNL     1       6.962   4.413  14.732  0.00  0.00    +0.000 A 
ATOM     23  C   UNL     1       5.891   3.639  14.257  0.00  0.00    +0.000 A 
ATOM     24  C   UNL     1       5.649   3.525  12.886  0.00  0.00    +0.000 A 
ATOM     25  C   UNL     1       6.471   4.187  11.976  0.00  0.00    +0.000 A 
ATOM     26  C   UNL     1       7.527   4.971  12.437  0.00  0.00    +0.000 A 
ATOM     27  C   UNL     1       7.771   5.086  13.807  0.00  0.00    +0.000 A 
ENDBRANCH  21  22
ENDBRANCH   8  21
TORSDOF 7
ENDMDL
MODEL 4
REMARK VINA RESULT:      -7.2      2.783      3.888
REMARK  Name = 
REMARK  7 active torsions:
REMARK  status: ('A' for Active; 'I' for Inactive)
REMARK    1  A    between atoms: C_2  and  N_3
REMARK    2  A    between atoms: C_2  and  N_10
REMARK    3  A    between atoms: N_3  and  C_4
REMARK    4  A    between atoms: C_4  and  C_5
REMARK    5  A    between atoms: N_10  and  C_11
REMARK    6  A    between atoms: N_18  and  C_19
REMARK    7  A    between atoms: C_19  and  C_20
REMARK                            x       y       z     vdW  Elec       q    Type
REMARK                         _______ _______ _______ _____ _____    ______ ____
ROOT
ATOM      1  C   UNL     1       3.992   5.906  18.211  0.00  0.00    +0.000 C 
ATOM      2  C   UNL     1       4.525   6.804  17.068  0.00  0.00    +0.000 C 
ATOM      3  C   UNL     1       5.985   6.504  16.683  0.00  0.00    +0.000 C 
ATOM      4  C   UNL     1       7.018   7.237  17.561  0.00  0.00    +0.000 C 
ATOM      5  C   UNL     1       7.466   6.207  18.596  0.00  0.00    +0.000 C 
ATOM      6  C   UNL     1       6.422   5.106  18.442  0.00  0.00    +0.000 C 
ATOM      7  C   UNL     1       5.123   5.545  19.190  0.00  0.00    +0.000 C 
ATOM      8  N   UNL     1       6.181   5.075  16.980  0.00  0.00    +0.000 NA
ENDROOT
BRANCH   1   9
ATOM      9  N   UNL     1       2.826   6.554  18.823  0.00  0.00    +0.000 N 
ATOM     10  H   UNL     1       2.224   7.074  18.196  0.00  0.00    +0.000 HD
BRANCH   9  12
ATOM     11  S   UNL     1       1.691   4.886  20.444  0.00  0.00    +0.000 S 
ATOM     12  C   UNL     1       2.257   6.407  20.046  0.00  0.00    +0.000 C 
BRANCH  12  13
ATOM     13  N   UNL     1       2.140   7.520  20.811  0.00  0.00    +0.000 N 
ATOM     14  H   UNL     1       2.974   7.888  21.245  0.00  0.00    +0.000 HD
BRANCH  13  15
ATOM     15  C   UNL     1       0.893   8.140  21.229  0.00  0.00    +0.000 C 
BRANCH  15  16
ATOM     16  C   UNL     1       0.828   9.501  20.644  0.00  0.00    +0.000 A 
ATOM     17  C   UNL     1       0.535   9.968  19.381  0.00  0.00    +0.000 A 
ATOM     18  C   UNL     1       0.644  11.378  19.440  0.00  0.00    +0.000 A 
ATOM     19  C   UNL     1       1.001  11.679  20.735  0.00  0.00    +0.000 A 
ATOM     20  O   UNL     1       1.120  10.546  21.473  0.00  0.00    +0.000 OA
ENDBRANCH  15  16
ENDBRANCH  13  15
ENDBRANCH  12  13
ENDBRANCH   9  12
ENDBRANCH   1   9
BRANCH   8  21
ATOM     21  C   UNL     1       7.271   4.473  16.191  0.00  0.00    +0.000 C 
BRANCH  21  22
ATOM     22  C   UNL     1       6.947   4.411  14.707  0.00  0.00    +0.000 A 
ATOM     23  C   UNL     1       5.869   3.640  14.244  0.00  0.00    +0.000 A 
ATOM     24  C   UNL     1       5.613   3.522  12.876  0.00  0.00    +0.000 A 
ATOM     25  C   UNL     1       6.428   4.176  11.957  0.00  0.00    +0.000 A 
ATOM     26  C   UNL     1       7.493   4.957  12.404  0.00  0.00    +0.000 A 
ATOM     27  C   UNL     1       7.751   5.076  13.772  0.00  0.00    +0.000 A 
ENDBRANCH  21  22
ENDBRANCH   8  21
TORSDOF 7
ENDMDL
MODEL 5
REMARK VINA RESULT:      -7.1      2.867      7.520
REMARK  Name = 
REMARK  7 active torsions:
REMARK  status: ('A' for Active; 'I' for Inactive)
REMARK    1  A    between atoms: C_2  and  N_3
REMARK    2  A    between atoms: C_2  and  N_10
REMARK    3  A    between atoms: N_3  and  C_4
REMARK    4  A    between atoms: C_4  and  C_5
REMARK    5  A    between atoms: N_10  and  C_11
REMARK    6  A    between atoms: N_18  and  C_19
REMARK    7  A    between atoms: C_19  and  C_20
REMARK                            x       y       z     vdW  Elec       q    Type
REMARK                         _______ _______ _______ _____ _____    ______ ____
ROOT
ATOM      1  C   UNL     1       4.935   4.465  18.919  0.00  0.00    +0.000 C 
ATOM      2  C   UNL     1       3.921   5.166  17.983  0.00  0.00    +0.000 C 
ATOM      3  C   UNL     1       2.495   5.222  18.556  0.00  0.00    +0.000 C 
ATOM      4  C   UNL     1       1.668   3.951  18.280  0.00  0.00    +0.000 C 
ATOM      5  C   UNL     1       1.756   3.129  19.565  0.00  0.00    +0.000 C 
ATOM      6  C   UNL     1       2.884   3.821  20.324  0.00  0.00    +0.000 C 
ATOM      7  C   UNL     1       4.248   3.350  19.726  0.00  0.00    +0.000 C 
ATOM      8  N   UNL     1       2.663   5.255  20.018  0.00  0.00    +0.000 NA
ENDROOT
BRANCH   1   9
ATOM      9  N   UNL     1       6.096   4.033  18.130  0.00  0.00    +0.000 N 
ATOM     10  H   UNL     1       5.990   3.162  17.621  0.00  0.00    +0.000 HD
BRANCH   9  12
ATOM     11  S   UNL     1       7.995   5.596  18.931  0.00  0.00    +0.000 S 
ATOM     12  C   UNL     1       7.223   4.690  17.759  0.00  0.00    +0.000 C 
BRANCH  12  13
ATOM     13  N   UNL     1       7.587   4.605  16.455  0.00  0.00    +0.000 N 
ATOM     14  H   UNL     1       8.283   3.920  16.200  0.00  0.00    +0.000 HD
BRANCH  13  15
ATOM     15  C   UNL     1       7.213   5.537  15.404  0.00  0.00    +0.000 C 
BRANCH  15  16
ATOM     16  C   UNL     1       6.853   4.758  14.194  0.00  0.00    +0.000 A 
ATOM     17  C   UNL     1       5.908   3.785  13.950  0.00  0.00    +0.000 A 
ATOM     18  C   UNL     1       6.055   3.415  12.592  0.00  0.00    +0.000 A 
ATOM     19  C   UNL     1       7.084   4.184  12.098  0.00  0.00    +0.000 A 
ATOM     20  O   UNL     1       7.579   5.000  13.063  0.00  0.00    +0.000 OA
ENDBRANCH  15  16
ENDBRANCH  13  15
ENDBRANCH  12  13
ENDBRANCH   9  12
ENDBRANCH   1   9
BRANCH   8  21
ATOM     21  C   UNL     1       1.511   5.859  20.712  0.00  0.00    +0.000 C 
BRANCH  21  22
ATOM     22  C   UNL     1       1.387   7.350  20.438  0.00  0.00    +0.000 A 
ATOM     23  C   UNL     1       0.754   8.195  21.364  0.00  0.00    +0.000 A 
ATOM     24  C   UNL     1       0.573   9.551  21.083  0.00  0.00    +0.000 A 
ATOM     25  C   UNL     1       1.027  10.078  19.877  0.00  0.00    +0.000 A 
ATOM     26  C   UNL     1       1.671   9.253  18.956  0.00  0.00    +0.000 A 
ATOM     27  C   UNL     1       1.852   7.896  19.235  0.00  0.00    +0.000 A 
ENDBRANCH  21  22
ENDBRANCH   8  21
TORSDOF 7
ENDMDL
MODEL 6
REMARK VINA RESULT:      -7.1      2.478      3.459
REMARK  Name = 
REMARK  7 active torsions:
REMARK  status: ('A' for Active; 'I' for Inactive)
REMARK    1  A    between atoms: C_2  and  N_3
REMARK    2  A    between atoms: C_2  and  N_10
REMARK    3  A    between atoms: N_3  and  C_4
REMARK    4  A    between atoms: C_4  and  C_5
REMARK    5  A    between atoms: N_10  and  C_11
REMARK    6  A    between atoms: N_18  and  C_19
REMARK    7  A    between atoms: C_19  and  C_20
REMARK                            x       y       z     vdW  Elec       q    Type
REMARK                         _______ _______ _______ _____ _____    ______ ____
ROOT
ATOM      1  C   UNL     1       3.851   5.084  18.029  0.00  0.00    +0.000 C 
ATOM      2  C   UNL     1       4.151   6.309  17.132  0.00  0.00    +0.000 C 
ATOM      3  C   UNL     1       5.630   6.421  16.722  0.00  0.00    +0.000 C 
ATOM      4  C   UNL     1       6.509   7.138  17.766  0.00  0.00    +0.000 C 
ATOM      5  C   UNL     1       7.193   6.018  18.549  0.00  0.00    +0.000 C 
ATOM      6  C   UNL     1       6.401   4.785  18.126  0.00  0.00    +0.000 C 
ATOM      7  C   UNL     1       5.059   4.758  18.925  0.00  0.00    +0.000 C 
ATOM      8  N   UNL     1       6.131   5.037  16.690  0.00  0.00    +0.000 NA
ENDROOT
BRANCH   1   9
ATOM      9  N   UNL     1       2.591   5.313  18.747  0.00  0.00    +0.000 N 
ATOM     10  H   UNL     1       1.744   5.244  18.195  0.00  0.00    +0.000 HD
BRANCH   9  12
ATOM     11  S   UNL     1       2.018   3.936  20.861  0.00  0.00    +0.000 S 
ATOM     12  C   UNL     1       2.313   5.379  20.073  0.00  0.00    +0.000 C 
BRANCH  12  13
ATOM     13  N   UNL     1       2.236   6.615  20.627  0.00  0.00    +0.000 N 
ATOM     14  H   UNL     1       2.291   6.688  21.632  0.00  0.00    +0.000 HD
BRANCH  13  15
ATOM     15  C   UNL     1       1.890   7.841  19.929  0.00  0.00    +0.000 C 
BRANCH  15  16
ATOM     16  C   UNL     1       1.070   8.680  20.837  0.00  0.00    +0.000 A 
ATOM     17  C   UNL     1      -0.009   9.513  20.629  0.00  0.00    +0.000 A 
ATOM     18  C   UNL     1      -0.354  10.045  21.893  0.00  0.00    +0.000 A 
ATOM     19  C   UNL     1       0.540   9.507  22.790  0.00  0.00    +0.000 A 
ATOM     20  O   UNL     1       1.412   8.680  22.158  0.00  0.00    +0.000 OA
ENDBRANCH  15  16
ENDBRANCH  13  15
ENDBRANCH  12  13
ENDBRANCH   9  12
ENDBRANCH   1   9
BRANCH   8  21
ATOM     21  C   UNL     1       7.303   4.875  15.809  0.00  0.00    +0.000 C 
BRANCH  21  22
ATOM     22  C   UNL     1       6.914   4.473  14.395  0.00  0.00    +0.000 A 
ATOM     23  C   UNL     1       7.684   4.889  13.298  0.00  0.00    +0.000 A 
ATOM     24  C   UNL     1       7.289   4.583  11.993  0.00  0.00    +0.000 A 
ATOM     25  C   UNL     1       6.124   3.853  11.772  0.00  0.00    +0.000 A 
ATOM     26  C   UNL     1       5.359   3.420  12.854  0.00  0.00    +0.000 A 
ATOM     27  C   UNL     1       5.751   3.726  14.159  0.00  0.00    +0.000 A 
ENDBRANCH  21  22
ENDBRANCH   8  21
TORSDOF 7
ENDMDL
MODEL 7
REMARK VINA RESULT:      -7.1      1.148      1.786
REMARK  Name = 
REMARK  7 active torsions:
REMARK  status: ('A' for Active; 'I' for Inactive)
REMARK    1  A    between atoms: C_2  and  N_3
REMARK    2  A    between atoms: C_2  and  N_10
REMARK    3  A    between atoms: N_3  and  C_4
REMARK    4  A    between atoms: C_4  and  C_5
REMARK    5  A    between atoms: N_10  and  C_11
REMARK    6  A    between atoms: N_18  and  C_19
REMARK    7  A    between atoms: C_19  and  C_20
REMARK                            x       y       z     vdW  Elec       q    Type
REMARK                         _______ _______ _______ _____ _____    ______ ____
ROOT
ATOM      1  C   UNL     1       3.991   6.022  18.204  0.00  0.00    +0.000 C 
ATOM      2  C   UNL     1       4.542   6.904  17.058  0.00  0.00    +0.000 C 
ATOM      3  C   UNL     1       6.001   6.586  16.688  0.00  0.00    +0.000 C 
ATOM      4  C   UNL     1       7.035   7.316  17.567  0.00  0.00    +0.000 C 
ATOM      5  C   UNL     1       7.465   6.290  18.614  0.00  0.00    +0.000 C 
ATOM      6  C   UNL     1       6.410   5.198  18.461  0.00  0.00    +0.000 C 
ATOM      7  C   UNL     1       5.110   5.657  19.195  0.00  0.00    +0.000 C 
ATOM      8  N   UNL     1       6.180   5.159  16.997  0.00  0.00    +0.000 NA
ENDROOT
BRANCH   1   9
ATOM      9  N   UNL     1       2.826   6.686  18.803  0.00  0.00    +0.000 N 
ATOM     10  H   UNL     1       2.207   7.166  18.159  0.00  0.00    +0.000 HD
BRANCH   9  12
ATOM     11  S   UNL     1       1.548   7.970  20.650  0.00  0.00    +0.000 S 
ATOM     12  C   UNL     1       2.281   6.598  20.042  0.00  0.00    +0.000 C 
BRANCH  12  13
ATOM     13  N   UNL     1       2.438   5.424  20.703  0.00  0.00    +0.000 N 
ATOM     14  H   UNL     1       3.330   5.239  21.137  0.00  0.00    +0.000 HD
BRANCH  13  15
ATOM     15  C   UNL     1       1.506   4.309  20.691  0.00  0.00    +0.000 C 
BRANCH  15  16
ATOM     16  C   UNL     1       2.070   3.237  19.835  0.00  0.00    +0.000 A 
ATOM     17  C   UNL     1       3.305   2.628  19.783  0.00  0.00    +0.000 A 
ATOM     18  C   UNL     1       3.238   1.674  18.740  0.00  0.00    +0.000 A 
ATOM     19  C   UNL     1       1.967   1.767  18.220  0.00  0.00    +0.000 A 
ATOM     20  O   UNL     1       1.251   2.716  18.875  0.00  0.00    +0.000 OA
ENDBRANCH  15  16
ENDBRANCH  13  15
ENDBRANCH  12  13
ENDBRANCH   9  12
ENDBRANCH   1   9
BRANCH   8  21
ATOM     21  C   UNL     1       7.270   4.539  16.222  0.00  0.00    +0.000 C 
BRANCH  21  22
ATOM     22  C   UNL     1       6.905   4.350  14.757  0.00  0.00    +0.000 A 
ATOM     23  C   UNL     1       7.697   4.918  13.746  0.00  0.00    +0.000 A 
ATOM     24  C   UNL     1       7.324   4.808  12.404  0.00  0.00    +0.000 A 
ATOM     25  C   UNL     1       6.161   4.125  12.059  0.00  0.00    +0.000 A 
ATOM     26  C   UNL     1       5.375   3.542  13.052  0.00  0.00    +0.000 A 
ATOM     27  C   UNL     1       5.745   3.652  14.395  0.00  0.00    +0.000 A 
ENDBRANCH  21  22
ENDBRANCH   8  21
TORSDOF 7
ENDMDL
MODEL 8
REMARK VINA RESULT:      -7.1      3.531      5.633
REMARK  Name = 
REMARK  7 active torsions:
REMARK  status: ('A' for Active; 'I' for Inactive)
REMARK    1  A    between atoms: C_2  and  N_3
REMARK    2  A    between atoms: C_2  and  N_10
REMARK    3  A    between atoms: N_3  and  C_4
REMARK    4  A    between atoms: C_4  and  C_5
REMARK    5  A    between atoms: N_10  and  C_11
REMARK    6  A    between atoms: N_18  and  C_19
REMARK    7  A    between atoms: C_19  and  C_20
REMARK                            x       y       z     vdW  Elec       q    Type
REMARK                         _______ _______ _______ _____ _____    ______ ____
ROOT
ATOM      1  C   UNL     1       2.243   6.365  20.221  0.00  0.00    +0.000 C 
ATOM      2  C   UNL     1       2.126   4.934  20.799  0.00  0.00    +0.000 C 
ATOM      3  C   UNL     1       2.538   3.836  19.804  0.00  0.00    +0.000 C 
ATOM      4  C   UNL     1       1.402   3.402  18.857  0.00  0.00    +0.000 C 
ATOM      5  C   UNL     1       1.654   4.162  17.555  0.00  0.00    +0.000 C 
ATOM      6  C   UNL     1       2.687   5.203  17.974  0.00  0.00    +0.000 C 
ATOM      7  C   UNL     1       1.950   6.366  18.711  0.00  0.00    +0.000 C 
ATOM      8  N   UNL     1       3.544   4.460  18.929  0.00  0.00    +0.000 NA
ENDROOT
BRANCH   1   9
ATOM      9  N   UNL     1       1.404   7.272  21.015  0.00  0.00    +0.000 N 
ATOM     10  H   UNL     1       1.048   6.901  21.888  0.00  0.00    +0.000 HD
BRANCH   9  12
ATOM     11  S   UNL     1       0.773   9.412  22.325  0.00  0.00    +0.000 S 
ATOM     12  C   UNL     1       1.190   8.609  20.921  0.00  0.00    +0.000 C 
BRANCH  12  13
ATOM     13  N   UNL     1       1.270   9.162  19.686  0.00  0.00    +0.000 N 
ATOM     14  H   UNL     1       1.718   8.629  18.955  0.00  0.00    +0.000 HD
BRANCH  13  15
ATOM     15  C   UNL     1       0.940  10.536  19.344  0.00  0.00    +0.000 C 
BRANCH  15  16
ATOM     16  C   UNL     1      -0.409  10.554  18.729  0.00  0.00    +0.000 A 
ATOM     17  C   UNL     1      -1.585  11.192  19.060  0.00  0.00    +0.000 A 
ATOM     18  C   UNL     1      -2.537  10.809  18.086  0.00  0.00    +0.000 A 
ATOM     19  C   UNL     1      -1.881   9.959  17.226  0.00  0.00    +0.000 A 
ATOM     20  O   UNL     1      -0.589   9.793  17.609  0.00  0.00    +0.000 OA
ENDBRANCH  15  16
ENDBRANCH  13  15
ENDBRANCH  12  13
ENDBRANCH   9  12
ENDBRANCH   1   9
BRANCH   8  21
ATOM     21  C   UNL     1       4.446   3.475  18.304  0.00  0.00    +0.000 C 
BRANCH  21  22
ATOM     22  C   UNL     1       5.325   4.095  17.228  0.00  0.00    +0.000 A 
ATOM     23  C   UNL     1       5.234   3.661  15.896  0.00  0.00    +0.000 A 
ATOM     24  C   UNL     1       6.090   4.175  14.919  0.00  0.00    +0.000 A 
ATOM     25  C   UNL     1       7.042   5.133  15.262  0.00  0.00    +0.000 A 
ATOM     26  C   UNL     1       7.131   5.583  16.579  0.00  0.00    +0.000 A 
ATOM     27  C   UNL     1       6.277   5.069  17.557  0.00  0.00    +0.000 A 
ENDBRANCH  21  22
ENDBRANCH   8  21
TORSDOF 7
ENDMDL
MODEL 9
REMARK VINA RESULT:      -7.1      2.431      3.546
REMARK  Name = 
REMARK  7 active torsions:
REMARK  status: ('A' for Active; 'I' for Inactive)
REMARK    1  A    between atoms: C_2  and  N_3
REMARK    2  A    between atoms: C_2  and  N_10
REMARK    3  A    between atoms: N_3  and  C_4
REMARK    4  A    between atoms: C_4  and  C_5
REMARK    5  A    between atoms: N_10  and  C_11
REMARK    6  A    between atoms: N_18  and  C_19
REMARK    7  A    between atoms: C_19  and  C_20
REMARK                            x       y       z     vdW  Elec       q    Type
REMARK                         _______ _______ _______ _____ _____    ______ ____
ROOT
ATOM      1  C   UNL     1       3.953   5.008  18.000  0.00  0.00    +0.000 C 
ATOM      2  C   UNL     1       4.177   6.171  17.004  0.00  0.00    +0.000 C 
ATOM      3  C   UNL     1       5.644   6.332  16.570  0.00  0.00    +0.000 C 
ATOM      4  C   UNL     1       6.487   7.180  17.544  0.00  0.00    +0.000 C 
ATOM      5  C   UNL     1       7.238   6.168  18.407  0.00  0.00    +0.000 C 
ATOM      6  C   UNL     1       6.515   4.862  18.093  0.00  0.00    +0.000 C 
ATOM      7  C   UNL     1       5.182   4.824  18.906  0.00  0.00    +0.000 C 
ATOM      8  N   UNL     1       6.223   4.981  16.645  0.00  0.00    +0.000 NA
ENDROOT
BRANCH   1   9
ATOM      9  N   UNL     1       2.686   5.223  18.711  0.00  0.00    +0.000 N 
ATOM     10  H   UNL     1       1.858   4.832  18.276  0.00  0.00    +0.000 HD
BRANCH   9  12
ATOM     11  S   UNL     1       2.090   4.491  21.120  0.00  0.00    +0.000 S 
ATOM     12  C   UNL     1       2.426   5.656  19.970  0.00  0.00    +0.000 C 
BRANCH  12  13
ATOM     13  N   UNL     1       2.398   6.997  20.169  0.00  0.00    +0.000 N 
ATOM     14  H   UNL     1       3.173   7.544  19.824  0.00  0.00    +0.000 HD
BRANCH  13  15
ATOM     15  C   UNL     1       1.448   7.715  21.002  0.00  0.00    +0.000 C 
BRANCH  15  16
ATOM     16  C   UNL     1       0.953   8.889  20.242  0.00  0.00    +0.000 A 
ATOM     17  C   UNL     1      -0.023   9.828  20.494  0.00  0.00    +0.000 A 
ATOM     18  C   UNL     1      -0.034  10.703  19.383  0.00  0.00    +0.000 A 
ATOM     19  C   UNL     1       0.933  10.238  18.522  0.00  0.00    +0.000 A 
ATOM     20  O   UNL     1       1.536   9.134  19.032  0.00  0.00    +0.000 OA
ENDBRANCH  15  16
ENDBRANCH  13  15
ENDBRANCH  12  13
ENDBRANCH   9  12
ENDBRANCH   1   9
BRANCH   8  21
ATOM     21  C   UNL     1       7.396   4.814  15.767  0.00  0.00    +0.000 C 
BRANCH  21  22
ATOM     22  C   UNL     1       7.006   4.537  14.324  0.00  0.00    +0.000 A 
ATOM     23  C   UNL     1       5.933   3.682  14.027  0.00  0.00    +0.000 A 
ATOM     24  C   UNL     1       5.618   3.367  12.703  0.00  0.00    +0.000 A 
ATOM     25  C   UNL     1       6.368   3.908  11.661  0.00  0.00    +0.000 A 
ATOM     26  C   UNL     1       7.427   4.772  11.943  0.00  0.00    +0.000 A 
ATOM     27  C   UNL     1       7.743   5.087  13.266  0.00  0.00    +0.000 A 
ENDBRANCH  21  22
ENDBRANCH   8  21
TORSDOF 7
ENDMDL
