MODEL 1
REMARK VINA RESULT:      -7.0      0.000      0.000
REMARK  Name = 
REMARK  11 active torsions:
REMARK  status: ('A' for Active; 'I' for Inactive)
REMARK    1  A    between atoms: C_1  and  O_2
REMARK    2  A    between atoms: O_2  and  C_3
REMARK    3  A    between atoms: C_5  and  C_6
REMARK    4  A    between atoms: C_12  and  C_13
REMARK    5  A    between atoms: C_17  and  C_18
REMARK    6  A    between atoms: C_18  and  C_19
REMARK    7  A    between atoms: C_19  and  C_20
REMARK    8  A    between atoms: C_20  and  C_21
REMARK    9  A    between atoms: C_21  and  C_22
REMARK   10  A    between atoms: C_22  and  C_23
REMARK   11  A    between atoms: C_23  and  O_24
REMARK                            x       y       z     vdW  Elec       q    Type
REMARK                         _______ _______ _______ _____ _____    ______ ____
ROOT
ATOM      1  C   UNL     1       6.749   6.153  17.163  0.00  0.00    +0.000 A 
ATOM      2  C   UNL     1       7.391   5.432  16.119  0.00  0.00    +0.000 A 
ATOM      3  C   UNL     1       6.458   5.213  15.124  0.00  0.00    +0.000 A 
ATOM      4  N   UNL     1       5.296   5.809  15.540  0.00  0.00    +0.000 N 
ATOM      5  C   UNL     1       5.450   6.404  16.773  0.00  0.00    +0.000 A 
ATOM      6  H   UNL     1       4.422   5.822  15.027  0.00  0.00    +0.000 HD
ENDROOT
BRANCH   3   7
ATOM      7  C   UNL     1       6.556   4.510  13.884  0.00  0.00    +0.000 A 
ATOM      8  C   UNL     1       7.393   4.713  12.801  0.00  0.00    +0.000 A 
ATOM      9  C   UNL     1       7.047   3.770  11.802  0.00  0.00    +0.000 A 
ATOM     10  C   UNL     1       6.020   3.005  12.301  0.00  0.00    +0.000 A 
ATOM     11  N   UNL     1       5.742   3.449  13.567  0.00  0.00    +0.000 N 
ATOM     12  H   UNL     1       5.031   3.069  14.176  0.00  0.00    +0.000 HD
ENDBRANCH   3   7
BRANCH   5  13
ATOM     13  C   UNL     1       4.355   7.110  17.352  0.00  0.00    +0.000 C 
ATOM     14  C   UNL     1       3.609   6.626  18.357  0.00  0.00    +0.000 C 
ATOM     15  C   UNL     1       2.450   7.255  18.937  0.00  0.00    +0.000 C 
ATOM     16  C   UNL     1       1.926   6.485  19.893  0.00  0.00    +0.000 C 
ATOM     17  C   UNL     1       2.852   5.349  19.885  0.00  0.00    +0.000 C 
ATOM     18  N   UNL     1       3.805   5.423  19.004  0.00  0.00    +0.000 NA
BRANCH  17  19
ATOM     19  C   UNL     1       2.708   4.189  20.826  0.00  0.00    +0.000 C 
BRANCH  19  20
ATOM     20  C   UNL     1       1.261   3.700  20.904  0.00  0.00    +0.000 C 
BRANCH  20  21
ATOM     21  C   UNL     1       0.775   3.085  19.589  0.00  0.00    +0.000 C 
BRANCH  21  22
ATOM     22  C   UNL     1       1.694   1.952  19.131  0.00  0.00    +0.000 C 
BRANCH  22  23
ATOM     23  C   UNL     1       2.366   2.285  17.801  0.00  0.00    +0.000 C 
BRANCH  23  24
ATOM     24  C   UNL     1       3.864   2.022  17.848  0.00  0.00    +0.000 C 
BRANCH  24  25
ATOM     25  O   UNL     1       4.558   3.078  17.199  0.00  0.00    +0.000 OA
ATOM     26  H   UNL     1       4.541   2.893  16.244  0.00  0.00    +0.000 HD
ENDBRANCH  24  25
ENDBRANCH  23  24
ENDBRANCH  22  23
ENDBRANCH  21  22
ENDBRANCH  20  21
ENDBRANCH  19  20
ENDBRANCH  17  19
ENDBRANCH   5  13
BRANCH   1  28
ATOM     27  C   UNL     1       7.736   5.534  19.175  0.00  0.00    +0.000 C 
ATOM     28  O   UNL     1       7.227   6.578  18.356  0.00  0.00    +0.000 OA
ENDBRANCH   1  28
TORSDOF 10
ENDMDL
MODEL 2
REMARK VINA RESULT:      -6.7      0.967      1.125
REMARK  Name = 
REMARK  11 active torsions:
REMARK  status: ('A' for Active; 'I' for Inactive)
REMARK    1  A    between atoms: C_1  and  O_2
REMARK    2  A    between atoms: O_2  and  C_3
REMARK    3  A    between atoms: C_5  and  C_6
REMARK    4  A    between atoms: C_12  and  C_13
REMARK    5  A    between atoms: C_17  and  C_18
REMARK    6  A    between atoms: C_18  and  C_19
REMARK    7  A    between atoms: C_19  and  C_20
REMARK    8  A    between atoms: C_20  and  C_21
REMARK    9  A    between atoms: C_21  and  C_22
REMARK   10  A    between atoms: C_22  and  C_23
REMARK   11  A    between atoms: C_23  and  O_24
REMARK                            x       y       z     vdW  Elec       q    Type
REMARK                         _______ _______ _______ _____ _____    ______ ____
ROOT
ATOM      1  C   UNL     1       6.635   5.813  16.636  0.00  0.00    +0.000 A 
ATOM      2  C   UNL     1       7.090   4.925  15.624  0.00  0.00    +0.000 A 
ATOM      3  C   UNL     1       6.078   4.793  14.694  0.00  0.00    +0.000 A 
ATOM      4  N   UNL     1       5.054   5.600  15.114  0.00  0.00    +0.000 N 
ATOM      5  C   UNL     1       5.373   6.248  16.288  0.00  0.00    +0.000 A 
ATOM      6  H   UNL     1       4.165   5.722  14.642  0.00  0.00    +0.000 HD
ENDROOT
BRANCH   3   7
ATOM      7  C   UNL     1       5.990   3.998  13.510  0.00  0.00    +0.000 A 
ATOM      8  C   UNL     1       4.883   3.527  12.826  0.00  0.00    +0.000 A 
ATOM      9  C   UNL     1       5.345   2.741  11.741  0.00  0.00    +0.000 A 
ATOM     10  C   UNL     1       6.719   2.763  11.777  0.00  0.00    +0.000 A 
ATOM     11  N   UNL     1       7.099   3.540  12.840  0.00  0.00    +0.000 N 
ATOM     12  H   UNL     1       8.053   3.735  13.108  0.00  0.00    +0.000 HD
ENDBRANCH   3   7
BRANCH   5  13
ATOM     13  C   UNL     1       4.442   7.163  16.858  0.00  0.00    +0.000 C 
ATOM     14  C   UNL     1       3.693   6.884  17.936  0.00  0.00    +0.000 C 
ATOM     15  C   UNL     1       2.687   7.735  18.517  0.00  0.00    +0.000 C 
ATOM     16  C   UNL     1       2.108   7.134  19.560  0.00  0.00    +0.000 C 
ATOM     17  C   UNL     1       2.840   5.866  19.601  0.00  0.00    +0.000 C 
ATOM     18  N   UNL     1       3.736   5.717  18.672  0.00  0.00    +0.000 NA
BRANCH  17  19
ATOM     19  C   UNL     1       2.573   4.818  20.643  0.00  0.00    +0.000 C 
BRANCH  19  20
ATOM     20  C   UNL     1       1.126   4.328  20.594  0.00  0.00    +0.000 C 
BRANCH  20  21
ATOM     21  C   UNL     1       0.915   3.213  19.565  0.00  0.00    +0.000 C 
BRANCH  21  22
ATOM     22  C   UNL     1       2.037   2.176  19.632  0.00  0.00    +0.000 C 
BRANCH  22  23
ATOM     23  C   UNL     1       2.492   1.760  18.235  0.00  0.00    +0.000 C 
BRANCH  23  24
ATOM     24  C   UNL     1       2.583   2.954  17.296  0.00  0.00    +0.000 C 
BRANCH  24  25
ATOM     25  O   UNL     1       3.942   3.334  17.132  0.00  0.00    +0.000 OA
ATOM     26  H   UNL     1       3.988   4.300  17.227  0.00  0.00    +0.000 HD
ENDBRANCH  24  25
ENDBRANCH  23  24
ENDBRANCH  22  23
ENDBRANCH  21  22
ENDBRANCH  20  21
ENDBRANCH  19  20
ENDBRANCH  17  19
ENDBRANCH   5  13
BRANCH   1  28
ATOM     27  C   UNL     1       7.815   7.535  17.661  0.00  0.00    +0.000 C 
ATOM     28  O   UNL     1       7.244   6.237  17.769  0.00  0.00    +0.000 OA
ENDBRANCH   1  28
TORSDOF 10
ENDMDL
MODEL 3
REMARK VINA RESULT:      -6.4      2.695      4.582
REMARK  Name = 
REMARK  11 active torsions:
REMARK  status: ('A' for Active; 'I' for Inactive)
REMARK    1  A    between atoms: C_1  and  O_2
REMARK    2  A    between atoms: O_2  and  C_3
REMARK    3  A    between atoms: C_5  and  C_6
REMARK    4  A    between atoms: C_12  and  C_13
REMARK    5  A    between atoms: C_17  and  C_18
REMARK    6  A    between atoms: C_18  and  C_19
REMARK    7  A    between atoms: C_19  and  C_20
REMARK    8  A    between atoms: C_20  and  C_21
REMARK    9  A    between atoms: C_21  and  C_22
REMARK   10  A    between atoms: C_22  and  C_23
REMARK   11  A    between atoms: C_23  and  O_24
REMARK                            x       y       z     vdW  Elec       q    Type
REMARK                         _______ _______ _______ _____ _____    ______ ____
ROOT
ATOM      1  C   UNL     1       6.681   4.630  17.955  0.00  0.00    +0.000 A 
ATOM      2  C   UNL     1       7.305   4.821  16.692  0.00  0.00    +0.000 A 
ATOM      3  C   UNL     1       6.481   4.272  15.729  0.00  0.00    +0.000 A 
ATOM      4  N   UNL     1       5.378   3.792  16.386  0.00  0.00    +0.000 N 
ATOM      5  C   UNL     1       5.467   4.012  17.744  0.00  0.00    +0.000 A 
ATOM      6  H   UNL     1       4.587   3.328  15.953  0.00  0.00    +0.000 HD
ENDROOT
BRANCH   3   7
ATOM      7  C   UNL     1       6.641   4.152  14.314  0.00  0.00    +0.000 A 
ATOM      8  C   UNL     1       7.387   4.908  13.428  0.00  0.00    +0.000 A 
ATOM      9  C   UNL     1       7.159   4.400  12.124  0.00  0.00    +0.000 A 
ATOM     10  C   UNL     1       6.294   3.339  12.246  0.00  0.00    +0.000 A 
ATOM     11  N   UNL     1       6.000   3.186  13.575  0.00  0.00    +0.000 N 
ATOM     12  H   UNL     1       5.388   2.481  13.961  0.00  0.00    +0.000 HD
ENDBRANCH   3   7
BRANCH   5  13
ATOM     13  C   UNL     1       4.391   3.614  18.589  0.00  0.00    +0.000 C 
ATOM     14  C   UNL     1       3.501   4.473  19.111  0.00  0.00    +0.000 C 
ATOM     15  C   UNL     1       2.438   4.146  20.026  0.00  0.00    +0.000 C 
ATOM     16  C   UNL     1       1.762   5.245  20.373  0.00  0.00    +0.000 C 
ATOM     17  C   UNL     1       2.462   6.269  19.592  0.00  0.00    +0.000 C 
ATOM     18  N   UNL     1       3.459   5.833  18.880  0.00  0.00    +0.000 NA
BRANCH  17  19
ATOM     19  C   UNL     1       2.054   7.713  19.614  0.00  0.00    +0.000 C 
BRANCH  19  20
ATOM     20  C   UNL     1       2.180   8.358  18.233  0.00  0.00    +0.000 C 
BRANCH  20  21
ATOM     21  C   UNL     1       1.094   9.405  17.970  0.00  0.00    +0.000 C 
BRANCH  21  22
ATOM     22  C   UNL     1       1.156  10.541  18.992  0.00  0.00    +0.000 C 
BRANCH  22  23
ATOM     23  C   UNL     1      -0.200  10.765  19.657  0.00  0.00    +0.000 C 
BRANCH  23  24
ATOM     24  C   UNL     1      -0.135  11.870  20.702  0.00  0.00    +0.000 C 
BRANCH  24  25
ATOM     25  O   UNL     1       0.668  11.449  21.796  0.00  0.00    +0.000 OA
ATOM     26  H   UNL     1       0.103  10.923  22.387  0.00  0.00    +0.000 HD
ENDBRANCH  24  25
ENDBRANCH  23  24
ENDBRANCH  22  23
ENDBRANCH  21  22
ENDBRANCH  20  21
ENDBRANCH  19  20
ENDBRANCH  17  19
ENDBRANCH   5  13
BRANCH   1  28
ATOM     27  C   UNL     1       7.961   6.095  19.228  0.00  0.00    +0.000 C 
ATOM     28  O   UNL     1       7.101   4.964  19.198  0.00  0.00    +0.000 OA
ENDBRANCH   1  28
TORSDOF 10
ENDMDL
MODEL 4
REMARK VINA RESULT:      -6.4      2.960      4.680
REMARK  Name = 
REMARK  11 active torsions:
REMARK  status: ('A' for Active; 'I' for Inactive)
REMARK    1  A    between atoms: C_1  and  O_2
REMARK    2  A    between atoms: O_2  and  C_3
REMARK    3  A    between atoms: C_5  and  C_6
REMARK    4  A    between atoms: C_12  and  C_13
REMARK    5  A    between atoms: C_17  and  C_18
REMARK    6  A    between atoms: C_18  and  C_19
REMARK    7  A    between atoms: C_19  and  C_20
REMARK    8  A    between atoms: C_20  and  C_21
REMARK    9  A    between atoms: C_21  and  C_22
REMARK   10  A    between atoms: C_22  and  C_23
REMARK   11  A    between atoms: C_23  and  O_24
REMARK                            x       y       z     vdW  Elec       q    Type
REMARK                         _______ _______ _______ _____ _____    ______ ____
ROOT
ATOM      1  C   UNL     1       6.582   5.013  17.825  0.00  0.00    +0.000 A 
ATOM      2  C   UNL     1       7.170   5.136  16.537  0.00  0.00    +0.000 A 
ATOM      3  C   UNL     1       6.393   4.420  15.648  0.00  0.00    +0.000 A 
ATOM      4  N   UNL     1       5.349   3.904  16.372  0.00  0.00    +0.000 N 
ATOM      5  C   UNL     1       5.430   4.263  17.699  0.00  0.00    +0.000 A 
ATOM      6  H   UNL     1       4.602   3.327  16.002  0.00  0.00    +0.000 HD
ENDROOT
BRANCH   3   7
ATOM      7  C   UNL     1       6.548   4.177  14.249  0.00  0.00    +0.000 A 
ATOM      8  C   UNL     1       7.319   4.830  13.305  0.00  0.00    +0.000 A 
ATOM      9  C   UNL     1       7.074   4.224  12.048  0.00  0.00    +0.000 A 
ATOM     10  C   UNL     1       6.173   3.206  12.255  0.00  0.00    +0.000 A 
ATOM     11  N   UNL     1       5.875   3.175  13.592  0.00  0.00    +0.000 N 
ATOM     12  H   UNL     1       5.239   2.525  14.033  0.00  0.00    +0.000 HD
ENDBRANCH   3   7
BRANCH   5  13
ATOM     13  C   UNL     1       4.407   3.850  18.601  0.00  0.00    +0.000 C 
ATOM     14  C   UNL     1       3.505   4.689  19.133  0.00  0.00    +0.000 C 
ATOM     15  C   UNL     1       2.494   4.350  20.101  0.00  0.00    +0.000 C 
ATOM     16  C   UNL     1       1.788   5.431  20.443  0.00  0.00    +0.000 C 
ATOM     17  C   UNL     1       2.412   6.456  19.602  0.00  0.00    +0.000 C 
ATOM     18  N   UNL     1       3.396   6.038  18.863  0.00  0.00    +0.000 NA
BRANCH  17  19
ATOM     19  C   UNL     1       1.946   7.883  19.597  0.00  0.00    +0.000 C 
BRANCH  19  20
ATOM     20  C   UNL     1       2.098   8.524  18.217  0.00  0.00    +0.000 C 
BRANCH  20  21
ATOM     21  C   UNL     1       1.396   9.881  18.117  0.00  0.00    +0.000 C 
BRANCH  21  22
ATOM     22  C   UNL     1       0.187   9.953  19.050  0.00  0.00    +0.000 C 
BRANCH  22  23
ATOM     23  C   UNL     1      -0.336  11.382  19.173  0.00  0.00    +0.000 C 
BRANCH  23  24
ATOM     24  C   UNL     1      -1.496  11.638  18.221  0.00  0.00    +0.000 C 
BRANCH  24  25
ATOM     25  O   UNL     1      -1.184  12.730  17.368  0.00  0.00    +0.000 OA
ATOM     26  H   UNL     1      -1.475  13.542  17.817  0.00  0.00    +0.000 HD
ENDBRANCH  24  25
ENDBRANCH  23  24
ENDBRANCH  22  23
ENDBRANCH  21  22
ENDBRANCH  20  21
ENDBRANCH  19  20
ENDBRANCH  17  19
ENDBRANCH   5  13
BRANCH   1  28
ATOM     27  C   UNL     1       8.027   6.463  18.926  0.00  0.00    +0.000 C 
ATOM     28  O   UNL     1       6.981   5.505  19.021  0.00  0.00    +0.000 OA
ENDBRANCH   1  28
TORSDOF 10
ENDMDL
MODEL 5
REMARK VINA RESULT:      -6.4      2.755      4.614
REMARK  Name = 
REMARK  11 active torsions:
REMARK  status: ('A' for Active; 'I' for Inactive)
REMARK    1  A    between atoms: C_1  and  O_2
REMARK    2  A    between atoms: O_2  and  C_3
REMARK    3  A    between atoms: C_5  and  C_6
REMARK    4  A    between atoms: C_12  and  C_13
REMARK    5  A    between atoms: C_17  and  C_18
REMARK    6  A    between atoms: C_18  and  C_19
REMARK    7  A    between atoms: C_19  and  C_20
REMARK    8  A    between atoms: C_20  and  C_21
REMARK    9  A    between atoms: C_21  and  C_22
REMARK   10  A    between atoms: C_22  and  C_23
REMARK   11  A    between atoms: C_23  and  O_24
REMARK                            x       y       z     vdW  Elec       q    Type
REMARK                         _______ _______ _______ _____ _____    ______ ____
ROOT
ATOM      1  C   UNL     1       6.524   4.674  18.131  0.00  0.00    +0.000 A 
ATOM      2  C   UNL     1       7.192   4.964  16.910  0.00  0.00    +0.000 A 
ATOM      3  C   UNL     1       6.437   4.436  15.881  0.00  0.00    +0.000 A 
ATOM      4  N   UNL     1       5.330   3.870  16.459  0.00  0.00    +0.000 N 
ATOM      5  C   UNL     1       5.349   4.015  17.829  0.00  0.00    +0.000 A 
ATOM      6  H   UNL     1       4.581   3.398  15.965  0.00  0.00    +0.000 HD
ENDROOT
BRANCH   3   7
ATOM      7  C   UNL     1       6.664   4.404  14.471  0.00  0.00    +0.000 A 
ATOM      8  C   UNL     1       6.084   3.625  13.485  0.00  0.00    +0.000 A 
ATOM      9  C   UNL     1       6.702   3.951  12.253  0.00  0.00    +0.000 A 
ATOM     10  C   UNL     1       7.631   4.931  12.509  0.00  0.00    +0.000 A 
ATOM     11  N   UNL     1       7.588   5.210  13.850  0.00  0.00    +0.000 N 
ATOM     12  H   UNL     1       8.162   5.894  14.323  0.00  0.00    +0.000 HD
ENDBRANCH   3   7
BRANCH   5  13
ATOM     13  C   UNL     1       4.258   3.522  18.601  0.00  0.00    +0.000 C 
ATOM     14  C   UNL     1       3.355   4.315  19.198  0.00  0.00    +0.000 C 
ATOM     15  C   UNL     1       2.274   3.884  20.047  0.00  0.00    +0.000 C 
ATOM     16  C   UNL     1       1.587   4.935  20.504  0.00  0.00    +0.000 C 
ATOM     17  C   UNL     1       2.299   6.042  19.859  0.00  0.00    +0.000 C 
ATOM     18  N   UNL     1       3.312   5.692  19.124  0.00  0.00    +0.000 NA
BRANCH  17  19
ATOM     19  C   UNL     1       1.885   7.474  20.038  0.00  0.00    +0.000 C 
BRANCH  19  20
ATOM     20  C   UNL     1       2.155   8.302  18.781  0.00  0.00    +0.000 C 
BRANCH  20  21
ATOM     21  C   UNL     1       1.129   9.421  18.580  0.00  0.00    +0.000 C 
BRANCH  21  22
ATOM     22  C   UNL     1       0.601   9.939  19.918  0.00  0.00    +0.000 C 
BRANCH  22  23
ATOM     23  C   UNL     1       0.812  11.445  20.053  0.00  0.00    +0.000 C 
BRANCH  23  24
ATOM     24  C   UNL     1       1.305  12.061  18.752  0.00  0.00    +0.000 C 
BRANCH  24  25
ATOM     25  O   UNL     1       0.227  12.703  18.086  0.00  0.00    +0.000 OA
ATOM     26  H   UNL     1      -0.016  13.485  18.612  0.00  0.00    +0.000 HD
ENDBRANCH  24  25
ENDBRANCH  23  24
ENDBRANCH  22  23
ENDBRANCH  21  22
ENDBRANCH  20  21
ENDBRANCH  19  20
ENDBRANCH  17  19
ENDBRANCH   5  13
BRANCH   1  28
ATOM     27  C   UNL     1       8.005   5.806  19.519  0.00  0.00    +0.000 C 
ATOM     28  O   UNL     1       6.873   4.953  19.408  0.00  0.00    +0.000 OA
ENDBRANCH   1  28
TORSDOF 10
ENDMDL
MODEL 6
REMARK VINA RESULT:      -6.4      0.982      1.106
REMARK  Name = 
REMARK  11 active torsions:
REMARK  status: ('A' for Active; 'I' for Inactive)
REMARK    1  A    between atoms: C_1  and  O_2
REMARK    2  A    between atoms: O_2  and  C_3
REMARK    3  A    between atoms: C_5  and  C_6
REMARK    4  A    between atoms: C_12  and  C_13
REMARK    5  A    between atoms: C_17  and  C_18
REMARK    6  A    between atoms: C_18  and  C_19
REMARK    7  A    between atoms: C_19  and  C_20
REMARK    8  A    between atoms: C_20  and  C_21
REMARK    9  A    between atoms: C_21  and  C_22
REMARK   10  A    between atoms: C_22  and  C_23
REMARK   11  A    between atoms: C_23  and  O_24
REMARK                            x       y       z     vdW  Elec       q    Type
REMARK                         _______ _______ _______ _____ _____    ______ ____
ROOT
ATOM      1  C   UNL     1       6.169   5.610  17.647  0.00  0.00    +0.000 A 
ATOM      2  C   UNL     1       6.845   4.886  16.626  0.00  0.00    +0.000 A 
ATOM      3  C   UNL     1       6.193   5.133  15.434  0.00  0.00    +0.000 A 
ATOM      4  N   UNL     1       5.173   6.002  15.719  0.00  0.00    +0.000 N 
ATOM      5  C   UNL     1       5.144   6.323  17.059  0.00  0.00    +0.000 A 
ATOM      6  H   UNL     1       4.508   6.374  15.049  0.00  0.00    +0.000 HD
ENDROOT
BRANCH   3   7
ATOM      7  C   UNL     1       6.425   4.632  14.116  0.00  0.00    +0.000 A 
ATOM      8  C   UNL     1       5.803   3.608  13.422  0.00  0.00    +0.000 A 
ATOM      9  C   UNL     1       6.448   3.481  12.166  0.00  0.00    +0.000 A 
ATOM     10  C   UNL     1       7.435   4.436  12.116  0.00  0.00    +0.000 A 
ATOM     11  N   UNL     1       7.402   5.138  13.292  0.00  0.00    +0.000 N 
ATOM     12  H   UNL     1       8.015   5.904  13.532  0.00  0.00    +0.000 HD
ENDBRANCH   3   7
BRANCH   5  13
ATOM     13  C   UNL     1       4.173   7.248  17.538  0.00  0.00    +0.000 C 
ATOM     14  C   UNL     1       3.325   6.980  18.543  0.00  0.00    +0.000 C 
ATOM     15  C   UNL     1       2.277   7.841  19.025  0.00  0.00    +0.000 C 
ATOM     16  C   UNL     1       1.599   7.249  20.012  0.00  0.00    +0.000 C 
ATOM     17  C   UNL     1       2.314   5.976  20.126  0.00  0.00    +0.000 C 
ATOM     18  N   UNL     1       3.291   5.816  19.283  0.00  0.00    +0.000 NA
BRANCH  17  19
ATOM     19  C   UNL     1       1.943   4.935  21.142  0.00  0.00    +0.000 C 
BRANCH  19  20
ATOM     20  C   UNL     1       2.113   3.519  20.590  0.00  0.00    +0.000 C 
BRANCH  20  21
ATOM     21  C   UNL     1       0.858   3.009  19.876  0.00  0.00    +0.000 C 
BRANCH  21  22
ATOM     22  C   UNL     1       1.215   2.231  18.610  0.00  0.00    +0.000 C 
BRANCH  22  23
ATOM     23  C   UNL     1       2.606   2.603  18.103  0.00  0.00    +0.000 C 
BRANCH  23  24
ATOM     24  C   UNL     1       3.560   1.419  18.164  0.00  0.00    +0.000 C 
BRANCH  24  25
ATOM     25  O   UNL     1       4.578   1.673  19.123  0.00  0.00    +0.000 OA
ATOM     26  H   UNL     1       5.261   2.211  18.687  0.00  0.00    +0.000 HD
ENDBRANCH  24  25
ENDBRANCH  23  24
ENDBRANCH  22  23
ENDBRANCH  21  22
ENDBRANCH  20  21
ENDBRANCH  19  20
ENDBRANCH  17  19
ENDBRANCH   5  13
BRANCH   1  28
ATOM     27  C   UNL     1       7.780   5.807  19.311  0.00  0.00    +0.000 C 
ATOM     28  O   UNL     1       6.405   5.673  18.978  0.00  0.00    +0.000 OA
ENDBRANCH   1  28
TORSDOF 10
ENDMDL
MODEL 7
REMARK VINA RESULT:      -6.4      4.377      7.259
REMARK  Name = 
REMARK  11 active torsions:
REMARK  status: ('A' for Active; 'I' for Inactive)
REMARK    1  A    between atoms: C_1  and  O_2
REMARK    2  A    between atoms: O_2  and  C_3
REMARK    3  A    between atoms: C_5  and  C_6
REMARK    4  A    between atoms: C_12  and  C_13
REMARK    5  A    between atoms: C_17  and  C_18
REMARK    6  A    between atoms: C_18  and  C_19
REMARK    7  A    between atoms: C_19  and  C_20
REMARK    8  A    between atoms: C_20  and  C_21
REMARK    9  A    between atoms: C_21  and  C_22
REMARK   10  A    between atoms: C_22  and  C_23
REMARK   11  A    between atoms: C_23  and  O_24
REMARK                            x       y       z     vdW  Elec       q    Type
REMARK                         _______ _______ _______ _____ _____    ______ ____
ROOT
ATOM      1  C   UNL     1       0.513   9.973  19.729  0.00  0.00    +0.000 A 
ATOM      2  C   UNL     1      -0.826  10.394  19.502  0.00  0.00    +0.000 A 
ATOM      3  C   UNL     1      -1.059  10.344  18.142  0.00  0.00    +0.000 A 
ATOM      4  N   UNL     1       0.094   9.878  17.566  0.00  0.00    +0.000 N 
ATOM      5  C   UNL     1       1.064   9.627  18.512  0.00  0.00    +0.000 A 
ATOM      6  H   UNL     1       0.241   9.729  16.573  0.00  0.00    +0.000 HD
ENDROOT
BRANCH   3   7
ATOM      7  C   UNL     1      -2.211  10.696  17.373  0.00  0.00    +0.000 A 
ATOM      8  C   UNL     1      -3.422  11.236  17.767  0.00  0.00    +0.000 A 
ATOM      9  C   UNL     1      -4.244  11.345  16.617  0.00  0.00    +0.000 A 
ATOM     10  C   UNL     1      -3.512  10.885  15.548  0.00  0.00    +0.000 A 
ATOM     11  N   UNL     1      -2.278  10.512  16.013  0.00  0.00    +0.000 N 
ATOM     12  H   UNL     1      -1.530  10.137  15.446  0.00  0.00    +0.000 HD
ENDBRANCH   3   7
BRANCH   5  13
ATOM     13  C   UNL     1       2.322   9.098  18.103  0.00  0.00    +0.000 C 
ATOM     14  C   UNL     1       2.569   7.785  17.982  0.00  0.00    +0.000 C 
ATOM     15  C   UNL     1       3.834   7.184  17.643  0.00  0.00    +0.000 C 
ATOM     16  C   UNL     1       3.738   5.852  17.645  0.00  0.00    +0.000 C 
ATOM     17  C   UNL     1       2.323   5.669  17.980  0.00  0.00    +0.000 C 
ATOM     18  N   UNL     1       1.659   6.767  18.183  0.00  0.00    +0.000 NA
BRANCH  17  19
ATOM     19  C   UNL     1       1.692   4.311  18.081  0.00  0.00    +0.000 C 
BRANCH  19  20
ATOM     20  C   UNL     1       1.218   4.011  19.504  0.00  0.00    +0.000 C 
BRANCH  20  21
ATOM     21  C   UNL     1       2.344   4.123  20.536  0.00  0.00    +0.000 C 
BRANCH  21  22
ATOM     22  C   UNL     1       2.910   2.748  20.893  0.00  0.00    +0.000 C 
BRANCH  22  23
ATOM     23  C   UNL     1       4.133   2.413  20.044  0.00  0.00    +0.000 C 
BRANCH  23  24
ATOM     24  C   UNL     1       3.786   1.454  18.914  0.00  0.00    +0.000 C 
BRANCH  24  25
ATOM     25  O   UNL     1       4.280   1.964  17.683  0.00  0.00    +0.000 OA
ATOM     26  H   UNL     1       3.913   1.413  16.971  0.00  0.00    +0.000 HD
ENDBRANCH  24  25
ENDBRANCH  23  24
ENDBRANCH  22  23
ENDBRANCH  21  22
ENDBRANCH  20  21
ENDBRANCH  19  20
ENDBRANCH  17  19
ENDBRANCH   5  13
BRANCH   1  28
ATOM     27  C   UNL     1       1.123   8.603  21.505  0.00  0.00    +0.000 C 
ATOM     28  O   UNL     1       1.217   9.876  20.881  0.00  0.00    +0.000 OA
ENDBRANCH   1  28
TORSDOF 10
ENDMDL
MODEL 8
REMARK VINA RESULT:      -6.3      3.475      8.402
REMARK  Name = 
REMARK  11 active torsions:
REMARK  status: ('A' for Active; 'I' for Inactive)
REMARK    1  A    between atoms: C_1  and  O_2
REMARK    2  A    between atoms: O_2  and  C_3
REMARK    3  A    between atoms: C_5  and  C_6
REMARK    4  A    between atoms: C_12  and  C_13
REMARK    5  A    between atoms: C_17  and  C_18
REMARK    6  A    between atoms: C_18  and  C_19
REMARK    7  A    between atoms: C_19  and  C_20
REMARK    8  A    between atoms: C_20  and  C_21
REMARK    9  A    between atoms: C_21  and  C_22
REMARK   10  A    between atoms: C_22  and  C_23
REMARK   11  A    between atoms: C_23  and  O_24
REMARK                            x       y       z     vdW  Elec       q    Type
REMARK                         _______ _______ _______ _____ _____    ______ ____
ROOT
ATOM      1  C   UNL     1       2.323   4.513  19.718  0.00  0.00    +0.000 A 
ATOM      2  C   UNL     1       1.636   5.437  20.552  0.00  0.00    +0.000 A 
ATOM      3  C   UNL     1       1.868   6.705  20.055  0.00  0.00    +0.000 A 
ATOM      4  N   UNL     1       2.645   6.550  18.937  0.00  0.00    +0.000 N 
ATOM      5  C   UNL     1       2.924   5.222  18.698  0.00  0.00    +0.000 A 
ATOM      6  H   UNL     1       2.987   7.299  18.346  0.00  0.00    +0.000 HD
ENDROOT
BRANCH   3   7
ATOM      7  C   UNL     1       1.455   7.988  20.528  0.00  0.00    +0.000 A 
ATOM      8  C   UNL     1       1.198   8.431  21.814  0.00  0.00    +0.000 A 
ATOM      9  C   UNL     1       0.768   9.779  21.731  0.00  0.00    +0.000 A 
ATOM     10  C   UNL     1       0.787  10.133  20.403  0.00  0.00    +0.000 A 
ATOM     11  N   UNL     1       1.220   9.048  19.686  0.00  0.00    +0.000 N 
ATOM     12  H   UNL     1       1.335   9.020  18.682  0.00  0.00    +0.000 HD
ENDBRANCH   3   7
BRANCH   5  13
ATOM     13  C   UNL     1       3.691   4.861  17.553  0.00  0.00    +0.000 C 
ATOM     14  C   UNL     1       4.946   5.285  17.337  0.00  0.00    +0.000 C 
ATOM     15  C   UNL     1       5.746   5.016  16.170  0.00  0.00    +0.000 C 
ATOM     16  C   UNL     1       6.934   5.619  16.266  0.00  0.00    +0.000 C 
ATOM     17  C   UNL     1       6.825   6.257  17.581  0.00  0.00    +0.000 C 
ATOM     18  N   UNL     1       5.690   6.076  18.188  0.00  0.00    +0.000 NA
BRANCH  17  19
ATOM     19  C   UNL     1       7.945   7.058  18.180  0.00  0.00    +0.000 C 
BRANCH  19  20
ATOM     20  C   UNL     1       7.884   8.524  17.751  0.00  0.00    +0.000 C 
BRANCH  20  21
ATOM     21  C   UNL     1       8.770   9.428  18.613  0.00  0.00    +0.000 C 
BRANCH  21  22
ATOM     22  C   UNL     1       8.941  10.808  17.979  0.00  0.00    +0.000 C 
BRANCH  22  23
ATOM     23  C   UNL     1       9.779  11.727  18.864  0.00  0.00    +0.000 C 
BRANCH  23  24
ATOM     24  C   UNL     1       9.625  13.187  18.461  0.00  0.00    +0.000 C 
BRANCH  24  25
ATOM     25  O   UNL     1       9.922  13.338  17.080  0.00  0.00    +0.000 OA
ATOM     26  H   UNL     1      10.231  14.250  16.947  0.00  0.00    +0.000 HD
ENDBRANCH  24  25
ENDBRANCH  23  24
ENDBRANCH  22  23
ENDBRANCH  21  22
ENDBRANCH  20  21
ENDBRANCH  19  20
ENDBRANCH  17  19
ENDBRANCH   5  13
BRANCH   1  28
ATOM     27  C   UNL     1       1.238   2.475  19.439  0.00  0.00    +0.000 C 
ATOM     28  O   UNL     1       2.426   3.166  19.803  0.00  0.00    +0.000 OA
ENDBRANCH   1  28
TORSDOF 10
ENDMDL
MODEL 9
REMARK VINA RESULT:      -6.2      3.183      4.777
REMARK  Name = 
REMARK  11 active torsions:
REMARK  status: ('A' for Active; 'I' for Inactive)
REMARK    1  A    between atoms: C_1  and  O_2
REMARK    2  A    between atoms: O_2  and  C_3
REMARK    3  A    between atoms: C_5  and  C_6
REMARK    4  A    between atoms: C_12  and  C_13
REMARK    5  A    between atoms: C_17  and  C_18
REMARK    6  A    between atoms: C_18  and  C_19
REMARK    7  A    between atoms: C_19  and  C_20
REMARK    8  A    between atoms: C_20  and  C_21
REMARK    9  A    between atoms: C_21  and  C_22
REMARK   10  A    between atoms: C_22  and  C_23
REMARK   11  A    between atoms: C_23  and  O_24
REMARK                            x       y       z     vdW  Elec       q    Type
REMARK                         _______ _______ _______ _____ _____    ______ ____
ROOT
ATOM      1  C   UNL     1       6.468   4.656  18.142  0.00  0.00    +0.000 A 
ATOM      2  C   UNL     1       7.185   4.942  16.948  0.00  0.00    +0.000 A 
ATOM      3  C   UNL     1       6.427   4.493  15.884  0.00  0.00    +0.000 A 
ATOM      4  N   UNL     1       5.273   3.979  16.416  0.00  0.00    +0.000 N 
ATOM      5  C   UNL     1       5.264   4.080  17.790  0.00  0.00    +0.000 A 
ATOM      6  H   UNL     1       4.511   3.568  15.888  0.00  0.00    +0.000 HD
ENDROOT
BRANCH   3   7
ATOM      7  C   UNL     1       6.690   4.490  14.479  0.00  0.00    +0.000 A 
ATOM      8  C   UNL     1       6.146   3.720  13.466  0.00  0.00    +0.000 A 
ATOM      9  C   UNL     1       6.790   4.079  12.255  0.00  0.00    +0.000 A 
ATOM     10  C   UNL     1       7.698   5.067  12.553  0.00  0.00    +0.000 A 
ATOM     11  N   UNL     1       7.617   5.321  13.897  0.00  0.00    +0.000 N 
ATOM     12  H   UNL     1       8.169   6.004  14.397  0.00  0.00    +0.000 HD
ENDBRANCH   3   7
BRANCH   5  13
ATOM     13  C   UNL     1       4.124   3.632  18.518  0.00  0.00    +0.000 C 
ATOM     14  C   UNL     1       3.262   4.459  19.128  0.00  0.00    +0.000 C 
ATOM     15  C   UNL     1       2.135   4.069  19.936  0.00  0.00    +0.000 C 
ATOM     16  C   UNL     1       1.510   5.145  20.421  0.00  0.00    +0.000 C 
ATOM     17  C   UNL     1       2.308   6.226  19.838  0.00  0.00    +0.000 C 
ATOM     18  N   UNL     1       3.313   5.838  19.110  0.00  0.00    +0.000 NA
BRANCH  17  19
ATOM     19  C   UNL     1       1.987   7.675  20.066  0.00  0.00    +0.000 C 
BRANCH  19  20
ATOM     20  C   UNL     1       1.149   7.877  21.330  0.00  0.00    +0.000 C 
BRANCH  20  21
ATOM     21  C   UNL     1       0.017   8.888  21.131  0.00  0.00    +0.000 C 
BRANCH  21  22
ATOM     22  C   UNL     1       0.317  10.206  21.845  0.00  0.00    +0.000 C 
BRANCH  22  23
ATOM     23  C   UNL     1       0.341  11.376  20.864  0.00  0.00    +0.000 C 
BRANCH  23  24
ATOM     24  C   UNL     1      -0.984  11.517  20.127  0.00  0.00    +0.000 C 
BRANCH  24  25
ATOM     25  O   UNL     1      -1.950  12.106  20.987  0.00  0.00    +0.000 OA
ATOM     26  H   UNL     1      -2.819  12.000  20.563  0.00  0.00    +0.000 HD
ENDBRANCH  24  25
ENDBRANCH  23  24
ENDBRANCH  22  23
ENDBRANCH  21  22
ENDBRANCH  20  21
ENDBRANCH  19  20
ENDBRANCH  17  19
ENDBRANCH   5  13
BRANCH   1  28
ATOM     27  C   UNL     1       7.848   5.818  19.607  0.00  0.00    +0.000 C 
ATOM     28  O   UNL     1       6.799   4.874  19.436  0.00  0.00    +0.000 OA
ENDBRANCH   1  28
TORSDOF 10
ENDMDL
