MODEL 1
REMARK VINA RESULT:      -8.0      0.000      0.000
REMARK  Name = 
REMARK  9 active torsions:
REMARK  status: ('A' for Active; 'I' for Inactive)
REMARK    1  A    between atoms: C_1  and  C_2
REMARK    2  A    between atoms: C_7  and  N_8
REMARK    3  A    between atoms: C_9  and  C_11
REMARK    4  A    between atoms: C_11  and  C_12
REMARK    5  A    between atoms: C_14  and  C_15
REMARK    6  A    between atoms: C_15  and  O_16
REMARK    7  A    between atoms: O_16  and  C_17
REMARK    8  A    between atoms: C_17  and  C_19
REMARK    9  A    between atoms: C_25  and  O_26
REMARK                            x       y       z     vdW  Elec       q    Type
REMARK                         _______ _______ _______ _____ _____    ______ ____
ROOT
ATOM      1  C   UNL     1       2.900   3.707  19.298  0.00  0.00    +0.000 A 
ATOM      2  N   UNL     1       3.664   4.262  18.380  0.00  0.00    +0.000 NA
ATOM      3  C   UNL     1       3.727   3.452  17.256  0.00  0.00    +0.000 A 
ATOM      4  C   UNL     1       2.958   2.305  17.335  0.00  0.00    +0.000 A 
ATOM      5  S   UNL     1       2.155   2.229  18.846  0.00  0.00    +0.000 S 
ENDROOT
BRANCH   1   6
ATOM      6  C   UNL     1       2.694   4.288  20.652  0.00  0.00    +0.000 C 
BRANCH   6   8
ATOM      7  N   UNL     1       2.404   6.744  20.453  0.00  0.00    +0.000 N 
ATOM      8  C   UNL     1       1.785   5.508  20.611  0.00  0.00    +0.000 C 
ATOM      9  O   UNL     1       0.571   5.319  20.616  0.00  0.00    +0.000 OA
ATOM     10  H   UNL     1       3.416   6.728  20.326  0.00  0.00    +0.000 HD
BRANCH   7  17
ATOM     11  C   UNL     1       2.341   8.236  17.882  0.00  0.00    +0.000 C 
ATOM     12  C   UNL     1       1.699   8.711  19.159  0.00  0.00    +0.000 A 
ATOM     13  C   UNL     1       1.008   9.940  19.115  0.00  0.00    +0.000 A 
ATOM     14  C   UNL     1       0.397  10.468  20.251  0.00  0.00    +0.000 A 
ATOM     15  C   UNL     1       0.499   9.795  21.458  0.00  0.00    +0.000 A 
ATOM     16  C   UNL     1       1.185   8.583  21.521  0.00  0.00    +0.000 A 
ATOM     17  C   UNL     1       1.765   8.005  20.381  0.00  0.00    +0.000 A 
ENDBRANCH   7  17
ENDBRANCH   6   8
ENDBRANCH   1   6
BRANCH   3  18
ATOM     18  C   UNL     1       4.627   3.846  16.125  0.00  0.00    +0.000 C 
BRANCH  18  19
ATOM     19  O   UNL     1       4.870   5.261  16.059  0.00  0.00    +0.000 OA
BRANCH  19  20
ATOM     20  C   UNL     1       6.140   5.604  15.755  0.00  0.00    +0.000 C 
ATOM     21  O   UNL     1       6.652   5.540  14.647  0.00  0.00    +0.000 OA
BRANCH  20  22
ATOM     22  C   UNL     1       6.881   6.112  16.942  0.00  0.00    +0.000 A 
ATOM     23  C   UNL     1       7.255   7.466  16.908  0.00  0.00    +0.000 A 
ATOM     24  C   UNL     1       7.983   8.022  17.958  0.00  0.00    +0.000 A 
ATOM     25 CL   UNL     1       8.457   9.675  17.892  0.00  0.00    +0.000 Cl
ATOM     26  C   UNL     1       8.345   7.245  19.055  0.00  0.00    +0.000 A 
ATOM     27  C   UNL     1       7.992   5.896  19.095  0.00  0.00    +0.000 A 
ATOM     28  C   UNL     1       7.270   5.326  18.038  0.00  0.00    +0.000 A 
BRANCH  28  29
ATOM     29  O   UNL     1       7.001   3.988  18.082  0.00  0.00    +0.000 OA
ATOM     30  H   UNL     1       7.702   3.495  17.625  0.00  0.00    +0.000 HD
ENDBRANCH  28  29
ENDBRANCH  20  22
ENDBRANCH  19  20
ENDBRANCH  18  19
ENDBRANCH   3  18
TORSDOF 8
ENDMDL
MODEL 2
REMARK VINA RESULT:      -7.7      4.419      6.494
REMARK  Name = 
REMARK  9 active torsions:
REMARK  status: ('A' for Active; 'I' for Inactive)
REMARK    1  A    between atoms: C_1  and  C_2
REMARK    2  A    between atoms: C_7  and  N_8
REMARK    3  A    between atoms: C_9  and  C_11
REMARK    4  A    between atoms: C_11  and  C_12
REMARK    5  A    between atoms: C_14  and  C_15
REMARK    6  A    between atoms: C_15  and  O_16
REMARK    7  A    between atoms: O_16  and  C_17
REMARK    8  A    between atoms: C_17  and  C_19
REMARK    9  A    between atoms: C_25  and  O_26
REMARK                            x       y       z     vdW  Elec       q    Type
REMARK                         _______ _______ _______ _____ _____    ______ ____
ROOT
ATOM      1  C   UNL     1       6.485   6.464  17.363  0.00  0.00    +0.000 A 
ATOM      2  N   UNL     1       6.695   7.731  17.070  0.00  0.00    +0.000 NA
ATOM      3  C   UNL     1       7.754   8.225  17.818  0.00  0.00    +0.000 A 
ATOM      4  C   UNL     1       8.359   7.290  18.639  0.00  0.00    +0.000 A 
ATOM      5  S   UNL     1       7.581   5.771  18.486  0.00  0.00    +0.000 S 
ENDROOT
BRANCH   1   6
ATOM      6  C   UNL     1       5.367   5.668  16.790  0.00  0.00    +0.000 C 
BRANCH   6   8
ATOM      7  N   UNL     1       4.055   4.179  18.279  0.00  0.00    +0.000 N 
ATOM      8  C   UNL     1       4.240   5.470  17.795  0.00  0.00    +0.000 C 
ATOM      9  O   UNL     1       3.640   6.467  18.188  0.00  0.00    +0.000 OA
ATOM     10  H   UNL     1       4.723   3.477  17.960  0.00  0.00    +0.000 HD
BRANCH   7  17
ATOM     11  C   UNL     1       1.179   4.147  17.528  0.00  0.00    +0.000 C 
ATOM     12  C   UNL     1       1.714   3.709  18.866  0.00  0.00    +0.000 A 
ATOM     13  C   UNL     1       0.780   3.238  19.812  0.00  0.00    +0.000 A 
ATOM     14  C   UNL     1       1.182   2.827  21.082  0.00  0.00    +0.000 A 
ATOM     15  C   UNL     1       2.516   2.918  21.440  0.00  0.00    +0.000 A 
ATOM     16  C   UNL     1       3.452   3.391  20.520  0.00  0.00    +0.000 A 
ATOM     17  C   UNL     1       3.081   3.761  19.219  0.00  0.00    +0.000 A 
ENDBRANCH   7  17
ENDBRANCH   6   8
ENDBRANCH   1   6
BRANCH   3  18
ATOM     18  C   UNL     1       8.101   9.679  17.717  0.00  0.00    +0.000 C 
BRANCH  18  19
ATOM     19  O   UNL     1       9.438   9.974  18.154  0.00  0.00    +0.000 OA
BRANCH  19  20
ATOM     20  C   UNL     1       9.527  10.944  19.089  0.00  0.00    +0.000 C 
ATOM     21  O   UNL     1       9.306  10.808  20.284  0.00  0.00    +0.000 OA
BRANCH  20  22
ATOM     22  C   UNL     1       9.960  12.244  18.507  0.00  0.00    +0.000 A 
ATOM     23  C   UNL     1       9.047  13.307  18.612  0.00  0.00    +0.000 A 
ATOM     24  C   UNL     1       9.350  14.552  18.065  0.00  0.00    +0.000 A 
ATOM     25 CL   UNL     1       8.212  15.838  18.177  0.00  0.00    +0.000 Cl
ATOM     26  C   UNL     1      10.562  14.760  17.411  0.00  0.00    +0.000 A 
ATOM     27  C   UNL     1      11.472  13.710  17.288  0.00  0.00    +0.000 A 
ATOM     28  C   UNL     1      11.170  12.451  17.825  0.00  0.00    +0.000 A 
BRANCH  28  29
ATOM     29  O   UNL     1      12.054  11.430  17.627  0.00  0.00    +0.000 OA
ATOM     30  H   UNL     1      12.899  11.635  18.060  0.00  0.00    +0.000 HD
ENDBRANCH  28  29
ENDBRANCH  20  22
ENDBRANCH  19  20
ENDBRANCH  18  19
ENDBRANCH   3  18
TORSDOF 8
ENDMDL
MODEL 3
REMARK VINA RESULT:      -7.7      4.435      6.524
REMARK  Name = 
REMARK  9 active torsions:
REMARK  status: ('A' for Active; 'I' for Inactive)
REMARK    1  A    between atoms: C_1  and  C_2
REMARK    2  A    between atoms: C_7  and  N_8
REMARK    3  A    between atoms: C_9  and  C_11
REMARK    4  A    between atoms: C_11  and  C_12
REMARK    5  A    between atoms: C_14  and  C_15
REMARK    6  A    between atoms: C_15  and  O_16
REMARK    7  A    between atoms: O_16  and  C_17
REMARK    8  A    between atoms: C_17  and  C_19
REMARK    9  A    between atoms: C_25  and  O_26
REMARK                            x       y       z     vdW  Elec       q    Type
REMARK                         _______ _______ _______ _____ _____    ______ ____
ROOT
ATOM      1  C   UNL     1       6.587   6.320  17.336  0.00  0.00    +0.000 A 
ATOM      2  N   UNL     1       6.896   7.571  17.060  0.00  0.00    +0.000 NA
ATOM      3  C   UNL     1       7.864   8.031  17.941  0.00  0.00    +0.000 A 
ATOM      4  C   UNL     1       8.305   7.085  18.849  0.00  0.00    +0.000 A 
ATOM      5  S   UNL     1       7.485   5.600  18.608  0.00  0.00    +0.000 S 
ENDROOT
BRANCH   1   6
ATOM      6  C   UNL     1       5.523   5.564  16.623  0.00  0.00    +0.000 C 
BRANCH   6   8
ATOM      7  N   UNL     1       4.247   4.258  18.303  0.00  0.00    +0.000 N 
ATOM      8  C   UNL     1       4.283   5.384  17.488  0.00  0.00    +0.000 C 
ATOM      9  O   UNL     1       3.447   6.285  17.487  0.00  0.00    +0.000 OA
ATOM     10  H   UNL     1       5.080   3.669  18.295  0.00  0.00    +0.000 HD
BRANCH   7  17
ATOM     11  C   UNL     1       2.426   2.014  17.609  0.00  0.00    +0.000 C 
ATOM     12  C   UNL     1       2.354   2.805  18.889  0.00  0.00    +0.000 A 
ATOM     13  C   UNL     1       1.362   2.434  19.822  0.00  0.00    +0.000 A 
ATOM     14  C   UNL     1       1.210   3.119  21.026  0.00  0.00    +0.000 A 
ATOM     15  C   UNL     1       2.020   4.208  21.301  0.00  0.00    +0.000 A 
ATOM     16  C   UNL     1       2.999   4.594  20.386  0.00  0.00    +0.000 A 
ATOM     17  C   UNL     1       3.207   3.890  19.190  0.00  0.00    +0.000 A 
ENDBRANCH   7  17
ENDBRANCH   6   8
ENDBRANCH   1   6
BRANCH   3  18
ATOM     18  C   UNL     1       8.289   9.465  17.872  0.00  0.00    +0.000 C 
BRANCH  18  19
ATOM     19  O   UNL     1       9.128   9.862  18.970  0.00  0.00    +0.000 OA
BRANCH  19  20
ATOM     20  C   UNL     1       9.833  10.994  18.763  0.00  0.00    +0.000 C 
ATOM     21  O   UNL     1      10.486  11.259  17.764  0.00  0.00    +0.000 OA
BRANCH  20  22
ATOM     22  C   UNL     1       9.716  11.941  19.906  0.00  0.00    +0.000 A 
ATOM     23  C   UNL     1       9.132  11.431  21.079  0.00  0.00    +0.000 A 
ATOM     24  C   UNL     1       8.948  12.253  22.188  0.00  0.00    +0.000 A 
ATOM     25 CL   UNL     1       8.208  11.623  23.608  0.00  0.00    +0.000 Cl
ATOM     26  C   UNL     1       9.343  13.588  22.152  0.00  0.00    +0.000 A 
ATOM     27  C   UNL     1       9.911  14.111  20.990  0.00  0.00    +0.000 A 
ATOM     28  C   UNL     1      10.089  13.294  19.865  0.00  0.00    +0.000 A 
BRANCH  28  29
ATOM     29  O   UNL     1      10.587  13.857  18.725  0.00  0.00    +0.000 OA
ATOM     30  H   UNL     1       9.952  14.500  18.370  0.00  0.00    +0.000 HD
ENDBRANCH  28  29
ENDBRANCH  20  22
ENDBRANCH  19  20
ENDBRANCH  18  19
ENDBRANCH   3  18
TORSDOF 8
ENDMDL
MODEL 4
REMARK VINA RESULT:      -7.5      2.960      4.195
REMARK  Name = 
REMARK  9 active torsions:
REMARK  status: ('A' for Active; 'I' for Inactive)
REMARK    1  A    between atoms: C_1  and  C_2
REMARK    2  A    between atoms: C_7  and  N_8
REMARK    3  A    between atoms: C_9  and  C_11
REMARK    4  A    between atoms: C_11  and  C_12
REMARK    5  A    between atoms: C_14  and  C_15
REMARK    6  A    between atoms: C_15  and  O_16
REMARK    7  A    between atoms: O_16  and  C_17
REMARK    8  A    between atoms: C_17  and  C_19
REMARK    9  A    between atoms: C_25  and  O_26
REMARK                            x       y       z     vdW  Elec       q    Type
REMARK                         _______ _______ _______ _____ _____    ______ ____
ROOT
ATOM      1  C   UNL     1       2.233   7.257  18.550  0.00  0.00    +0.000 A 
ATOM      2  N   UNL     1       2.188   5.997  18.165  0.00  0.00    +0.000 NA
ATOM      3  C   UNL     1       2.068   5.165  19.269  0.00  0.00    +0.000 A 
ATOM      4  C   UNL     1       1.976   5.830  20.478  0.00  0.00    +0.000 A 
ATOM      5  S   UNL     1       2.058   7.524  20.235  0.00  0.00    +0.000 S 
ENDROOT
BRANCH   1   6
ATOM      6  C   UNL     1       2.441   8.391  17.610  0.00  0.00    +0.000 C 
BRANCH   6   8
ATOM      7  N   UNL     1       0.274   9.375  18.312  0.00  0.00    +0.000 N 
ATOM      8  C   UNL     1       1.609   9.606  17.998  0.00  0.00    +0.000 C 
ATOM      9  O   UNL     1       2.186  10.685  18.107  0.00  0.00    +0.000 OA
ATOM     10  H   UNL     1      -0.028   8.400  18.307  0.00  0.00    +0.000 HD
BRANCH   7  17
ATOM     11  C   UNL     1      -2.093   9.908  16.595  0.00  0.00    +0.000 C 
ATOM     12  C   UNL     1      -1.828  10.584  17.915  0.00  0.00    +0.000 A 
ATOM     13  C   UNL     1      -2.784  11.519  18.364  0.00  0.00    +0.000 A 
ATOM     14  C   UNL     1      -2.615  12.206  19.565  0.00  0.00    +0.000 A 
ATOM     15  C   UNL     1      -1.470  11.999  20.316  0.00  0.00    +0.000 A 
ATOM     16  C   UNL     1      -0.510  11.086  19.882  0.00  0.00    +0.000 A 
ATOM     17  C   UNL     1      -0.681  10.344  18.704  0.00  0.00    +0.000 A 
ENDBRANCH   7  17
ENDBRANCH   6   8
ENDBRANCH   1   6
BRANCH   3  18
ATOM     18  C   UNL     1       2.101   3.681  19.068  0.00  0.00    +0.000 C 
BRANCH  18  19
ATOM     19  O   UNL     1       3.193   3.245  18.240  0.00  0.00    +0.000 OA
BRANCH  19  20
ATOM     20  C   UNL     1       4.414   3.376  18.799  0.00  0.00    +0.000 C 
ATOM     21  O   UNL     1       4.761   2.916  19.878  0.00  0.00    +0.000 OA
BRANCH  20  22
ATOM     22  C   UNL     1       5.346   4.146  17.931  0.00  0.00    +0.000 A 
ATOM     23  C   UNL     1       5.236   3.921  16.548  0.00  0.00    +0.000 A 
ATOM     24  C   UNL     1       6.090   4.569  15.658  0.00  0.00    +0.000 A 
ATOM     25 CL   UNL     1       5.962   4.265  13.970  0.00  0.00    +0.000 Cl
ATOM     26  C   UNL     1       7.061   5.451  16.127  0.00  0.00    +0.000 A 
ATOM     27  C   UNL     1       7.190   5.673  17.499  0.00  0.00    +0.000 A 
ATOM     28  C   UNL     1       6.343   5.016  18.401  0.00  0.00    +0.000 A 
BRANCH  28  29
ATOM     29  O   UNL     1       6.543   5.207  19.738  0.00  0.00    +0.000 OA
ATOM     30  H   UNL     1       7.070   4.477  20.101  0.00  0.00    +0.000 HD
ENDBRANCH  28  29
ENDBRANCH  20  22
ENDBRANCH  19  20
ENDBRANCH  18  19
ENDBRANCH   3  18
TORSDOF 8
ENDMDL
MODEL 5
REMARK VINA RESULT:      -7.4      4.403      6.417
REMARK  Name = 
REMARK  9 active torsions:
REMARK  status: ('A' for Active; 'I' for Inactive)
REMARK    1  A    between atoms: C_1  and  C_2
REMARK    2  A    between atoms: C_7  and  N_8
REMARK    3  A    between atoms: C_9  and  C_11
REMARK    4  A    between atoms: C_11  and  C_12
REMARK    5  A    between atoms: C_14  and  C_15
REMARK    6  A    between atoms: C_15  and  O_16
REMARK    7  A    between atoms: O_16  and  C_17
REMARK    8  A    between atoms: C_17  and  C_19
REMARK    9  A    between atoms: C_25  and  O_26
REMARK                            x       y       z     vdW  Elec       q    Type
REMARK                         _______ _______ _______ _____ _____    ______ ____
ROOT
ATOM      1  C   UNL     1       6.329   6.468  17.365  0.00  0.00    +0.000 A 
ATOM      2  N   UNL     1       6.657   7.709  17.067  0.00  0.00    +0.000 NA
ATOM      3  C   UNL     1       7.763   8.103  17.806  0.00  0.00    +0.000 A 
ATOM      4  C   UNL     1       8.281   7.116  18.626  0.00  0.00    +0.000 A 
ATOM      5  S   UNL     1       7.362   5.678  18.483  0.00  0.00    +0.000 S 
ENDROOT
BRANCH   1   6
ATOM      6  C   UNL     1       5.137   5.780  16.802  0.00  0.00    +0.000 C 
BRANCH   6   8
ATOM      7  N   UNL     1       3.880   4.220  18.265  0.00  0.00    +0.000 N 
ATOM      8  C   UNL     1       4.071   5.537  17.862  0.00  0.00    +0.000 C 
ATOM      9  O   UNL     1       3.525   6.518  18.362  0.00  0.00    +0.000 OA
ATOM     10  H   UNL     1       4.506   3.527  17.854  0.00  0.00    +0.000 HD
BRANCH   7  17
ATOM     11  C   UNL     1       4.723   2.208  20.284  0.00  0.00    +0.000 C 
ATOM     12  C   UNL     1       3.351   2.827  20.220  0.00  0.00    +0.000 A 
ATOM     13  C   UNL     1       2.418   2.431  21.201  0.00  0.00    +0.000 A 
ATOM     14  C   UNL     1       1.120   2.939  21.211  0.00  0.00    +0.000 A 
ATOM     15  C   UNL     1       0.722   3.820  20.219  0.00  0.00    +0.000 A 
ATOM     16  C   UNL     1       1.630   4.215  19.236  0.00  0.00    +0.000 A 
ATOM     17  C   UNL     1       2.956   3.759  19.234  0.00  0.00    +0.000 A 
ENDBRANCH   7  17
ENDBRANCH   6   8
ENDBRANCH   1   6
BRANCH   3  18
ATOM     18  C   UNL     1       8.245   9.516  17.698  0.00  0.00    +0.000 C 
BRANCH  18  19
ATOM     19  O   UNL     1       8.918   9.978  18.882  0.00  0.00    +0.000 OA
BRANCH  19  20
ATOM     20  C   UNL     1       9.748  11.025  18.689  0.00  0.00    +0.000 C 
ATOM     21  O   UNL     1      10.485  11.187  17.728  0.00  0.00    +0.000 OA
BRANCH  20  22
ATOM     22  C   UNL     1       9.658  12.019  19.794  0.00  0.00    +0.000 A 
ATOM     23  C   UNL     1       9.917  13.357  19.450  0.00  0.00    +0.000 A 
ATOM     24  C   UNL     1       9.892  14.352  20.424  0.00  0.00    +0.000 A 
ATOM     25 CL   UNL     1      10.237  15.982  19.994  0.00  0.00    +0.000 Cl
ATOM     26  C   UNL     1       9.606  14.036  21.750  0.00  0.00    +0.000 A 
ATOM     27  C   UNL     1       9.360  12.710  22.108  0.00  0.00    +0.000 A 
ATOM     28  C   UNL     1       9.395  11.701  21.136  0.00  0.00    +0.000 A 
BRANCH  28  29
ATOM     29  O   UNL     1       9.216  10.408  21.536  0.00  0.00    +0.000 OA
ATOM     30  H   UNL     1       8.866  10.386  22.441  0.00  0.00    +0.000 HD
ENDBRANCH  28  29
ENDBRANCH  20  22
ENDBRANCH  19  20
ENDBRANCH  18  19
ENDBRANCH   3  18
TORSDOF 8
ENDMDL
MODEL 6
REMARK VINA RESULT:      -7.4      4.574      6.744
REMARK  Name = 
REMARK  9 active torsions:
REMARK  status: ('A' for Active; 'I' for Inactive)
REMARK    1  A    between atoms: C_1  and  C_2
REMARK    2  A    between atoms: C_7  and  N_8
REMARK    3  A    between atoms: C_9  and  C_11
REMARK    4  A    between atoms: C_11  and  C_12
REMARK    5  A    between atoms: C_14  and  C_15
REMARK    6  A    between atoms: C_15  and  O_16
REMARK    7  A    between atoms: O_16  and  C_17
REMARK    8  A    between atoms: C_17  and  C_19
REMARK    9  A    between atoms: C_25  and  O_26
REMARK                            x       y       z     vdW  Elec       q    Type
REMARK                         _______ _______ _______ _____ _____    ______ ____
ROOT
ATOM      1  C   UNL     1       6.514   6.682  17.108  0.00  0.00    +0.000 A 
ATOM      2  N   UNL     1       6.872   7.942  16.969  0.00  0.00    +0.000 NA
ATOM      3  C   UNL     1       7.883   8.255  17.866  0.00  0.00    +0.000 A 
ATOM      4  C   UNL     1       8.305   7.191  18.644  0.00  0.00    +0.000 A 
ATOM      5  S   UNL     1       7.412   5.781  18.259  0.00  0.00    +0.000 S 
ENDROOT
BRANCH   1   6
ATOM      6  C   UNL     1       5.399   6.060  16.347  0.00  0.00    +0.000 C 
BRANCH   6   8
ATOM      7  N   UNL     1       3.979   4.300  17.369  0.00  0.00    +0.000 N 
ATOM      8  C   UNL     1       4.246   5.661  17.259  0.00  0.00    +0.000 C 
ATOM      9  O   UNL     1       3.697   6.546  17.911  0.00  0.00    +0.000 OA
ATOM     10  H   UNL     1       4.611   3.674  16.868  0.00  0.00    +0.000 HD
BRANCH   7  17
ATOM     11  C   UNL     1       4.707   2.788  19.822  0.00  0.00    +0.000 C 
ATOM     12  C   UNL     1       3.295   3.005  19.343  0.00  0.00    +0.000 A 
ATOM     13  C   UNL     1       2.256   2.465  20.129  0.00  0.00    +0.000 A 
ATOM     14  C   UNL     1       0.920   2.602  19.756  0.00  0.00    +0.000 A 
ATOM     15  C   UNL     1       0.604   3.246  18.571  0.00  0.00    +0.000 A 
ATOM     16  C   UNL     1       1.619   3.778  17.777  0.00  0.00    +0.000 A 
ATOM     17  C   UNL     1       2.967   3.699  18.157  0.00  0.00    +0.000 A 
ENDBRANCH   7  17
ENDBRANCH   6   8
ENDBRANCH   1   6
BRANCH   3  18
ATOM     18  C   UNL     1       8.371   9.669  17.950  0.00  0.00    +0.000 C 
BRANCH  18  19
ATOM     19  O   UNL     1       9.324   9.878  19.005  0.00  0.00    +0.000 OA
BRANCH  19  20
ATOM     20  C   UNL     1      10.070  10.996  18.881  0.00  0.00    +0.000 C 
ATOM     21  O   UNL     1      10.807  11.264  17.943  0.00  0.00    +0.000 OA
BRANCH  20  22
ATOM     22  C   UNL     1       9.883  11.923  20.031  0.00  0.00    +0.000 A 
ATOM     23  C   UNL     1       9.156  11.420  21.124  0.00  0.00    +0.000 A 
ATOM     24  C   UNL     1       8.900  12.226  22.230  0.00  0.00    +0.000 A 
ATOM     25 CL   UNL     1       7.986  11.605  23.550  0.00  0.00    +0.000 Cl
ATOM     26  C   UNL     1       9.364  13.538  22.271  0.00  0.00    +0.000 A 
ATOM     27  C   UNL     1      10.075  14.055  21.187  0.00  0.00    +0.000 A 
ATOM     28  C   UNL     1      10.327  13.254  20.065  0.00  0.00    +0.000 A 
BRANCH  28  29
ATOM     29  O   UNL     1      10.967  13.815  18.997  0.00  0.00    +0.000 OA
ATOM     30  H   UNL     1      11.647  14.435  19.308  0.00  0.00    +0.000 HD
ENDBRANCH  28  29
ENDBRANCH  20  22
ENDBRANCH  19  20
ENDBRANCH  18  19
ENDBRANCH   3  18
TORSDOF 8
ENDMDL
MODEL 7
REMARK VINA RESULT:      -7.3      4.188      6.134
REMARK  Name = 
REMARK  9 active torsions:
REMARK  status: ('A' for Active; 'I' for Inactive)
REMARK    1  A    between atoms: C_1  and  C_2
REMARK    2  A    between atoms: C_7  and  N_8
REMARK    3  A    between atoms: C_9  and  C_11
REMARK    4  A    between atoms: C_11  and  C_12
REMARK    5  A    between atoms: C_14  and  C_15
REMARK    6  A    between atoms: C_15  and  O_16
REMARK    7  A    between atoms: O_16  and  C_17
REMARK    8  A    between atoms: C_17  and  C_19
REMARK    9  A    between atoms: C_25  and  O_26
REMARK                            x       y       z     vdW  Elec       q    Type
REMARK                         _______ _______ _______ _____ _____    ______ ____
ROOT
ATOM      1  C   UNL     1       6.616   6.234  16.963  0.00  0.00    +0.000 A 
ATOM      2  N   UNL     1       6.871   7.514  16.779  0.00  0.00    +0.000 NA
ATOM      3  C   UNL     1       7.752   7.971  17.750  0.00  0.00    +0.000 A 
ATOM      4  C   UNL     1       8.184   6.996  18.632  0.00  0.00    +0.000 A 
ATOM      5  S   UNL     1       7.467   5.487  18.252  0.00  0.00    +0.000 S 
ENDROOT
BRANCH   1   6
ATOM      6  C   UNL     1       5.646   5.468  16.137  0.00  0.00    +0.000 C 
BRANCH   6   8
ATOM      7  N   UNL     1       4.353   5.268  18.245  0.00  0.00    +0.000 N 
ATOM      8  C   UNL     1       4.636   4.721  16.998  0.00  0.00    +0.000 C 
ATOM      9  O   UNL     1       4.066   3.752  16.503  0.00  0.00    +0.000 OA
ATOM     10  H   UNL     1       4.807   6.156  18.462  0.00  0.00    +0.000 HD
BRANCH   7  17
ATOM     11  C   UNL     1       2.328   7.056  19.486  0.00  0.00    +0.000 C 
ATOM     12  C   UNL     1       2.460   5.585  19.781  0.00  0.00    +0.000 A 
ATOM     13  C   UNL     1       1.544   5.026  20.696  0.00  0.00    +0.000 A 
ATOM     14  C   UNL     1       1.600   3.677  21.043  0.00  0.00    +0.000 A 
ATOM     15  C   UNL     1       2.596   2.875  20.511  0.00  0.00    +0.000 A 
ATOM     16  C   UNL     1       3.515   3.414  19.611  0.00  0.00    +0.000 A 
ATOM     17  C   UNL     1       3.449   4.755  19.207  0.00  0.00    +0.000 A 
ENDBRANCH   7  17
ENDBRANCH   6   8
ENDBRANCH   1   6
BRANCH   3  18
ATOM     18  C   UNL     1       8.099   9.427  17.791  0.00  0.00    +0.000 C 
BRANCH  18  19
ATOM     19  O   UNL     1       9.059   9.752  18.809  0.00  0.00    +0.000 OA
BRANCH  19  20
ATOM     20  C   UNL     1       9.686  10.936  18.640  0.00  0.00    +0.000 C 
ATOM     21  O   UNL     1      10.515  11.190  17.777  0.00  0.00    +0.000 OA
BRANCH  20  22
ATOM     22  C   UNL     1       9.235  11.953  19.628  0.00  0.00    +0.000 A 
ATOM     23  C   UNL     1       9.001  13.246  19.128  0.00  0.00    +0.000 A 
ATOM     24  C   UNL     1       8.611  14.273  19.985  0.00  0.00    +0.000 A 
ATOM     25 CL   UNL     1       8.353  15.856  19.363  0.00  0.00    +0.000 Cl
ATOM     26  C   UNL     1       8.444  14.032  21.346  0.00  0.00    +0.000 A 
ATOM     27  C   UNL     1       8.686  12.757  21.859  0.00  0.00    +0.000 A 
ATOM     28  C   UNL     1       9.090  11.721  21.005  0.00  0.00    +0.000 A 
BRANCH  28  29
ATOM     29  O   UNL     1       9.382  10.505  21.553  0.00  0.00    +0.000 OA
ATOM     30  H   UNL     1       8.570  10.084  21.877  0.00  0.00    +0.000 HD
ENDBRANCH  28  29
ENDBRANCH  20  22
ENDBRANCH  19  20
ENDBRANCH  18  19
ENDBRANCH   3  18
TORSDOF 8
ENDMDL
MODEL 8
REMARK VINA RESULT:      -7.3      4.838      7.103
REMARK  Name = 
REMARK  9 active torsions:
REMARK  status: ('A' for Active; 'I' for Inactive)
REMARK    1  A    between atoms: C_1  and  C_2
REMARK    2  A    between atoms: C_7  and  N_8
REMARK    3  A    between atoms: C_9  and  C_11
REMARK    4  A    between atoms: C_11  and  C_12
REMARK    5  A    between atoms: C_14  and  C_15
REMARK    6  A    between atoms: C_15  and  O_16
REMARK    7  A    between atoms: O_16  and  C_17
REMARK    8  A    between atoms: C_17  and  C_19
REMARK    9  A    between atoms: C_25  and  O_26
REMARK                            x       y       z     vdW  Elec       q    Type
REMARK                         _______ _______ _______ _____ _____    ______ ____
ROOT
ATOM      1  C   UNL     1       7.551   6.503  18.070  0.00  0.00    +0.000 A 
ATOM      2  N   UNL     1       8.393   7.228  18.778  0.00  0.00    +0.000 NA
ATOM      3  C   UNL     1       8.328   8.557  18.384  0.00  0.00    +0.000 A 
ATOM      4  C   UNL     1       7.388   8.816  17.402  0.00  0.00    +0.000 A 
ATOM      5  S   UNL     1       6.583   7.372  16.952  0.00  0.00    +0.000 S 
ENDROOT
BRANCH   1   6
ATOM      6  C   UNL     1       7.440   5.025  18.196  0.00  0.00    +0.000 C 
BRANCH   6   8
ATOM      7  N   UNL     1       5.197   4.047  17.785  0.00  0.00    +0.000 N 
ATOM      8  C   UNL     1       6.071   4.604  18.713  0.00  0.00    +0.000 C 
ATOM      9  O   UNL     1       5.864   4.685  19.921  0.00  0.00    +0.000 OA
ATOM     10  H   UNL     1       5.563   3.919  16.841  0.00  0.00    +0.000 HD
BRANCH   7  17
ATOM     11  C   UNL     1       2.936   5.972  17.936  0.00  0.00    +0.000 C 
ATOM     12  C   UNL     1       2.795   4.479  18.077  0.00  0.00    +0.000 A 
ATOM     13  C   UNL     1       1.494   3.970  18.277  0.00  0.00    +0.000 A 
ATOM     14  C   UNL     1       1.269   2.603  18.435  0.00  0.00    +0.000 A 
ATOM     15  C   UNL     1       2.342   1.728  18.436  0.00  0.00    +0.000 A 
ATOM     16  C   UNL     1       3.636   2.216  18.249  0.00  0.00    +0.000 A 
ATOM     17  C   UNL     1       3.884   3.580  18.036  0.00  0.00    +0.000 A 
ENDBRANCH   7  17
ENDBRANCH   6   8
ENDBRANCH   1   6
BRANCH   3  18
ATOM     18  C   UNL     1       9.278   9.544  18.990  0.00  0.00    +0.000 C 
BRANCH  18  19
ATOM     19  O   UNL     1       9.026  10.898  18.581  0.00  0.00    +0.000 OA
BRANCH  19  20
ATOM     20  C   UNL     1       9.639  11.839  19.330  0.00  0.00    +0.000 C 
ATOM     21  O   UNL     1       9.728  11.837  20.550  0.00  0.00    +0.000 OA
BRANCH  20  22
ATOM     22  C   UNL     1      10.244  12.912  18.494  0.00  0.00    +0.000 A 
ATOM     23  C   UNL     1       9.607  14.164  18.533  0.00  0.00    +0.000 A 
ATOM     24  C   UNL     1      10.080  15.219  17.756  0.00  0.00    +0.000 A 
ATOM     25 CL   UNL     1       9.275  16.739  17.793  0.00  0.00    +0.000 Cl
ATOM     26  C   UNL     1      11.192  15.049  16.935  0.00  0.00    +0.000 A 
ATOM     27  C   UNL     1      11.826  13.807  16.876  0.00  0.00    +0.000 A 
ATOM     28  C   UNL     1      11.349  12.737  17.646  0.00  0.00    +0.000 A 
BRANCH  28  29
ATOM     29  O   UNL     1      11.953  11.520  17.511  0.00  0.00    +0.000 OA
ATOM     30  H   UNL     1      12.834  11.630  17.118  0.00  0.00    +0.000 HD
ENDBRANCH  28  29
ENDBRANCH  20  22
ENDBRANCH  19  20
ENDBRANCH  18  19
ENDBRANCH   3  18
TORSDOF 8
ENDMDL
MODEL 9
REMARK VINA RESULT:      -7.3      4.672      6.589
REMARK  Name = 
REMARK  9 active torsions:
REMARK  status: ('A' for Active; 'I' for Inactive)
REMARK    1  A    between atoms: C_1  and  C_2
REMARK    2  A    between atoms: C_7  and  N_8
REMARK    3  A    between atoms: C_9  and  C_11
REMARK    4  A    between atoms: C_11  and  C_12
REMARK    5  A    between atoms: C_14  and  C_15
REMARK    6  A    between atoms: C_15  and  O_16
REMARK    7  A    between atoms: O_16  and  C_17
REMARK    8  A    between atoms: C_17  and  C_19
REMARK    9  A    between atoms: C_25  and  O_26
REMARK                            x       y       z     vdW  Elec       q    Type
REMARK                         _______ _______ _______ _____ _____    ______ ____
ROOT
ATOM      1  C   UNL     1       6.824   6.814  17.301  0.00  0.00    +0.000 A 
ATOM      2  N   UNL     1       7.199   8.063  17.112  0.00  0.00    +0.000 NA
ATOM      3  C   UNL     1       8.135   8.432  18.068  0.00  0.00    +0.000 A 
ATOM      4  C   UNL     1       8.486   7.420  18.943  0.00  0.00    +0.000 A 
ATOM      5  S   UNL     1       7.619   5.988  18.576  0.00  0.00    +0.000 S 
ENDROOT
BRANCH   1   6
ATOM      6  C   UNL     1       5.771   6.146  16.491  0.00  0.00    +0.000 C 
BRANCH   6   8
ATOM      7  N   UNL     1       4.280   4.899  18.033  0.00  0.00    +0.000 N 
ATOM      8  C   UNL     1       4.457   6.037  17.253  0.00  0.00    +0.000 C 
ATOM      9  O   UNL     1       3.689   6.995  17.213  0.00  0.00    +0.000 OA
ATOM     10  H   UNL     1       5.068   4.252  18.073  0.00  0.00    +0.000 HD
BRANCH   7  17
ATOM     11  C   UNL     1       2.580   2.559  17.348  0.00  0.00    +0.000 C 
ATOM     12  C   UNL     1       2.352   3.459  18.534  0.00  0.00    +0.000 A 
ATOM     13  C   UNL     1       1.265   3.151  19.379  0.00  0.00    +0.000 A 
ATOM     14  C   UNL     1       0.967   3.937  20.491  0.00  0.00    +0.000 A 
ATOM     15  C   UNL     1       1.726   5.066  20.753  0.00  0.00    +0.000 A 
ATOM     16  C   UNL     1       2.797   5.391  19.922  0.00  0.00    +0.000 A 
ATOM     17  C   UNL     1       3.150   4.587  18.828  0.00  0.00    +0.000 A 
ENDBRANCH   7  17
ENDBRANCH   6   8
ENDBRANCH   1   6
BRANCH   3  18
ATOM     18  C   UNL     1       8.622   9.848  18.102  0.00  0.00    +0.000 C 
BRANCH  18  19
ATOM     19  O   UNL     1       9.216  10.213  19.359  0.00  0.00    +0.000 OA
BRANCH  19  20
ATOM     20  C   UNL     1      10.189  11.145  19.276  0.00  0.00    +0.000 C 
ATOM     21  O   UNL     1      11.136  11.124  18.503  0.00  0.00    +0.000 OA
BRANCH  20  22
ATOM     22  C   UNL     1       9.979  12.260  20.240  0.00  0.00    +0.000 A 
ATOM     23  C   UNL     1      10.465  13.519  19.849  0.00  0.00    +0.000 A 
ATOM     24  C   UNL     1      10.346  14.615  20.701  0.00  0.00    +0.000 A 
ATOM     25 CL   UNL     1      10.969  16.145  20.221  0.00  0.00    +0.000 Cl
ATOM     26  C   UNL     1       9.740  14.479  21.947  0.00  0.00    +0.000 A 
ATOM     27  C   UNL     1       9.265  13.231  22.353  0.00  0.00    +0.000 A 
ATOM     28  C   UNL     1       9.392  12.121  21.507  0.00  0.00    +0.000 A 
BRANCH  28  29
ATOM     29  O   UNL     1       8.976  10.904  21.966  0.00  0.00    +0.000 OA
ATOM     30  H   UNL     1       9.122  10.226  21.286  0.00  0.00    +0.000 HD
ENDBRANCH  28  29
ENDBRANCH  20  22
ENDBRANCH  19  20
ENDBRANCH  18  19
ENDBRANCH   3  18
TORSDOF 8
ENDMDL
