MODEL 1
REMARK VINA RESULT:      -3.6      0.000      0.000
REMARK  Name = 
REMARK  3 active torsions:
REMARK  status: ('A' for Active; 'I' for Inactive)
REMARK    1  A    between atoms: C_2  and  O_3
REMARK    2  A    between atoms: O_3  and  C_4
REMARK    3  A    between atoms: C_4  and  C_5
REMARK                            x       y       z     vdW  Elec       q    Type
REMARK                         _______ _______ _______ _____ _____    ______ ____
ROOT
ATOM      1  O   UNL     1       7.901   4.381  16.670  0.00  0.00    +0.000 OA
ENDROOT
BRANCH   1   2
ATOM      2  C   UNL     1       7.152   4.728  15.572  0.00  0.00    +0.000 C 
ATOM      3  C   UNL     1       5.834   4.010  15.600  0.00  0.00    +0.000 C 
ATOM      4  O   UNL     1       7.479   5.505  14.682  0.00  0.00    +0.000 OA
ENDBRANCH   1   2
BRANCH   1   6
ATOM      5  C   UNL     1       7.566   6.122  18.258  0.00  0.00    +0.000 C 
ATOM      6  C   UNL     1       7.460   4.834  17.918  0.00  0.00    +0.000 C 
ENDBRANCH   1   6
TORSDOF 2
ENDMDL
MODEL 2
REMARK VINA RESULT:      -3.5     11.075     11.655
REMARK  Name = 
REMARK  3 active torsions:
REMARK  status: ('A' for Active; 'I' for Inactive)
REMARK    1  A    between atoms: C_2  and  O_3
REMARK    2  A    between atoms: O_3  and  C_4
REMARK    3  A    between atoms: C_4  and  C_5
REMARK                            x       y       z     vdW  Elec       q    Type
REMARK                         _______ _______ _______ _____ _____    ______ ____
ROOT
ATOM      1  O   UNL     1       9.713   4.115  27.594  0.00  0.00    +0.000 OA
ENDROOT
BRANCH   1   2
ATOM      2  C   UNL     1       8.361   4.353  27.541  0.00  0.00    +0.000 C 
ATOM      3  C   UNL     1       8.016   5.550  28.379  0.00  0.00    +0.000 C 
ATOM      4  O   UNL     1       7.531   3.705  26.915  0.00  0.00    +0.000 OA
ENDBRANCH   1   2
BRANCH   1   6
ATOM      5  C   UNL     1      11.869   5.058  27.946  0.00  0.00    +0.000 C 
ATOM      6  C   UNL     1      10.539   5.180  27.970  0.00  0.00    +0.000 C 
ENDBRANCH   1   6
TORSDOF 2
ENDMDL
MODEL 3
REMARK VINA RESULT:      -3.4     11.411     11.778
REMARK  Name = 
REMARK  3 active torsions:
REMARK  status: ('A' for Active; 'I' for Inactive)
REMARK    1  A    between atoms: C_2  and  O_3
REMARK    2  A    between atoms: O_3  and  C_4
REMARK    3  A    between atoms: C_4  and  C_5
REMARK                            x       y       z     vdW  Elec       q    Type
REMARK                         _______ _______ _______ _____ _____    ______ ____
ROOT
ATOM      1  O   UNL     1       8.189   4.089  27.382  0.00  0.00    +0.000 OA
ENDROOT
BRANCH   1   2
ATOM      2  C   UNL     1       7.126   4.702  28.002  0.00  0.00    +0.000 C 
ATOM      3  C   UNL     1       7.586   5.950  28.697  0.00  0.00    +0.000 C 
ATOM      4  O   UNL     1       5.964   4.315  28.006  0.00  0.00    +0.000 OA
ENDBRANCH   1   2
BRANCH   1   6
ATOM      5  C   UNL     1      10.519   3.735  27.712  0.00  0.00    +0.000 C 
ATOM      6  C   UNL     1       9.470   4.562  27.686  0.00  0.00    +0.000 C 
ENDBRANCH   1   6
TORSDOF 2
ENDMDL
MODEL 4
REMARK VINA RESULT:      -3.4      1.237      1.859
REMARK  Name = 
REMARK  3 active torsions:
REMARK  status: ('A' for Active; 'I' for Inactive)
REMARK    1  A    between atoms: C_2  and  O_3
REMARK    2  A    between atoms: O_3  and  C_4
REMARK    3  A    between atoms: C_4  and  C_5
REMARK                            x       y       z     vdW  Elec       q    Type
REMARK                         _______ _______ _______ _____ _____    ______ ____
ROOT
ATOM      1  O   UNL     1       7.008   6.143  16.159  0.00  0.00    +0.000 OA
ENDROOT
BRANCH   1   2
ATOM      2  C   UNL     1       7.175   4.789  16.321  0.00  0.00    +0.000 C 
ATOM      3  C   UNL     1       6.148   4.044  15.520  0.00  0.00    +0.000 C 
ATOM      4  O   UNL     1       8.026   4.237  17.009  0.00  0.00    +0.000 OA
ENDBRANCH   1   2
BRANCH   1   6
ATOM      5  C   UNL     1       7.734   7.882  17.612  0.00  0.00    +0.000 C 
ATOM      6  C   UNL     1       6.861   6.915  17.316  0.00  0.00    +0.000 C 
ENDBRANCH   1   6
TORSDOF 2
ENDMDL
MODEL 5
REMARK VINA RESULT:      -3.3      2.450      4.112
REMARK  Name = 
REMARK  3 active torsions:
REMARK  status: ('A' for Active; 'I' for Inactive)
REMARK    1  A    between atoms: C_2  and  O_3
REMARK    2  A    between atoms: O_3  and  C_4
REMARK    3  A    between atoms: C_4  and  C_5
REMARK                            x       y       z     vdW  Elec       q    Type
REMARK                         _______ _______ _______ _____ _____    ______ ____
ROOT
ATOM      1  O   UNL     1       6.410   3.619  13.889  0.00  0.00    +0.000 OA
ENDROOT
BRANCH   1   2
ATOM      2  C   UNL     1       6.731   4.838  14.435  0.00  0.00    +0.000 C 
ATOM      3  C   UNL     1       5.548   5.402  15.167  0.00  0.00    +0.000 C 
ATOM      4  O   UNL     1       7.812   5.410  14.356  0.00  0.00    +0.000 OA
ENDBRANCH   1   2
BRANCH   1   6
ATOM      5  C   UNL     1       5.146   3.198  11.917  0.00  0.00    +0.000 C 
ATOM      6  C   UNL     1       6.298   3.549  12.496  0.00  0.00    +0.000 C 
ENDBRANCH   1   6
TORSDOF 2
ENDMDL
MODEL 6
REMARK VINA RESULT:      -3.3      2.014      3.005
REMARK  Name = 
REMARK  3 active torsions:
REMARK  status: ('A' for Active; 'I' for Inactive)
REMARK    1  A    between atoms: C_2  and  O_3
REMARK    2  A    between atoms: O_3  and  C_4
REMARK    3  A    between atoms: C_4  and  C_5
REMARK                            x       y       z     vdW  Elec       q    Type
REMARK                         _______ _______ _______ _____ _____    ______ ____
ROOT
ATOM      1  O   UNL     1       6.799   4.639  19.071  0.00  0.00    +0.000 OA
ENDROOT
BRANCH   1   2
ATOM      2  C   UNL     1       7.509   5.002  17.952  0.00  0.00    +0.000 C 
ATOM      3  C   UNL     1       7.477   6.492  17.783  0.00  0.00    +0.000 C 
ATOM      4  O   UNL     1       8.093   4.247  17.183  0.00  0.00    +0.000 OA
ENDBRANCH   1   2
BRANCH   1   6
ATOM      5  C   UNL     1       4.443   4.324  19.193  0.00  0.00    +0.000 C 
ATOM      6  C   UNL     1       5.500   5.142  19.199  0.00  0.00    +0.000 C 
ENDBRANCH   1   6
TORSDOF 2
ENDMDL
MODEL 7
REMARK VINA RESULT:      -3.3      1.658      3.509
REMARK  Name = 
REMARK  3 active torsions:
REMARK  status: ('A' for Active; 'I' for Inactive)
REMARK    1  A    between atoms: C_2  and  O_3
REMARK    2  A    between atoms: O_3  and  C_4
REMARK    3  A    between atoms: C_4  and  C_5
REMARK                            x       y       z     vdW  Elec       q    Type
REMARK                         _______ _______ _______ _____ _____    ______ ____
ROOT
ATOM      1  O   UNL     1       7.563   4.624  17.798  0.00  0.00    +0.000 OA
ENDROOT
BRANCH   1   2
ATOM      2  C   UNL     1       7.587   5.571  18.793  0.00  0.00    +0.000 C 
ATOM      3  C   UNL     1       7.821   6.932  18.204  0.00  0.00    +0.000 C 
ATOM      4  O   UNL     1       7.442   5.371  19.993  0.00  0.00    +0.000 OA
ENDBRANCH   1   2
BRANCH   1   6
ATOM      5  C   UNL     1       6.418   4.069  15.787  0.00  0.00    +0.000 C 
ATOM      6  C   UNL     1       6.980   4.987  16.579  0.00  0.00    +0.000 C 
ENDBRANCH   1   6
TORSDOF 2
ENDMDL
MODEL 8
REMARK VINA RESULT:      -3.2      5.024      6.711
REMARK  Name = 
REMARK  3 active torsions:
REMARK  status: ('A' for Active; 'I' for Inactive)
REMARK    1  A    between atoms: C_2  and  O_3
REMARK    2  A    between atoms: O_3  and  C_4
REMARK    3  A    between atoms: C_4  and  C_5
REMARK                            x       y       z     vdW  Elec       q    Type
REMARK                         _______ _______ _______ _____ _____    ______ ____
ROOT
ATOM      1  O   UNL     1       4.304   3.714  11.510  0.00  0.00    +0.000 OA
ENDROOT
BRANCH   1   2
ATOM      2  C   UNL     1       5.352   2.893  11.851  0.00  0.00    +0.000 C 
ATOM      3  C   UNL     1       6.222   3.567  12.872  0.00  0.00    +0.000 C 
ATOM      4  O   UNL     1       5.575   1.773  11.407  0.00  0.00    +0.000 OA
ENDBRANCH   1   2
BRANCH   1   6
ATOM      5  C   UNL     1       2.904   4.140   9.634  0.00  0.00    +0.000 C 
ATOM      6  C   UNL     1       3.449   3.274  10.493  0.00  0.00    +0.000 C 
ENDBRANCH   1   6
TORSDOF 2
ENDMDL
MODEL 9
REMARK VINA RESULT:      -3.2      1.046      3.044
REMARK  Name = 
REMARK  3 active torsions:
REMARK  status: ('A' for Active; 'I' for Inactive)
REMARK    1  A    between atoms: C_2  and  O_3
REMARK    2  A    between atoms: O_3  and  C_4
REMARK    3  A    between atoms: C_4  and  C_5
REMARK                            x       y       z     vdW  Elec       q    Type
REMARK                         _______ _______ _______ _____ _____    ______ ____
ROOT
ATOM      1  O   UNL     1       7.270   5.717  15.543  0.00  0.00    +0.000 OA
ENDROOT
BRANCH   1   2
ATOM      2  C   UNL     1       7.332   5.273  16.842  0.00  0.00    +0.000 C 
ATOM      3  C   UNL     1       6.445   6.111  17.716  0.00  0.00    +0.000 C 
ATOM      4  O   UNL     1       8.002   4.336  17.260  0.00  0.00    +0.000 OA
ENDBRANCH   1   2
BRANCH   1   6
ATOM      5  C   UNL     1       5.652   4.327  14.487  0.00  0.00    +0.000 C 
ATOM      6  C   UNL     1       6.904   4.788  14.563  0.00  0.00    +0.000 C 
ENDBRANCH   1   6
TORSDOF 2
ENDMDL
