MODEL 1
REMARK VINA RESULT:      -8.2      0.000      0.000
REMARK  Name = 
REMARK  3 active torsions:
REMARK  status: ('A' for Active; 'I' for Inactive)
REMARK    1  A    between atoms: C_2  and  C_16
REMARK    2  A    between atoms: N_3  and  C_4
REMARK    3  A    between atoms: C_9  and  N_10
REMARK                            x       y       z     vdW  Elec       q    Type
REMARK                         _______ _______ _______ _____ _____    ______ ____
ROOT
ATOM      1  C   UNL     1       3.799   6.007  18.101  0.00  0.00    +0.000 A 
ATOM      2  C   UNL     1       4.519   6.708  17.119  0.00  0.00    +0.000 A 
ATOM      3  C   UNL     1       5.171   6.033  16.096  0.00  0.00    +0.000 A 
ATOM      4  C   UNL     1       5.154   4.648  16.080  0.00  0.00    +0.000 A 
ATOM      5  C   UNL     1       4.436   3.949  17.055  0.00  0.00    +0.000 A 
ATOM      6  C   UNL     1       3.690   4.597  18.061  0.00  0.00    +0.000 A 
ENDROOT
BRANCH   6   7
ATOM      7  N   UNL     1       2.892   3.855  18.923  0.00  0.00    +0.000 N 
ATOM      8  C   UNL     1       1.433   3.880  18.785  0.00  0.00    +0.000 C 
ATOM      9  C   UNL     1       0.846   4.047  20.184  0.00  0.00    +0.000 C 
ATOM     10  C   UNL     1       1.334   2.944  21.123  0.00  0.00    +0.000 C 
ATOM     11  C   UNL     1       2.861   2.803  21.095  0.00  0.00    +0.000 C 
ATOM     12  C   UNL     1       3.397   2.698  19.664  0.00  0.00    +0.000 C 
ENDBRANCH   6   7
BRANCH   1  15
ATOM     13  O   UNL     1       2.144   8.229  17.483  0.00  0.00    +0.000 OA
ATOM     14  C   UNL     1       2.277   7.840  18.637  0.00  0.00    +0.000 C 
ATOM     15  N   UNL     1       3.088   6.790  19.040  0.00  0.00    +0.000 N 
ATOM     16  H   UNL     1       3.275   6.592  20.011  0.00  0.00    +0.000 HD
BRANCH  14  17
ATOM     17  C   UNL     1       1.509   8.528  19.703  0.00  0.00    +0.000 A 
ATOM     18  C   UNL     1       1.442   8.056  21.017  0.00  0.00    +0.000 A 
ATOM     19  C   UNL     1       0.652   8.709  21.956  0.00  0.00    +0.000 A 
ATOM     20  C   UNL     1      -0.062   9.858  21.589  0.00  0.00    +0.000 A 
ATOM     21  C   UNL     1       0.047  10.344  20.291  0.00  0.00    +0.000 A 
ATOM     22  F   UNL     1      -0.625  11.452  19.956  0.00  0.00    +0.000 F 
ATOM     23  C   UNL     1       0.841   9.698  19.343  0.00  0.00    +0.000 A 
ENDBRANCH  14  17
ENDBRANCH   1  15
TORSDOF 3
ENDMDL
MODEL 2
REMARK VINA RESULT:      -8.2      3.040      6.136
REMARK  Name = 
REMARK  3 active torsions:
REMARK  status: ('A' for Active; 'I' for Inactive)
REMARK    1  A    between atoms: C_2  and  C_16
REMARK    2  A    between atoms: N_3  and  C_4
REMARK    3  A    between atoms: C_9  and  N_10
REMARK                            x       y       z     vdW  Elec       q    Type
REMARK                         _______ _______ _______ _____ _____    ______ ____
ROOT
ATOM      1  C   UNL     1       2.698   6.215  18.715  0.00  0.00    +0.000 A 
ATOM      2  C   UNL     1       2.511   7.573  19.027  0.00  0.00    +0.000 A 
ATOM      3  C   UNL     1       1.797   7.953  20.155  0.00  0.00    +0.000 A 
ATOM      4  C   UNL     1       1.216   6.978  20.949  0.00  0.00    +0.000 A 
ATOM      5  C   UNL     1       1.403   5.627  20.643  0.00  0.00    +0.000 A 
ATOM      6  C   UNL     1       2.192   5.195  19.556  0.00  0.00    +0.000 A 
ENDROOT
BRANCH   6   7
ATOM      7  N   UNL     1       2.449   3.842  19.376  0.00  0.00    +0.000 N 
ATOM      8  C   UNL     1       3.185   3.088  20.395  0.00  0.00    +0.000 C 
ATOM      9  C   UNL     1       4.224   2.236  19.670  0.00  0.00    +0.000 C 
ATOM     10  C   UNL     1       3.567   1.336  18.624  0.00  0.00    +0.000 C 
ATOM     11  C   UNL     1       2.639   2.124  17.691  0.00  0.00    +0.000 C 
ATOM     12  C   UNL     1       1.658   3.004  18.474  0.00  0.00    +0.000 C 
ENDBRANCH   6   7
BRANCH   1  15
ATOM     13  O   UNL     1       5.455   5.553  18.832  0.00  0.00    +0.000 OA
ATOM     14  C   UNL     1       4.857   5.587  17.764  0.00  0.00    +0.000 C 
ATOM     15  N   UNL     1       3.524   5.932  17.603  0.00  0.00    +0.000 N 
ATOM     16  H   UNL     1       3.109   6.081  16.696  0.00  0.00    +0.000 HD
BRANCH  14  17
ATOM     17  C   UNL     1       5.598   5.221  16.532  0.00  0.00    +0.000 A 
ATOM     18  C   UNL     1       6.977   5.409  16.391  0.00  0.00    +0.000 A 
ATOM     19  C   UNL     1       7.603   5.106  15.187  0.00  0.00    +0.000 A 
ATOM     20  C   UNL     1       6.855   4.590  14.121  0.00  0.00    +0.000 A 
ATOM     21  C   UNL     1       5.493   4.364  14.288  0.00  0.00    +0.000 A 
ATOM     22  F   UNL     1       4.791   3.854  13.270  0.00  0.00    +0.000 F 
ATOM     23  C   UNL     1       4.856   4.661  15.493  0.00  0.00    +0.000 A 
ENDBRANCH  14  17
ENDBRANCH   1  15
TORSDOF 3
ENDMDL
MODEL 3
REMARK VINA RESULT:      -8.2      4.889      7.510
REMARK  Name = 
REMARK  3 active torsions:
REMARK  status: ('A' for Active; 'I' for Inactive)
REMARK    1  A    between atoms: C_2  and  C_16
REMARK    2  A    between atoms: N_3  and  C_4
REMARK    3  A    between atoms: C_9  and  N_10
REMARK                            x       y       z     vdW  Elec       q    Type
REMARK                         _______ _______ _______ _____ _____    ______ ____
ROOT
ATOM      1  C   UNL     1       6.169   4.397  17.084  0.00  0.00    +0.000 A 
ATOM      2  C   UNL     1       7.460   4.900  17.318  0.00  0.00    +0.000 A 
ATOM      3  C   UNL     1       7.815   5.397  18.565  0.00  0.00    +0.000 A 
ATOM      4  C   UNL     1       6.863   5.447  19.571  0.00  0.00    +0.000 A 
ATOM      5  C   UNL     1       5.580   4.944  19.340  0.00  0.00    +0.000 A 
ATOM      6  C   UNL     1       5.202   4.352  18.116  0.00  0.00    +0.000 A 
ENDROOT
BRANCH   6   7
ATOM      7  N   UNL     1       3.956   3.754  17.988  0.00  0.00    +0.000 N 
ATOM      8  C   UNL     1       2.827   4.509  17.436  0.00  0.00    +0.000 C 
ATOM      9  C   UNL     1       1.619   4.242  18.331  0.00  0.00    +0.000 C 
ATOM     10  C   UNL     1       1.334   2.744  18.442  0.00  0.00    +0.000 C 
ATOM     11  C   UNL     1       2.588   1.950  18.826  0.00  0.00    +0.000 C 
ATOM     12  C   UNL     1       3.782   2.301  17.931  0.00  0.00    +0.000 C 
ENDBRANCH   6   7
BRANCH   1  15
ATOM     13  O   UNL     1       5.784   5.833  14.665  0.00  0.00    +0.000 OA
ATOM     14  C   UNL     1       5.793   4.608  14.680  0.00  0.00    +0.000 C 
ATOM     15  N   UNL     1       5.938   3.822  15.813  0.00  0.00    +0.000 N 
ATOM     16  H   UNL     1       5.802   2.823  15.799  0.00  0.00    +0.000 HD
BRANCH  14  17
ATOM     17  C   UNL     1       5.650   3.890  13.391  0.00  0.00    +0.000 A 
ATOM     18  C   UNL     1       4.422   3.737  12.738  0.00  0.00    +0.000 A 
ATOM     19  C   UNL     1       4.343   2.996  11.564  0.00  0.00    +0.000 A 
ATOM     20  C   UNL     1       5.499   2.421  11.022  0.00  0.00    +0.000 A 
ATOM     21  C   UNL     1       6.721   2.617  11.655  0.00  0.00    +0.000 A 
ATOM     22  F   UNL     1       7.823   2.078  11.118  0.00  0.00    +0.000 F 
ATOM     23  C   UNL     1       6.813   3.363  12.830  0.00  0.00    +0.000 A 
ENDBRANCH  14  17
ENDBRANCH   1  15
TORSDOF 3
ENDMDL
MODEL 4
REMARK VINA RESULT:      -8.0      0.958      1.401
REMARK  Name = 
REMARK  3 active torsions:
REMARK  status: ('A' for Active; 'I' for Inactive)
REMARK    1  A    between atoms: C_2  and  C_16
REMARK    2  A    between atoms: N_3  and  C_4
REMARK    3  A    between atoms: C_9  and  N_10
REMARK                            x       y       z     vdW  Elec       q    Type
REMARK                         _______ _______ _______ _____ _____    ______ ____
ROOT
ATOM      1  C   UNL     1       3.780   6.027  17.964  0.00  0.00    +0.000 A 
ATOM      2  C   UNL     1       4.523   6.676  16.963  0.00  0.00    +0.000 A 
ATOM      3  C   UNL     1       5.261   5.948  16.040  0.00  0.00    +0.000 A 
ATOM      4  C   UNL     1       5.306   4.567  16.145  0.00  0.00    +0.000 A 
ATOM      5  C   UNL     1       4.565   3.920  17.138  0.00  0.00    +0.000 A 
ATOM      6  C   UNL     1       3.735   4.615  18.042  0.00  0.00    +0.000 A 
ENDROOT
BRANCH   6   7
ATOM      7  N   UNL     1       2.922   3.912  18.923  0.00  0.00    +0.000 N 
ATOM      8  C   UNL     1       1.464   3.962  18.783  0.00  0.00    +0.000 C 
ATOM      9  C   UNL     1       0.880   4.177  20.177  0.00  0.00    +0.000 C 
ATOM     10  C   UNL     1       1.346   3.090  21.145  0.00  0.00    +0.000 C 
ATOM     11  C   UNL     1       2.870   2.919  21.122  0.00  0.00    +0.000 C 
ATOM     12  C   UNL     1       3.405   2.765  19.694  0.00  0.00    +0.000 C 
ENDBRANCH   6   7
BRANCH   1  15
ATOM     13  O   UNL     1       2.528   8.447  17.168  0.00  0.00    +0.000 OA
ATOM     14  C   UNL     1       2.386   8.003  18.300  0.00  0.00    +0.000 C 
ATOM     15  N   UNL     1       2.983   6.852  18.791  0.00  0.00    +0.000 N 
ATOM     16  H   UNL     1       2.949   6.598  19.766  0.00  0.00    +0.000 HD
BRANCH  14  17
ATOM     17  C   UNL     1       1.497   8.736  19.235  0.00  0.00    +0.000 A 
ATOM     18  C   UNL     1       0.635   9.757  18.822  0.00  0.00    +0.000 A 
ATOM     19  C   UNL     1      -0.126  10.450  19.756  0.00  0.00    +0.000 A 
ATOM     20  C   UNL     1      -0.045  10.110  21.113  0.00  0.00    +0.000 A 
ATOM     21  C   UNL     1       0.781   9.064  21.507  0.00  0.00    +0.000 A 
ATOM     22  F   UNL     1       0.837   8.736  22.803  0.00  0.00    +0.000 F 
ATOM     23  C   UNL     1       1.545   8.359  20.576  0.00  0.00    +0.000 A 
ENDBRANCH  14  17
ENDBRANCH   1  15
TORSDOF 3
ENDMDL
MODEL 5
REMARK VINA RESULT:      -8.0      4.503      7.630
REMARK  Name = 
REMARK  3 active torsions:
REMARK  status: ('A' for Active; 'I' for Inactive)
REMARK    1  A    between atoms: C_2  and  C_16
REMARK    2  A    between atoms: N_3  and  C_4
REMARK    3  A    between atoms: C_9  and  N_10
REMARK                            x       y       z     vdW  Elec       q    Type
REMARK                         _______ _______ _______ _____ _____    ______ ____
ROOT
ATOM      1  C   UNL     1       3.724   4.124  17.203  0.00  0.00    +0.000 A 
ATOM      2  C   UNL     1       2.549   3.354  17.195  0.00  0.00    +0.000 A 
ATOM      3  C   UNL     1       1.810   3.171  18.356  0.00  0.00    +0.000 A 
ATOM      4  C   UNL     1       2.273   3.710  19.546  0.00  0.00    +0.000 A 
ATOM      5  C   UNL     1       3.440   4.479  19.554  0.00  0.00    +0.000 A 
ATOM      6  C   UNL     1       4.174   4.762  18.383  0.00  0.00    +0.000 A 
ENDROOT
BRANCH   6   7
ATOM      7  N   UNL     1       5.251   5.637  18.431  0.00  0.00    +0.000 N 
ATOM      8  C   UNL     1       5.141   6.978  17.848  0.00  0.00    +0.000 C 
ATOM      9  C   UNL     1       6.411   7.229  17.040  0.00  0.00    +0.000 C 
ATOM     10  C   UNL     1       7.659   7.059  17.906  0.00  0.00    +0.000 C 
ATOM     11  C   UNL     1       7.651   5.728  18.666  0.00  0.00    +0.000 C 
ATOM     12  C   UNL     1       6.331   5.504  19.410  0.00  0.00    +0.000 C 
ENDBRANCH   6   7
BRANCH   1  15
ATOM     13  O   UNL     1       6.370   3.355  16.524  0.00  0.00    +0.000 OA
ATOM     14  C   UNL     1       5.638   3.893  15.704  0.00  0.00    +0.000 C 
ATOM     15  N   UNL     1       4.347   4.335  15.951  0.00  0.00    +0.000 N 
ATOM     16  H   UNL     1       3.831   4.895  15.289  0.00  0.00    +0.000 HD
BRANCH  14  17
ATOM     17  C   UNL     1       6.150   4.087  14.325  0.00  0.00    +0.000 A 
ATOM     18  C   UNL     1       5.618   3.421  13.216  0.00  0.00    +0.000 A 
ATOM     19  C   UNL     1       6.185   3.596  11.958  0.00  0.00    +0.000 A 
ATOM     20  C   UNL     1       7.277   4.459  11.798  0.00  0.00    +0.000 A 
ATOM     21  C   UNL     1       7.768   5.151  12.900  0.00  0.00    +0.000 A 
ATOM     22  F   UNL     1       8.800   5.986  12.733  0.00  0.00    +0.000 F 
ATOM     23  C   UNL     1       7.204   4.985  14.165  0.00  0.00    +0.000 A 
ENDBRANCH  14  17
ENDBRANCH   1  15
TORSDOF 3
ENDMDL
MODEL 6
REMARK VINA RESULT:      -7.9      4.604      7.313
REMARK  Name = 
REMARK  3 active torsions:
REMARK  status: ('A' for Active; 'I' for Inactive)
REMARK    1  A    between atoms: C_2  and  C_16
REMARK    2  A    between atoms: N_3  and  C_4
REMARK    3  A    between atoms: C_9  and  N_10
REMARK                            x       y       z     vdW  Elec       q    Type
REMARK                         _______ _______ _______ _____ _____    ______ ____
ROOT
ATOM      1  C   UNL     1       6.216   4.398  17.122  0.00  0.00    +0.000 A 
ATOM      2  C   UNL     1       7.493   4.926  17.377  0.00  0.00    +0.000 A 
ATOM      3  C   UNL     1       7.813   5.446  18.624  0.00  0.00    +0.000 A 
ATOM      4  C   UNL     1       6.840   5.492  19.609  0.00  0.00    +0.000 A 
ATOM      5  C   UNL     1       5.570   4.965  19.358  0.00  0.00    +0.000 A 
ATOM      6  C   UNL     1       5.229   4.351  18.135  0.00  0.00    +0.000 A 
ENDROOT
BRANCH   6   7
ATOM      7  N   UNL     1       3.995   3.729  17.988  0.00  0.00    +0.000 N 
ATOM      8  C   UNL     1       2.888   4.430  17.330  0.00  0.00    +0.000 C 
ATOM      9  C   UNL     1       1.640   4.212  18.181  0.00  0.00    +0.000 C 
ATOM     10  C   UNL     1       1.363   2.723  18.384  0.00  0.00    +0.000 C 
ATOM     11  C   UNL     1       2.604   1.973  18.884  0.00  0.00    +0.000 C 
ATOM     12  C   UNL     1       3.837   2.275  18.026  0.00  0.00    +0.000 C 
ENDBRANCH   6   7
BRANCH   1  15
ATOM     13  O   UNL     1       6.092   5.781  14.647  0.00  0.00    +0.000 OA
ATOM     14  C   UNL     1       6.008   4.561  14.695  0.00  0.00    +0.000 C 
ATOM     15  N   UNL     1       6.023   3.801  15.855  0.00  0.00    +0.000 N 
ATOM     16  H   UNL     1       5.813   2.815  15.859  0.00  0.00    +0.000 HD
BRANCH  14  17
ATOM     17  C   UNL     1       5.891   3.814  13.419  0.00  0.00    +0.000 A 
ATOM     18  C   UNL     1       6.991   3.248  12.766  0.00  0.00    +0.000 A 
ATOM     19  C   UNL     1       6.826   2.616  11.539  0.00  0.00    +0.000 A 
ATOM     20  C   UNL     1       5.551   2.527  10.965  0.00  0.00    +0.000 A 
ATOM     21  C   UNL     1       4.459   3.054  11.644  0.00  0.00    +0.000 A 
ATOM     22  F   UNL     1       3.242   2.948  11.095  0.00  0.00    +0.000 F 
ATOM     23  C   UNL     1       4.613   3.686  12.878  0.00  0.00    +0.000 A 
ENDBRANCH  14  17
ENDBRANCH   1  15
TORSDOF 3
ENDMDL
MODEL 7
REMARK VINA RESULT:      -7.9      1.820      3.803
REMARK  Name = 
REMARK  3 active torsions:
REMARK  status: ('A' for Active; 'I' for Inactive)
REMARK    1  A    between atoms: C_2  and  C_16
REMARK    2  A    between atoms: N_3  and  C_4
REMARK    3  A    between atoms: C_9  and  N_10
REMARK                            x       y       z     vdW  Elec       q    Type
REMARK                         _______ _______ _______ _____ _____    ______ ____
ROOT
ATOM      1  C   UNL     1       2.572   4.677  17.998  0.00  0.00    +0.000 A 
ATOM      2  C   UNL     1       1.527   3.746  18.123  0.00  0.00    +0.000 A 
ATOM      3  C   UNL     1       1.792   2.386  18.218  0.00  0.00    +0.000 A 
ATOM      4  C   UNL     1       3.102   1.944  18.131  0.00  0.00    +0.000 A 
ATOM      5  C   UNL     1       4.143   2.868  18.010  0.00  0.00    +0.000 A 
ATOM      6  C   UNL     1       3.925   4.262  17.996  0.00  0.00    +0.000 A 
ENDROOT
BRANCH   6   7
ATOM      7  N   UNL     1       5.005   5.135  18.004  0.00  0.00    +0.000 N 
ATOM      8  C   UNL     1       5.284   5.977  16.837  0.00  0.00    +0.000 C 
ATOM      9  C   UNL     1       6.784   5.899  16.566  0.00  0.00    +0.000 C 
ATOM     10  C   UNL     1       7.590   6.309  17.799  0.00  0.00    +0.000 C 
ATOM     11  C   UNL     1       7.137   5.554  19.055  0.00  0.00    +0.000 C 
ATOM     12  C   UNL     1       5.618   5.618  19.243  0.00  0.00    +0.000 C 
ENDBRANCH   6   7
BRANCH   1  15
ATOM     13  O   UNL     1       2.288   6.289  20.317  0.00  0.00    +0.000 OA
ATOM     14  C   UNL     1       2.122   6.756  19.197  0.00  0.00    +0.000 C 
ATOM     15  N   UNL     1       2.205   6.042  18.011  0.00  0.00    +0.000 N 
ATOM     16  H   UNL     1       1.926   6.433  17.124  0.00  0.00    +0.000 HD
BRANCH  14  17
ATOM     17  C   UNL     1       1.819   8.203  19.077  0.00  0.00    +0.000 A 
ATOM     18  C   UNL     1       2.173   8.964  17.959  0.00  0.00    +0.000 A 
ATOM     19  C   UNL     1       1.920  10.331  17.934  0.00  0.00    +0.000 A 
ATOM     20  C   UNL     1       1.287  10.943  19.024  0.00  0.00    +0.000 A 
ATOM     21  C   UNL     1       0.898  10.168  20.111  0.00  0.00    +0.000 A 
ATOM     22  F   UNL     1       0.278  10.760  21.139  0.00  0.00    +0.000 F 
ATOM     23  C   UNL     1       1.144   8.796  20.144  0.00  0.00    +0.000 A 
ENDBRANCH  14  17
ENDBRANCH   1  15
TORSDOF 3
ENDMDL
MODEL 8
REMARK VINA RESULT:      -7.9      1.700      3.974
REMARK  Name = 
REMARK  3 active torsions:
REMARK  status: ('A' for Active; 'I' for Inactive)
REMARK    1  A    between atoms: C_2  and  C_16
REMARK    2  A    between atoms: N_3  and  C_4
REMARK    3  A    between atoms: C_9  and  N_10
REMARK                            x       y       z     vdW  Elec       q    Type
REMARK                         _______ _______ _______ _____ _____    ______ ____
ROOT
ATOM      1  C   UNL     1       2.467   4.163  18.142  0.00  0.00    +0.000 A 
ATOM      2  C   UNL     1       1.508   3.258  18.627  0.00  0.00    +0.000 A 
ATOM      3  C   UNL     1       1.811   1.911  18.777  0.00  0.00    +0.000 A 
ATOM      4  C   UNL     1       3.059   1.450  18.389  0.00  0.00    +0.000 A 
ATOM      5  C   UNL     1       4.015   2.350  17.909  0.00  0.00    +0.000 A 
ATOM      6  C   UNL     1       3.778   3.738  17.821  0.00  0.00    +0.000 A 
ENDROOT
BRANCH   6   7
ATOM      7  N   UNL     1       4.807   4.598  17.460  0.00  0.00    +0.000 N 
ATOM      8  C   UNL     1       6.060   4.612  18.220  0.00  0.00    +0.000 C 
ATOM      9  C   UNL     1       6.430   6.073  18.463  0.00  0.00    +0.000 C 
ATOM     10  C   UNL     1       6.526   6.844  17.146  0.00  0.00    +0.000 C 
ATOM     11  C   UNL     1       5.279   6.648  16.276  0.00  0.00    +0.000 C 
ATOM     12  C   UNL     1       4.923   5.166  16.116  0.00  0.00    +0.000 C 
ENDBRANCH   6   7
BRANCH   1  15
ATOM     13  O   UNL     1       2.987   6.048  20.199  0.00  0.00    +0.000 OA
ATOM     14  C   UNL     1       2.421   6.379  19.165  0.00  0.00    +0.000 C 
ATOM     15  N   UNL     1       2.093   5.526  18.122  0.00  0.00    +0.000 N 
ATOM     16  H   UNL     1       1.507   5.812  17.353  0.00  0.00    +0.000 HD
BRANCH  14  17
ATOM     17  C   UNL     1       2.058   7.807  18.989  0.00  0.00    +0.000 A 
ATOM     18  C   UNL     1       2.373   8.535  17.838  0.00  0.00    +0.000 A 
ATOM     19  C   UNL     1       2.063   9.889  17.760  0.00  0.00    +0.000 A 
ATOM     20  C   UNL     1       1.413  10.518  18.829  0.00  0.00    +0.000 A 
ATOM     21  C   UNL     1       1.063   9.773  19.950  0.00  0.00    +0.000 A 
ATOM     22  F   UNL     1       0.426  10.381  20.958  0.00  0.00    +0.000 F 
ATOM     23  C   UNL     1       1.366   8.415  20.036  0.00  0.00    +0.000 A 
ENDBRANCH  14  17
ENDBRANCH   1  15
TORSDOF 3
ENDMDL
MODEL 9
REMARK VINA RESULT:      -7.8      1.538      2.083
REMARK  Name = 
REMARK  3 active torsions:
REMARK  status: ('A' for Active; 'I' for Inactive)
REMARK    1  A    between atoms: C_2  and  C_16
REMARK    2  A    between atoms: N_3  and  C_4
REMARK    3  A    between atoms: C_9  and  N_10
REMARK                            x       y       z     vdW  Elec       q    Type
REMARK                         _______ _______ _______ _____ _____    ______ ____
ROOT
ATOM      1  C   UNL     1       4.449   5.467  16.768  0.00  0.00    +0.000 A 
ATOM      2  C   UNL     1       5.343   6.017  15.834  0.00  0.00    +0.000 A 
ATOM      3  C   UNL     1       6.283   5.222  15.192  0.00  0.00    +0.000 A 
ATOM      4  C   UNL     1       6.372   3.879  15.523  0.00  0.00    +0.000 A 
ATOM      5  C   UNL     1       5.482   3.329  16.450  0.00  0.00    +0.000 A 
ATOM      6  C   UNL     1       4.457   4.082  17.060  0.00  0.00    +0.000 A 
ENDROOT
BRANCH   6   7
ATOM      7  N   UNL     1       3.522   3.455  17.874  0.00  0.00    +0.000 N 
ATOM      8  C   UNL     1       2.168   3.194  17.377  0.00  0.00    +0.000 C 
ATOM      9  C   UNL     1       1.193   3.603  18.478  0.00  0.00    +0.000 C 
ATOM     10  C   UNL     1       1.497   2.872  19.785  0.00  0.00    +0.000 C 
ATOM     11  C   UNL     1       2.974   2.993  20.178  0.00  0.00    +0.000 C 
ATOM     12  C   UNL     1       3.904   2.625  19.017  0.00  0.00    +0.000 C 
ENDBRANCH   6   7
BRANCH   1  15
ATOM     13  O   UNL     1       4.140   6.163  19.502  0.00  0.00    +0.000 OA
ATOM     14  C   UNL     1       3.415   6.644  18.640  0.00  0.00    +0.000 C 
ATOM     15  N   UNL     1       3.466   6.339  17.289  0.00  0.00    +0.000 N 
ATOM     16  H   UNL     1       2.763   6.652  16.636  0.00  0.00    +0.000 HD
BRANCH  14  17
ATOM     17  C   UNL     1       2.400   7.643  19.054  0.00  0.00    +0.000 A 
ATOM     18  C   UNL     1       1.915   8.635  18.195  0.00  0.00    +0.000 A 
ATOM     19  C   UNL     1       1.012   9.583  18.662  0.00  0.00    +0.000 A 
ATOM     20  C   UNL     1       0.569   9.531  19.990  0.00  0.00    +0.000 A 
ATOM     21  C   UNL     1       1.023   8.514  20.822  0.00  0.00    +0.000 A 
ATOM     22  F   UNL     1       0.580   8.463  22.084  0.00  0.00    +0.000 F 
ATOM     23  C   UNL     1       1.925   7.555  20.362  0.00  0.00    +0.000 A 
ENDBRANCH  14  17
ENDBRANCH   1  15
TORSDOF 3
ENDMDL
