MODEL 1
REMARK VINA RESULT:      -7.8      0.000      0.000
REMARK  Name = 
REMARK  9 active torsions:
REMARK  status: ('A' for Active; 'I' for Inactive)
REMARK    1  A    between atoms: C_1  and  C_2
REMARK    2  A    between atoms: C_2  and  C_3
REMARK    3  A    between atoms: C_2  and  N_11
REMARK    4  A    between atoms: C_3  and  C_4
REMARK    5  A    between atoms: C_4  and  C_5
REMARK    6  A    between atoms: C_12  and  C_14
REMARK    7  A    between atoms: C_14  and  S_15
REMARK    8  A    between atoms: S_15  and  C_16
REMARK    9  A    between atoms: C_19  and  C_20
REMARK                            x       y       z     vdW  Elec       q    Type
REMARK                         _______ _______ _______ _____ _____    ______ ____
ROOT
ATOM      1  N   UNL     1       4.535   5.434  18.135  0.00  0.00    +0.000 N 
ATOM      2  C   UNL     1       5.247   4.459  17.459  0.00  0.00    +0.000 C 
ATOM      3  O   UNL     1       4.760   3.366  17.173  0.00  0.00    +0.000 OA
ATOM      4  H   UNL     1       4.986   6.311  18.368  0.00  0.00    +0.000 HD
ENDROOT
BRANCH   1   6
ATOM      5  C   UNL     1       3.037   5.226  20.054  0.00  0.00    +0.000 C 
ATOM      6  C   UNL     1       3.141   5.247  18.529  0.00  0.00    +0.000 C 
BRANCH   6   7
ATOM      7  C   UNL     1       2.242   6.353  17.949  0.00  0.00    +0.000 C 
BRANCH   7   8
ATOM      8  C   UNL     1       2.774   7.768  18.209  0.00  0.00    +0.000 C 
BRANCH   8   9
ATOM      9  C   UNL     1       1.706   8.650  18.816  0.00  0.00    +0.000 A 
ATOM     10  C   UNL     1       1.020   9.583  18.026  0.00  0.00    +0.000 A 
ATOM     11  C   UNL     1       0.066  10.429  18.595  0.00  0.00    +0.000 A 
ATOM     12  C   UNL     1      -0.208  10.354  19.959  0.00  0.00    +0.000 A 
ATOM     13  C   UNL     1       0.462   9.426  20.753  0.00  0.00    +0.000 A 
ATOM     14  C   UNL     1       1.415   8.576  20.185  0.00  0.00    +0.000 A 
ENDBRANCH   8   9
ENDBRANCH   7   8
ENDBRANCH   6   7
ENDBRANCH   1   6
BRANCH   2  15
ATOM     15  C   UNL     1       6.675   4.839  17.089  0.00  0.00    +0.000 C 
BRANCH  15  16
ATOM     16  S   UNL     1       7.548   5.424  18.576  0.00  0.00    +0.000 S 
BRANCH  16  17
ATOM     17  C   UNL     1       7.779   7.082  18.190  0.00  0.00    +0.000 A 
ATOM     18  N   UNL     1       7.290   7.773  17.193  0.00  0.00    +0.000 NA
ATOM     19  N   UNL     1       7.798   9.053  17.300  0.00  0.00    +0.000 NA
ATOM     20  C   UNL     1       8.570   9.115  18.372  0.00  0.00    +0.000 A 
ATOM     21  N   UNL     1       8.584   7.870  18.952  0.00  0.00    +0.000 N 
ATOM     22  H   UNL     1       9.103   7.578  19.764  0.00  0.00    +0.000 HD
BRANCH  20  23
ATOM     23  C   UNL     1       9.306  10.281  18.864  0.00  0.00    +0.000 A 
ATOM     24  C   UNL     1      10.009  11.136  18.002  0.00  0.00    +0.000 A 
ATOM     25  C   UNL     1      10.738  12.218  18.508  0.00  0.00    +0.000 A 
ATOM     26  C   UNL     1      10.769  12.463  19.880  0.00  0.00    +0.000 A 
ATOM     27  C   UNL     1      10.066  11.630  20.747  0.00  0.00    +0.000 A 
ATOM     28  C   UNL     1       9.343  10.545  20.241  0.00  0.00    +0.000 A 
ENDBRANCH  20  23
ENDBRANCH  16  17
ENDBRANCH  15  16
ENDBRANCH   2  15
TORSDOF 8
ENDMDL
MODEL 2
REMARK VINA RESULT:      -7.7      3.210      3.929
REMARK  Name = 
REMARK  9 active torsions:
REMARK  status: ('A' for Active; 'I' for Inactive)
REMARK    1  A    between atoms: C_1  and  C_2
REMARK    2  A    between atoms: C_2  and  C_3
REMARK    3  A    between atoms: C_2  and  N_11
REMARK    4  A    between atoms: C_3  and  C_4
REMARK    5  A    between atoms: C_4  and  C_5
REMARK    6  A    between atoms: C_12  and  C_14
REMARK    7  A    between atoms: C_14  and  S_15
REMARK    8  A    between atoms: S_15  and  C_16
REMARK    9  A    between atoms: C_19  and  C_20
REMARK                            x       y       z     vdW  Elec       q    Type
REMARK                         _______ _______ _______ _____ _____    ______ ____
ROOT
ATOM      1  N   UNL     1       5.405   4.634  17.319  0.00  0.00    +0.000 N 
ATOM      2  C   UNL     1       5.131   5.493  18.369  0.00  0.00    +0.000 C 
ATOM      3  O   UNL     1       4.090   6.145  18.432  0.00  0.00    +0.000 OA
ATOM      4  H   UNL     1       6.287   4.134  17.299  0.00  0.00    +0.000 HD
ENDROOT
BRANCH   1   6
ATOM      5  C   UNL     1       5.220   3.989  14.969  0.00  0.00    +0.000 C 
ATOM      6  C   UNL     1       4.461   4.414  16.226  0.00  0.00    +0.000 C 
BRANCH   6   7
ATOM      7  C   UNL     1       3.410   3.354  16.599  0.00  0.00    +0.000 C 
BRANCH   7   8
ATOM      8  C   UNL     1       3.827   2.474  17.783  0.00  0.00    +0.000 C 
BRANCH   8   9
ATOM      9  C   UNL     1       2.931   2.705  18.979  0.00  0.00    +0.000 A 
ATOM     10  C   UNL     1       1.638   3.219  18.809  0.00  0.00    +0.000 A 
ATOM     11  C   UNL     1       0.825   3.474  19.917  0.00  0.00    +0.000 A 
ATOM     12  C   UNL     1       1.300   3.223  21.203  0.00  0.00    +0.000 A 
ATOM     13  C   UNL     1       2.581   2.706  21.383  0.00  0.00    +0.000 A 
ATOM     14  C   UNL     1       3.393   2.446  20.276  0.00  0.00    +0.000 A 
ENDBRANCH   8   9
ENDBRANCH   7   8
ENDBRANCH   6   7
ENDBRANCH   1   6
BRANCH   2  15
ATOM     15  C   UNL     1       6.209   5.568  19.442  0.00  0.00    +0.000 C 
BRANCH  15  16
ATOM     16  S   UNL     1       7.847   5.626  18.649  0.00  0.00    +0.000 S 
BRANCH  16  17
ATOM     17  C   UNL     1       7.997   7.307  18.328  0.00  0.00    +0.000 A 
ATOM     18  N   UNL     1       7.433   8.021  17.388  0.00  0.00    +0.000 NA
ATOM     19  N   UNL     1       7.899   9.315  17.529  0.00  0.00    +0.000 NA
ATOM     20  C   UNL     1       8.721   9.359  18.564  0.00  0.00    +0.000 A 
ATOM     21  N   UNL     1       8.810   8.092  19.086  0.00  0.00    +0.000 N 
ATOM     22  H   UNL     1       9.379   7.786  19.857  0.00  0.00    +0.000 HD
BRANCH  20  23
ATOM     23  C   UNL     1       9.437  10.531  19.072  0.00  0.00    +0.000 A 
ATOM     24  C   UNL     1       9.457  10.859  20.436  0.00  0.00    +0.000 A 
ATOM     25  C   UNL     1      10.116  12.009  20.884  0.00  0.00    +0.000 A 
ATOM     26  C   UNL     1      10.768  12.842  19.977  0.00  0.00    +0.000 A 
ATOM     27  C   UNL     1      10.768  12.523  18.621  0.00  0.00    +0.000 A 
ATOM     28  C   UNL     1      10.104  11.377  18.173  0.00  0.00    +0.000 A 
ENDBRANCH  20  23
ENDBRANCH  16  17
ENDBRANCH  15  16
ENDBRANCH   2  15
TORSDOF 8
ENDMDL
MODEL 3
REMARK VINA RESULT:      -7.6      3.582      8.673
REMARK  Name = 
REMARK  9 active torsions:
REMARK  status: ('A' for Active; 'I' for Inactive)
REMARK    1  A    between atoms: C_1  and  C_2
REMARK    2  A    between atoms: C_2  and  C_3
REMARK    3  A    between atoms: C_2  and  N_11
REMARK    4  A    between atoms: C_3  and  C_4
REMARK    5  A    between atoms: C_4  and  C_5
REMARK    6  A    between atoms: C_12  and  C_14
REMARK    7  A    between atoms: C_14  and  S_15
REMARK    8  A    between atoms: S_15  and  C_16
REMARK    9  A    between atoms: C_19  and  C_20
REMARK                            x       y       z     vdW  Elec       q    Type
REMARK                         _______ _______ _______ _____ _____    ______ ____
ROOT
ATOM      1  N   UNL     1       2.996   5.293  17.900  0.00  0.00    +0.000 N 
ATOM      2  C   UNL     1       3.388   5.996  19.026  0.00  0.00    +0.000 C 
ATOM      3  O   UNL     1       4.360   5.665  19.704  0.00  0.00    +0.000 OA
ATOM      4  H   UNL     1       2.175   5.591  17.386  0.00  0.00    +0.000 HD
ENDROOT
BRANCH   1   6
ATOM      5  C   UNL     1       2.771   2.949  17.248  0.00  0.00    +0.000 C 
ATOM      6  C   UNL     1       3.731   4.127  17.414  0.00  0.00    +0.000 C 
BRANCH   6   7
ATOM      7  C   UNL     1       4.443   4.428  16.084  0.00  0.00    +0.000 C 
BRANCH   7   8
ATOM      8  C   UNL     1       5.952   4.165  16.129  0.00  0.00    +0.000 C 
BRANCH   8   9
ATOM      9  C   UNL     1       6.656   5.166  17.018  0.00  0.00    +0.000 A 
ATOM     10  C   UNL     1       6.673   6.527  16.680  0.00  0.00    +0.000 A 
ATOM     11  C   UNL     1       7.361   7.446  17.477  0.00  0.00    +0.000 A 
ATOM     12  C   UNL     1       8.040   7.014  18.613  0.00  0.00    +0.000 A 
ATOM     13  C   UNL     1       8.023   5.665  18.963  0.00  0.00    +0.000 A 
ATOM     14  C   UNL     1       7.334   4.745  18.169  0.00  0.00    +0.000 A 
ENDBRANCH   8   9
ENDBRANCH   7   8
ENDBRANCH   6   7
ENDBRANCH   1   6
BRANCH   2  15
ATOM     15  C   UNL     1       2.532   7.209  19.363  0.00  0.00    +0.000 C 
BRANCH  15  16
ATOM     16  S   UNL     1       2.502   8.341  17.937  0.00  0.00    +0.000 S 
BRANCH  16  17
ATOM     17  C   UNL     1       1.177   9.354  18.349  0.00  0.00    +0.000 A 
ATOM     18  N   UNL     1       1.008  10.101  19.410  0.00  0.00    +0.000 NA
ATOM     19  N   UNL     1      -0.234  10.695  19.293  0.00  0.00    +0.000 NA
ATOM     20  C   UNL     1      -0.782  10.310  18.152  0.00  0.00    +0.000 A 
ATOM     21  N   UNL     1       0.091   9.447  17.536  0.00  0.00    +0.000 N 
ATOM     22  H   UNL     1      -0.045   8.955  16.669  0.00  0.00    +0.000 HD
BRANCH  20  23
ATOM     23  C   UNL     1      -2.092  10.700  17.627  0.00  0.00    +0.000 A 
ATOM     24  C   UNL     1      -2.463  10.458  16.296  0.00  0.00    +0.000 A 
ATOM     25  C   UNL     1      -3.706  10.882  15.813  0.00  0.00    +0.000 A 
ATOM     26  C   UNL     1      -4.597  11.546  16.655  0.00  0.00    +0.000 A 
ATOM     27  C   UNL     1      -4.247  11.782  17.982  0.00  0.00    +0.000 A 
ATOM     28  C   UNL     1      -3.002  11.364  18.463  0.00  0.00    +0.000 A 
ENDBRANCH  20  23
ENDBRANCH  16  17
ENDBRANCH  15  16
ENDBRANCH   2  15
TORSDOF 8
ENDMDL
MODEL 4
REMARK VINA RESULT:      -7.5      0.439      1.031
REMARK  Name = 
REMARK  9 active torsions:
REMARK  status: ('A' for Active; 'I' for Inactive)
REMARK    1  A    between atoms: C_1  and  C_2
REMARK    2  A    between atoms: C_2  and  C_3
REMARK    3  A    between atoms: C_2  and  N_11
REMARK    4  A    between atoms: C_3  and  C_4
REMARK    5  A    between atoms: C_4  and  C_5
REMARK    6  A    between atoms: C_12  and  C_14
REMARK    7  A    between atoms: C_14  and  S_15
REMARK    8  A    between atoms: S_15  and  C_16
REMARK    9  A    between atoms: C_19  and  C_20
REMARK                            x       y       z     vdW  Elec       q    Type
REMARK                         _______ _______ _______ _____ _____    ______ ____
ROOT
ATOM      1  N   UNL     1       4.592   5.759  18.001  0.00  0.00    +0.000 N 
ATOM      2  C   UNL     1       5.195   4.699  17.345  0.00  0.00    +0.000 C 
ATOM      3  O   UNL     1       4.570   3.696  17.002  0.00  0.00    +0.000 OA
ATOM      4  H   UNL     1       5.152   6.555  18.284  0.00  0.00    +0.000 HD
ENDROOT
BRANCH   1   6
ATOM      5  C   UNL     1       2.955   5.656  19.813  0.00  0.00    +0.000 C 
ATOM      6  C   UNL     1       3.163   5.777  18.303  0.00  0.00    +0.000 C 
BRANCH   6   7
ATOM      7  C   UNL     1       2.495   7.057  17.773  0.00  0.00    +0.000 C 
BRANCH   7   8
ATOM      8  C   UNL     1       2.737   8.282  18.663  0.00  0.00    +0.000 C 
BRANCH   8   9
ATOM      9  C   UNL     1       1.447   9.021  18.940  0.00  0.00    +0.000 A 
ATOM     10  C   UNL     1       0.951   9.119  20.247  0.00  0.00    +0.000 A 
ATOM     11  C   UNL     1      -0.264   9.763  20.498  0.00  0.00    +0.000 A 
ATOM     12  C   UNL     1      -0.994  10.310  19.445  0.00  0.00    +0.000 A 
ATOM     13  C   UNL     1      -0.507  10.225  18.142  0.00  0.00    +0.000 A 
ATOM     14  C   UNL     1       0.709   9.584  17.890  0.00  0.00    +0.000 A 
ENDBRANCH   8   9
ENDBRANCH   7   8
ENDBRANCH   6   7
ENDBRANCH   1   6
BRANCH   2  15
ATOM     15  C   UNL     1       6.684   4.867  17.075  0.00  0.00    +0.000 C 
BRANCH  15  16
ATOM     16  S   UNL     1       7.506   5.471  18.583  0.00  0.00    +0.000 S 
BRANCH  16  17
ATOM     17  C   UNL     1       7.755   7.123  18.182  0.00  0.00    +0.000 A 
ATOM     18  N   UNL     1       7.270   7.811  17.181  0.00  0.00    +0.000 NA
ATOM     19  N   UNL     1       7.793   9.087  17.276  0.00  0.00    +0.000 NA
ATOM     20  C   UNL     1       8.568   9.149  18.346  0.00  0.00    +0.000 A 
ATOM     21  N   UNL     1       8.570   7.909  18.936  0.00  0.00    +0.000 N 
ATOM     22  H   UNL     1       9.087   7.619  19.749  0.00  0.00    +0.000 HD
BRANCH  20  23
ATOM     23  C   UNL     1       9.318  10.311  18.826  0.00  0.00    +0.000 A 
ATOM     24  C   UNL     1      10.020  11.157  17.954  0.00  0.00    +0.000 A 
ATOM     25  C   UNL     1      10.762  12.235  18.449  0.00  0.00    +0.000 A 
ATOM     26  C   UNL     1      10.806  12.486  19.820  0.00  0.00    +0.000 A 
ATOM     27  C   UNL     1      10.104  11.662  20.696  0.00  0.00    +0.000 A 
ATOM     28  C   UNL     1       9.368  10.581  20.201  0.00  0.00    +0.000 A 
ENDBRANCH  20  23
ENDBRANCH  16  17
ENDBRANCH  15  16
ENDBRANCH   2  15
TORSDOF 8
ENDMDL
MODEL 5
REMARK VINA RESULT:      -7.4      0.869      1.550
REMARK  Name = 
REMARK  9 active torsions:
REMARK  status: ('A' for Active; 'I' for Inactive)
REMARK    1  A    between atoms: C_1  and  C_2
REMARK    2  A    between atoms: C_2  and  C_3
REMARK    3  A    between atoms: C_2  and  N_11
REMARK    4  A    between atoms: C_3  and  C_4
REMARK    5  A    between atoms: C_4  and  C_5
REMARK    6  A    between atoms: C_12  and  C_14
REMARK    7  A    between atoms: C_14  and  S_15
REMARK    8  A    between atoms: S_15  and  C_16
REMARK    9  A    between atoms: C_19  and  C_20
REMARK                            x       y       z     vdW  Elec       q    Type
REMARK                         _______ _______ _______ _____ _____    ______ ____
ROOT
ATOM      1  N   UNL     1       4.886   4.621  18.432  0.00  0.00    +0.000 N 
ATOM      2  C   UNL     1       5.371   5.041  17.206  0.00  0.00    +0.000 C 
ATOM      3  O   UNL     1       4.651   5.565  16.357  0.00  0.00    +0.000 OA
ATOM      4  H   UNL     1       5.514   4.174  19.091  0.00  0.00    +0.000 HD
ENDROOT
BRANCH   1   6
ATOM      5  C   UNL     1       2.920   3.470  19.316  0.00  0.00    +0.000 C 
ATOM      6  C   UNL     1       3.489   4.800  18.820  0.00  0.00    +0.000 C 
BRANCH   6   7
ATOM      7  C   UNL     1       3.344   5.880  19.906  0.00  0.00    +0.000 C 
BRANCH   7   8
ATOM      8  C   UNL     1       1.898   6.346  20.112  0.00  0.00    +0.000 C 
BRANCH   8   9
ATOM      9  C   UNL     1       1.693   7.745  19.578  0.00  0.00    +0.000 A 
ATOM     10  C   UNL     1       2.171   8.099  18.308  0.00  0.00    +0.000 A 
ATOM     11  C   UNL     1       2.022   9.405  17.833  0.00  0.00    +0.000 A 
ATOM     12  C   UNL     1       1.398  10.368  18.623  0.00  0.00    +0.000 A 
ATOM     13  C   UNL     1       0.912  10.026  19.883  0.00  0.00    +0.000 A 
ATOM     14  C   UNL     1       1.058   8.720  20.359  0.00  0.00    +0.000 A 
ENDBRANCH   8   9
ENDBRANCH   7   8
ENDBRANCH   6   7
ENDBRANCH   1   6
BRANCH   2  15
ATOM     15  C   UNL     1       6.861   4.813  16.985  0.00  0.00    +0.000 C 
BRANCH  15  16
ATOM     16  S   UNL     1       7.780   5.367  18.456  0.00  0.00    +0.000 S 
BRANCH  16  17
ATOM     17  C   UNL     1       7.898   7.054  18.154  0.00  0.00    +0.000 A 
ATOM     18  N   UNL     1       7.332   7.765  17.214  0.00  0.00    +0.000 NA
ATOM     19  N   UNL     1       7.767   9.067  17.374  0.00  0.00    +0.000 NA
ATOM     20  C   UNL     1       8.575   9.119  18.420  0.00  0.00    +0.000 A 
ATOM     21  N   UNL     1       8.684   7.848  18.930  0.00  0.00    +0.000 N 
ATOM     22  H   UNL     1       9.250   7.546  19.706  0.00  0.00    +0.000 HD
BRANCH  20  23
ATOM     23  C   UNL     1       9.259  10.300  18.949  0.00  0.00    +0.000 A 
ATOM     24  C   UNL     1       9.297  10.586  20.322  0.00  0.00    +0.000 A 
ATOM     25  C   UNL     1       9.924  11.746  20.792  0.00  0.00    +0.000 A 
ATOM     26  C   UNL     1      10.526  12.630  19.897  0.00  0.00    +0.000 A 
ATOM     27  C   UNL     1      10.507  12.352  18.533  0.00  0.00    +0.000 A 
ATOM     28  C   UNL     1       9.875  11.196  18.064  0.00  0.00    +0.000 A 
ENDBRANCH  20  23
ENDBRANCH  16  17
ENDBRANCH  15  16
ENDBRANCH   2  15
TORSDOF 8
ENDMDL
MODEL 6
REMARK VINA RESULT:      -7.3      3.593      4.929
REMARK  Name = 
REMARK  9 active torsions:
REMARK  status: ('A' for Active; 'I' for Inactive)
REMARK    1  A    between atoms: C_1  and  C_2
REMARK    2  A    between atoms: C_2  and  C_3
REMARK    3  A    between atoms: C_2  and  N_11
REMARK    4  A    between atoms: C_3  and  C_4
REMARK    5  A    between atoms: C_4  and  C_5
REMARK    6  A    between atoms: C_12  and  C_14
REMARK    7  A    between atoms: C_14  and  S_15
REMARK    8  A    between atoms: S_15  and  C_16
REMARK    9  A    between atoms: C_19  and  C_20
REMARK                            x       y       z     vdW  Elec       q    Type
REMARK                         _______ _______ _______ _____ _____    ______ ____
ROOT
ATOM      1  N   UNL     1       1.584   5.501  19.643  0.00  0.00    +0.000 N 
ATOM      2  C   UNL     1       1.725   4.394  20.462  0.00  0.00    +0.000 C 
ATOM      3  O   UNL     1       2.365   4.428  21.511  0.00  0.00    +0.000 OA
ATOM      4  H   UNL     1       1.065   5.419  18.776  0.00  0.00    +0.000 HD
ENDROOT
BRANCH   1   6
ATOM      5  C   UNL     1       2.569   7.532  18.708  0.00  0.00    +0.000 C 
ATOM      6  C   UNL     1       2.157   6.801  19.986  0.00  0.00    +0.000 C 
BRANCH   6   7
ATOM      7  C   UNL     1       1.164   7.655  20.793  0.00  0.00    +0.000 C 
BRANCH   7   8
ATOM      8  C   UNL     1       1.092   9.112  20.322  0.00  0.00    +0.000 C 
BRANCH   8   9
ATOM      9  C   UNL     1       0.159   9.923  21.193  0.00  0.00    +0.000 A 
ATOM     10  C   UNL     1      -0.359  11.143  20.736  0.00  0.00    +0.000 A 
ATOM     11  C   UNL     1      -1.186  11.914  21.556  0.00  0.00    +0.000 A 
ATOM     12  C   UNL     1      -1.498  11.476  22.842  0.00  0.00    +0.000 A 
ATOM     13  C   UNL     1      -0.994  10.262  23.304  0.00  0.00    +0.000 A 
ATOM     14  C   UNL     1      -0.170   9.488  22.483  0.00  0.00    +0.000 A 
ENDBRANCH   8   9
ENDBRANCH   7   8
ENDBRANCH   6   7
ENDBRANCH   1   6
BRANCH   2  15
ATOM     15  C   UNL     1       1.028   3.132  19.971  0.00  0.00    +0.000 C 
BRANCH  15  16
ATOM     16  S   UNL     1       2.240   2.056  19.142  0.00  0.00    +0.000 S 
BRANCH  16  17
ATOM     17  C   UNL     1       3.153   3.211  18.256  0.00  0.00    +0.000 A 
ATOM     18  N   UNL     1       3.006   3.603  17.017  0.00  0.00    +0.000 NA
ATOM     19  N   UNL     1       4.008   4.520  16.762  0.00  0.00    +0.000 NA
ATOM     20  C   UNL     1       4.728   4.678  17.861  0.00  0.00    +0.000 A 
ATOM     21  N   UNL     1       4.211   3.847  18.825  0.00  0.00    +0.000 N 
ATOM     22  H   UNL     1       4.554   3.709  19.761  0.00  0.00    +0.000 HD
BRANCH  20  23
ATOM     23  C   UNL     1       5.886   5.556  18.038  0.00  0.00    +0.000 A 
ATOM     24  C   UNL     1       6.088   6.693  17.241  0.00  0.00    +0.000 A 
ATOM     25  C   UNL     1       7.227   7.488  17.408  0.00  0.00    +0.000 A 
ATOM     26  C   UNL     1       8.175   7.162  18.377  0.00  0.00    +0.000 A 
ATOM     27  C   UNL     1       7.982   6.043  19.183  0.00  0.00    +0.000 A 
ATOM     28  C   UNL     1       6.847   5.245  19.012  0.00  0.00    +0.000 A 
ENDBRANCH  20  23
ENDBRANCH  16  17
ENDBRANCH  15  16
ENDBRANCH   2  15
TORSDOF 8
ENDMDL
MODEL 7
REMARK VINA RESULT:      -7.3      1.172      1.684
REMARK  Name = 
REMARK  9 active torsions:
REMARK  status: ('A' for Active; 'I' for Inactive)
REMARK    1  A    between atoms: C_1  and  C_2
REMARK    2  A    between atoms: C_2  and  C_3
REMARK    3  A    between atoms: C_2  and  N_11
REMARK    4  A    between atoms: C_3  and  C_4
REMARK    5  A    between atoms: C_4  and  C_5
REMARK    6  A    between atoms: C_12  and  C_14
REMARK    7  A    between atoms: C_14  and  S_15
REMARK    8  A    between atoms: S_15  and  C_16
REMARK    9  A    between atoms: C_19  and  C_20
REMARK                            x       y       z     vdW  Elec       q    Type
REMARK                         _______ _______ _______ _____ _____    ______ ____
ROOT
ATOM      1  N   UNL     1       3.939   6.142  18.844  0.00  0.00    +0.000 N 
ATOM      2  C   UNL     1       4.946   5.294  18.415  0.00  0.00    +0.000 C 
ATOM      3  O   UNL     1       4.860   4.642  17.376  0.00  0.00    +0.000 OA
ATOM      4  H   UNL     1       4.046   6.642  19.719  0.00  0.00    +0.000 HD
ENDROOT
BRANCH   1   6
ATOM      5  C   UNL     1       1.852   5.089  18.132  0.00  0.00    +0.000 C 
ATOM      6  C   UNL     1       2.715   6.350  18.074  0.00  0.00    +0.000 C 
BRANCH   6   7
ATOM      7  C   UNL     1       1.925   7.562  18.595  0.00  0.00    +0.000 C 
BRANCH   7   8
ATOM      8  C   UNL     1       2.116   8.824  17.745  0.00  0.00    +0.000 C 
BRANCH   8   9
ATOM      9  C   UNL     1       1.119   9.896  18.125  0.00  0.00    +0.000 A 
ATOM     10  C   UNL     1      -0.255   9.684  17.945  0.00  0.00    +0.000 A 
ATOM     11  C   UNL     1      -1.174  10.691  18.254  0.00  0.00    +0.000 A 
ATOM     12  C   UNL     1      -0.727  11.917  18.741  0.00  0.00    +0.000 A 
ATOM     13  C   UNL     1       0.636  12.136  18.931  0.00  0.00    +0.000 A 
ATOM     14  C   UNL     1       1.555  11.129  18.625  0.00  0.00    +0.000 A 
ENDBRANCH   8   9
ENDBRANCH   7   8
ENDBRANCH   6   7
ENDBRANCH   1   6
BRANCH   2  15
ATOM     15  C   UNL     1       6.169   5.230  19.321  0.00  0.00    +0.000 C 
BRANCH  15  16
ATOM     16  S   UNL     1       7.677   5.340  18.307  0.00  0.00    +0.000 S 
BRANCH  16  17
ATOM     17  C   UNL     1       7.785   7.037  18.061  0.00  0.00    +0.000 A 
ATOM     18  N   UNL     1       7.160   7.786  17.190  0.00  0.00    +0.000 NA
ATOM     19  N   UNL     1       7.613   9.079  17.369  0.00  0.00    +0.000 NA
ATOM     20  C   UNL     1       8.491   9.088  18.359  0.00  0.00    +0.000 A 
ATOM     21  N   UNL     1       8.626   7.798  18.812  0.00  0.00    +0.000 N 
ATOM     22  H   UNL     1       9.242   7.465  19.535  0.00  0.00    +0.000 HD
BRANCH  20  23
ATOM     23  C   UNL     1       9.217  10.245  18.885  0.00  0.00    +0.000 A 
ATOM     24  C   UNL     1       9.276  10.527  20.257  0.00  0.00    +0.000 A 
ATOM     25  C   UNL     1       9.943  11.665  20.725  0.00  0.00    +0.000 A 
ATOM     26  C   UNL     1      10.564  12.532  19.826  0.00  0.00    +0.000 A 
ATOM     27  C   UNL     1      10.524  12.259  18.462  0.00  0.00    +0.000 A 
ATOM     28  C   UNL     1       9.852  11.124  17.995  0.00  0.00    +0.000 A 
ENDBRANCH  20  23
ENDBRANCH  16  17
ENDBRANCH  15  16
ENDBRANCH   2  15
TORSDOF 8
ENDMDL
MODEL 8
REMARK VINA RESULT:      -7.2      1.773      3.630
REMARK  Name = 
REMARK  9 active torsions:
REMARK  status: ('A' for Active; 'I' for Inactive)
REMARK    1  A    between atoms: C_1  and  C_2
REMARK    2  A    between atoms: C_2  and  C_3
REMARK    3  A    between atoms: C_2  and  N_11
REMARK    4  A    between atoms: C_3  and  C_4
REMARK    5  A    between atoms: C_4  and  C_5
REMARK    6  A    between atoms: C_12  and  C_14
REMARK    7  A    between atoms: C_14  and  S_15
REMARK    8  A    between atoms: S_15  and  C_16
REMARK    9  A    between atoms: C_19  and  C_20
REMARK                            x       y       z     vdW  Elec       q    Type
REMARK                         _______ _______ _______ _____ _____    ______ ____
ROOT
ATOM      1  N   UNL     1       4.236   6.629  17.807  0.00  0.00    +0.000 N 
ATOM      2  C   UNL     1       5.004   5.735  18.534  0.00  0.00    +0.000 C 
ATOM      3  O   UNL     1       4.832   5.545  19.736  0.00  0.00    +0.000 OA
ATOM      4  H   UNL     1       4.429   6.769  16.822  0.00  0.00    +0.000 HD
ENDROOT
BRANCH   1   6
ATOM      5  C   UNL     1       2.919   8.680  17.628  0.00  0.00    +0.000 C 
ATOM      6  C   UNL     1       3.142   7.386  18.411  0.00  0.00    +0.000 C 
BRANCH   6   7
ATOM      7  C   UNL     1       1.846   6.558  18.455  0.00  0.00    +0.000 C 
BRANCH   7   8
ATOM      8  C   UNL     1       1.512   6.024  19.853  0.00  0.00    +0.000 C 
BRANCH   8   9
ATOM      9  C   UNL     1       1.604   4.515  19.898  0.00  0.00    +0.000 A 
ATOM     10  C   UNL     1       1.676   3.772  18.712  0.00  0.00    +0.000 A 
ATOM     11  C   UNL     1       1.715   2.376  18.751  0.00  0.00    +0.000 A 
ATOM     12  C   UNL     1       1.678   1.711  19.975  0.00  0.00    +0.000 A 
ATOM     13  C   UNL     1       1.613   2.439  21.161  0.00  0.00    +0.000 A 
ATOM     14  C   UNL     1       1.577   3.836  21.123  0.00  0.00    +0.000 A 
ENDBRANCH   8   9
ENDBRANCH   7   8
ENDBRANCH   6   7
ENDBRANCH   1   6
BRANCH   2  15
ATOM     15  C   UNL     1       6.073   5.002  17.735  0.00  0.00    +0.000 C 
BRANCH  15  16
ATOM     16  S   UNL     1       7.714   5.403  18.413  0.00  0.00    +0.000 S 
BRANCH  16  17
ATOM     17  C   UNL     1       7.808   7.084  18.072  0.00  0.00    +0.000 A 
ATOM     18  N   UNL     1       7.249   7.762  17.104  0.00  0.00    +0.000 NA
ATOM     19  N   UNL     1       7.657   9.075  17.241  0.00  0.00    +0.000 NA
ATOM     20  C   UNL     1       8.440   9.167  18.303  0.00  0.00    +0.000 A 
ATOM     21  N   UNL     1       8.561   7.911  18.846  0.00  0.00    +0.000 N 
ATOM     22  H   UNL     1       9.115   7.639  19.641  0.00  0.00    +0.000 HD
BRANCH  20  23
ATOM     23  C   UNL     1       9.090  10.374  18.818  0.00  0.00    +0.000 A 
ATOM     24  C   UNL     1       9.550  10.465  20.141  0.00  0.00    +0.000 A 
ATOM     25  C   UNL     1      10.130  11.648  20.614  0.00  0.00    +0.000 A 
ATOM     26  C   UNL     1      10.263  12.750  19.772  0.00  0.00    +0.000 A 
ATOM     27  C   UNL     1       9.822  12.670  18.453  0.00  0.00    +0.000 A 
ATOM     28  C   UNL     1       9.238  11.490  17.982  0.00  0.00    +0.000 A 
ENDBRANCH  20  23
ENDBRANCH  16  17
ENDBRANCH  15  16
ENDBRANCH   2  15
TORSDOF 8
ENDMDL
MODEL 9
REMARK VINA RESULT:      -7.2      3.920      7.772
REMARK  Name = 
REMARK  9 active torsions:
REMARK  status: ('A' for Active; 'I' for Inactive)
REMARK    1  A    between atoms: C_1  and  C_2
REMARK    2  A    between atoms: C_2  and  C_3
REMARK    3  A    between atoms: C_2  and  N_11
REMARK    4  A    between atoms: C_3  and  C_4
REMARK    5  A    between atoms: C_4  and  C_5
REMARK    6  A    between atoms: C_12  and  C_14
REMARK    7  A    between atoms: C_14  and  S_15
REMARK    8  A    between atoms: S_15  and  C_16
REMARK    9  A    between atoms: C_19  and  C_20
REMARK                            x       y       z     vdW  Elec       q    Type
REMARK                         _______ _______ _______ _____ _____    ______ ____
ROOT
ATOM      1  N   UNL     1       5.885   3.837  18.830  0.00  0.00    +0.000 N 
ATOM      2  C   UNL     1       4.664   3.363  18.384  0.00  0.00    +0.000 C 
ATOM      3  O   UNL     1       4.045   3.898  17.466  0.00  0.00    +0.000 OA
ATOM      4  H   UNL     1       6.348   3.376  19.605  0.00  0.00    +0.000 HD
ENDROOT
BRANCH   1   6
ATOM      5  C   UNL     1       7.566   5.574  19.194  0.00  0.00    +0.000 C 
ATOM      6  C   UNL     1       6.543   4.990  18.219  0.00  0.00    +0.000 C 
BRANCH   6   7
ATOM      7  C   UNL     1       7.227   4.606  16.895  0.00  0.00    +0.000 C 
BRANCH   7   8
ATOM      8  C   UNL     1       6.990   5.623  15.772  0.00  0.00    +0.000 C 
BRANCH   8   9
ATOM      9  C   UNL     1       6.763   4.931  14.447  0.00  0.00    +0.000 A 
ATOM     10  C   UNL     1       5.683   4.053  14.279  0.00  0.00    +0.000 A 
ATOM     11  C   UNL     1       5.499   3.378  13.070  0.00  0.00    +0.000 A 
ATOM     12  C   UNL     1       6.393   3.572  12.019  0.00  0.00    +0.000 A 
ATOM     13  C   UNL     1       7.466   4.447  12.172  0.00  0.00    +0.000 A 
ATOM     14  C   UNL     1       7.650   5.125  13.380  0.00  0.00    +0.000 A 
ENDBRANCH   8   9
ENDBRANCH   7   8
ENDBRANCH   6   7
ENDBRANCH   1   6
BRANCH   2  15
ATOM     15  C   UNL     1       4.145   2.128  19.109  0.00  0.00    +0.000 C 
BRANCH  15  16
ATOM     16  S   UNL     1       3.831   2.540  20.854  0.00  0.00    +0.000 S 
BRANCH  16  17
ATOM     17  C   UNL     1       2.630   3.758  20.693  0.00  0.00    +0.000 A 
ATOM     18  N   UNL     1       1.331   3.657  20.811  0.00  0.00    +0.000 NA
ATOM     19  N   UNL     1       0.803   4.908  20.555  0.00  0.00    +0.000 NA
ATOM     20  C   UNL     1       1.796   5.745  20.305  0.00  0.00    +0.000 A 
ATOM     21  N   UNL     1       2.971   5.036  20.376  0.00  0.00    +0.000 N 
ATOM     22  H   UNL     1       3.902   5.376  20.205  0.00  0.00    +0.000 HD
BRANCH  20  23
ATOM     23  C   UNL     1       1.691   7.170  19.987  0.00  0.00    +0.000 A 
ATOM     24  C   UNL     1       1.187   8.103  20.905  0.00  0.00    +0.000 A 
ATOM     25  C   UNL     1       1.059   9.452  20.555  0.00  0.00    +0.000 A 
ATOM     26  C   UNL     1       1.439   9.886  19.286  0.00  0.00    +0.000 A 
ATOM     27  C   UNL     1       1.953   8.973  18.368  0.00  0.00    +0.000 A 
ATOM     28  C   UNL     1       2.074   7.624  18.717  0.00  0.00    +0.000 A 
ENDBRANCH  20  23
ENDBRANCH  16  17
ENDBRANCH  15  16
ENDBRANCH   2  15
TORSDOF 8
ENDMDL
