MODEL 1
REMARK VINA RESULT:      -9.1      0.000      0.000
REMARK  Name = 
REMARK  9 active torsions:
REMARK  status: ('A' for Active; 'I' for Inactive)
REMARK    1  A    between atoms: C_1  and  C_2
REMARK    2  A    between atoms: C_7  and  C_8
REMARK    3  A    between atoms: C_8  and  N_9
REMARK    4  A    between atoms: N_9  and  C_10
REMARK    5  A    between atoms: C_10  and  C_11
REMARK    6  A    between atoms: C_16  and  S_17
REMARK    7  A    between atoms: N_18  and  C_19
REMARK    8  A    between atoms: C_25  and  O_26
REMARK    9  A    between atoms: C_29  and  C_30
REMARK                            x       y       z     vdW  Elec       q    Type
REMARK                         _______ _______ _______ _____ _____    ______ ____
ROOT
ATOM      1  N   UNL     1       4.585   4.751  17.926  0.00  0.00    +0.000 N 
ATOM      2  C   UNL     1       5.396   4.768  16.796  0.00  0.00    +0.000 C 
ATOM      3  N   UNL     1       4.923   4.526  15.607  0.00  0.00    +0.000 NA
ENDROOT
BRANCH   3   4
ATOM      4  C   UNL     1       5.687   4.468  14.433  0.00  0.00    +0.000 A 
ATOM      5  C   UNL     1       6.904   5.145  14.283  0.00  0.00    +0.000 A 
ATOM      6  C   UNL     1       7.672   5.017  13.122  0.00  0.00    +0.000 A 
ATOM      7  C   UNL     1       7.259   4.157  12.108  0.00  0.00    +0.000 A 
ATOM      8  C   UNL     1       6.079   3.431  12.255  0.00  0.00    +0.000 A 
ATOM      9  C   UNL     1       5.294   3.593  13.407  0.00  0.00    +0.000 A 
ENDBRANCH   3   4
BRANCH   2  10
ATOM     10  S   UNL     1       7.081   5.209  17.109  0.00  0.00    +0.000 S 
ATOM     11  H   UNL     1       7.652   4.365  16.245  0.00  0.00    +0.000 HD
ENDBRANCH   2  10
BRANCH   1  12
ATOM     12  C   UNL     1       3.225   5.292  17.803  0.00  0.00    +0.000 C 
BRANCH  12  19
ATOM     13  C   UNL     1      -0.800  11.659  20.145  0.00  0.00    +0.000 C 
ATOM     14  C   UNL     1       0.246  10.697  19.643  0.00  0.00    +0.000 A 
ATOM     15  C   UNL     1       0.903  10.968  18.440  0.00  0.00    +0.000 A 
ATOM     16  C   UNL     1       1.783  10.035  17.893  0.00  0.00    +0.000 A 
ATOM     17  C   UNL     1       2.053   8.827  18.558  0.00  0.00    +0.000 A 
ATOM     18  C   UNL     1       2.786   7.793  17.940  0.00  0.00    +0.000 A 
ATOM     19  C   UNL     1       2.954   6.563  18.586  0.00  0.00    +0.000 A 
ATOM     20  C   UNL     1       2.563   6.523  19.915  0.00  0.00    +0.000 A 
ATOM     21  N   UNL     1       1.837   7.480  20.522  0.00  0.00    +0.000 NA
ATOM     22  C   UNL     1       1.499   8.586  19.831  0.00  0.00    +0.000 A 
ATOM     23  C   UNL     1       0.541   9.495  20.330  0.00  0.00    +0.000 A 
ATOM     24  C   UNL     1      -0.254   9.133  21.566  0.00  0.00    +0.000 C 
BRANCH  20  25
ATOM     25  O   UNL     1       2.821   5.452  20.718  0.00  0.00    +0.000 OA
ATOM     26  H   UNL     1       3.756   5.228  20.610  0.00  0.00    +0.000 HD
ENDBRANCH  20  25
ENDBRANCH  12  19
ENDBRANCH   1  12
BRANCH   1  27
ATOM     27  C   UNL     1       4.751   3.646  18.906  0.00  0.00    +0.000 C 
BRANCH  27  28
ATOM     28  C   UNL     1       3.615   2.611  19.060  0.00  0.00    +0.000 C 
ATOM     29  C   UNL     1       2.605   2.441  17.939  0.00  0.00    +0.000 C 
ATOM     30  C   UNL     1       1.531   1.644  18.641  0.00  0.00    +0.000 C 
ATOM     31  C   UNL     1       1.536   2.234  20.039  0.00  0.00    +0.000 C 
ATOM     32  O   UNL     1       2.842   2.796  20.258  0.00  0.00    +0.000 OA
ENDBRANCH  27  28
ENDBRANCH   1  27
TORSDOF 7
ENDMDL
MODEL 2
REMARK VINA RESULT:      -8.8      1.839      2.956
REMARK  Name = 
REMARK  9 active torsions:
REMARK  status: ('A' for Active; 'I' for Inactive)
REMARK    1  A    between atoms: C_1  and  C_2
REMARK    2  A    between atoms: C_7  and  C_8
REMARK    3  A    between atoms: C_8  and  N_9
REMARK    4  A    between atoms: N_9  and  C_10
REMARK    5  A    between atoms: C_10  and  C_11
REMARK    6  A    between atoms: C_16  and  S_17
REMARK    7  A    between atoms: N_18  and  C_19
REMARK    8  A    between atoms: C_25  and  O_26
REMARK    9  A    between atoms: C_29  and  C_30
REMARK                            x       y       z     vdW  Elec       q    Type
REMARK                         _______ _______ _______ _____ _____    ______ ____
ROOT
ATOM      1  N   UNL     1       3.096   5.726  18.706  0.00  0.00    +0.000 N 
ATOM      2  C   UNL     1       3.991   5.151  17.810  0.00  0.00    +0.000 C 
ATOM      3  N   UNL     1       4.472   5.815  16.799  0.00  0.00    +0.000 NA
ENDROOT
BRANCH   3   4
ATOM      4  C   UNL     1       5.330   5.287  15.824  0.00  0.00    +0.000 A 
ATOM      5  C   UNL     1       4.869   4.575  14.710  0.00  0.00    +0.000 A 
ATOM      6  C   UNL     1       5.747   4.115  13.723  0.00  0.00    +0.000 A 
ATOM      7  C   UNL     1       7.104   4.413  13.807  0.00  0.00    +0.000 A 
ATOM      8  C   UNL     1       7.581   5.166  14.878  0.00  0.00    +0.000 A 
ATOM      9  C   UNL     1       6.700   5.592  15.884  0.00  0.00    +0.000 A 
ENDBRANCH   3   4
BRANCH   2  10
ATOM     10  S   UNL     1       4.458   3.490  18.204  0.00  0.00    +0.000 S 
ATOM     11  H   UNL     1       3.282   3.081  18.686  0.00  0.00    +0.000 HD
ENDBRANCH   2  10
BRANCH   1  12
ATOM     12  C   UNL     1       3.303   7.132  19.076  0.00  0.00    +0.000 C 
BRANCH  12  19
ATOM     13  C   UNL     1      -1.131  12.479  22.814  0.00  0.00    +0.000 C 
ATOM     14  C   UNL     1      -0.564  11.223  22.204  0.00  0.00    +0.000 A 
ATOM     15  C   UNL     1      -0.440  10.076  22.993  0.00  0.00    +0.000 A 
ATOM     16  C   UNL     1       0.194   8.941  22.488  0.00  0.00    +0.000 A 
ATOM     17  C   UNL     1       0.683   8.918  21.172  0.00  0.00    +0.000 A 
ATOM     18  C   UNL     1       1.490   7.859  20.704  0.00  0.00    +0.000 A 
ATOM     19  C   UNL     1       2.047   7.910  19.421  0.00  0.00    +0.000 A 
ATOM     20  C   UNL     1       1.575   8.921  18.600  0.00  0.00    +0.000 A 
ATOM     21  N   UNL     1       0.831   9.959  19.025  0.00  0.00    +0.000 NA
ATOM     22  C   UNL     1       0.460  10.016  20.318  0.00  0.00    +0.000 A 
ATOM     23  C   UNL     1      -0.100  11.189  20.866  0.00  0.00    +0.000 A 
ATOM     24  C   UNL     1      -0.115  12.461  20.045  0.00  0.00    +0.000 C 
BRANCH  20  25
ATOM     25  O   UNL     1       1.896   8.994  17.277  0.00  0.00    +0.000 OA
ATOM     26  H   UNL     1       1.466   9.784  16.918  0.00  0.00    +0.000 HD
ENDBRANCH  20  25
ENDBRANCH  12  19
ENDBRANCH   1  12
BRANCH   1  27
ATOM     27  C   UNL     1       1.682   5.265  18.696  0.00  0.00    +0.000 C 
BRANCH  27  28
ATOM     28  C   UNL     1       1.236   4.216  19.739  0.00  0.00    +0.000 C 
ATOM     29  C   UNL     1       1.937   4.156  21.084  0.00  0.00    +0.000 C 
ATOM     30  C   UNL     1       1.454   2.821  21.599  0.00  0.00    +0.000 C 
ATOM     31  C   UNL     1       1.410   1.973  20.341  0.00  0.00    +0.000 C 
ATOM     32  O   UNL     1       1.253   2.871  19.229  0.00  0.00    +0.000 OA
ENDBRANCH  27  28
ENDBRANCH   1  27
TORSDOF 7
ENDMDL
MODEL 3
REMARK VINA RESULT:      -8.5      3.886      6.438
REMARK  Name = 
REMARK  9 active torsions:
REMARK  status: ('A' for Active; 'I' for Inactive)
REMARK    1  A    between atoms: C_1  and  C_2
REMARK    2  A    between atoms: C_7  and  C_8
REMARK    3  A    between atoms: C_8  and  N_9
REMARK    4  A    between atoms: N_9  and  C_10
REMARK    5  A    between atoms: C_10  and  C_11
REMARK    6  A    between atoms: C_16  and  S_17
REMARK    7  A    between atoms: N_18  and  C_19
REMARK    8  A    between atoms: C_25  and  O_26
REMARK    9  A    between atoms: C_29  and  C_30
REMARK                            x       y       z     vdW  Elec       q    Type
REMARK                         _______ _______ _______ _____ _____    ______ ____
ROOT
ATOM      1  N   UNL     1       6.600   6.340  16.741  0.00  0.00    +0.000 N 
ATOM      2  C   UNL     1       7.324   7.244  17.512  0.00  0.00    +0.000 C 
ATOM      3  N   UNL     1       7.339   8.518  17.243  0.00  0.00    +0.000 NA
ENDROOT
BRANCH   3   4
ATOM      4  C   UNL     1       8.088   9.479  17.935  0.00  0.00    +0.000 A 
ATOM      5  C   UNL     1       8.901   9.164  19.031  0.00  0.00    +0.000 A 
ATOM      6  C   UNL     1       9.684  10.136  19.662  0.00  0.00    +0.000 A 
ATOM      7  C   UNL     1       9.711  11.435  19.166  0.00  0.00    +0.000 A 
ATOM      8  C   UNL     1       8.952  11.763  18.044  0.00  0.00    +0.000 A 
ATOM      9  C   UNL     1       8.140  10.791  17.439  0.00  0.00    +0.000 A 
ENDBRANCH   3   4
BRANCH   2  10
ATOM     10  S   UNL     1       8.148   6.527  18.903  0.00  0.00    +0.000 S 
ATOM     11  H   UNL     1       8.325   7.649  19.606  0.00  0.00    +0.000 HD
ENDBRANCH   2  10
BRANCH   1  12
ATOM     12  C   UNL     1       5.289   6.765  16.235  0.00  0.00    +0.000 C 
BRANCH  12  19
ATOM     13  C   UNL     1       1.391   2.511  21.613  0.00  0.00    +0.000 C 
ATOM     14  C   UNL     1       1.947   3.100  20.342  0.00  0.00    +0.000 A 
ATOM     15  C   UNL     1       2.508   2.252  19.384  0.00  0.00    +0.000 A 
ATOM     16  C   UNL     1       3.139   2.783  18.259  0.00  0.00    +0.000 A 
ATOM     17  C   UNL     1       3.188   4.171  18.051  0.00  0.00    +0.000 A 
ATOM     18  C   UNL     1       3.978   4.736  17.028  0.00  0.00    +0.000 A 
ATOM     19  C   UNL     1       4.089   6.126  16.908  0.00  0.00    +0.000 A 
ATOM     20  C   UNL     1       3.216   6.869  17.687  0.00  0.00    +0.000 A 
ATOM     21  N   UNL     1       2.475   6.362  18.689  0.00  0.00    +0.000 NA
ATOM     22  C   UNL     1       2.523   5.040  18.939  0.00  0.00    +0.000 A 
ATOM     23  C   UNL     1       1.968   4.498  20.118  0.00  0.00    +0.000 A 
ATOM     24  C   UNL     1       1.478   5.430  21.206  0.00  0.00    +0.000 C 
BRANCH  20  25
ATOM     25  O   UNL     1       3.090   8.219  17.553  0.00  0.00    +0.000 OA
ATOM     26  H   UNL     1       3.336   8.619  18.399  0.00  0.00    +0.000 HD
ENDBRANCH  20  25
ENDBRANCH  12  19
ENDBRANCH   1  12
BRANCH   1  27
ATOM     27  C   UNL     1       7.343   5.383  15.880  0.00  0.00    +0.000 C 
BRANCH  27  28
ATOM     28  C   UNL     1       6.771   5.037  14.487  0.00  0.00    +0.000 C 
ATOM     29  C   UNL     1       6.226   3.644  14.230  0.00  0.00    +0.000 C 
ATOM     30  C   UNL     1       6.129   3.649  12.722  0.00  0.00    +0.000 C 
ATOM     31  C   UNL     1       7.352   4.447  12.310  0.00  0.00    +0.000 C 
ATOM     32  O   UNL     1       7.695   5.300  13.417  0.00  0.00    +0.000 OA
ENDBRANCH  27  28
ENDBRANCH   1  27
TORSDOF 7
ENDMDL
MODEL 4
REMARK VINA RESULT:      -8.4      1.629      2.423
REMARK  Name = 
REMARK  9 active torsions:
REMARK  status: ('A' for Active; 'I' for Inactive)
REMARK    1  A    between atoms: C_1  and  C_2
REMARK    2  A    between atoms: C_7  and  C_8
REMARK    3  A    between atoms: C_8  and  N_9
REMARK    4  A    between atoms: N_9  and  C_10
REMARK    5  A    between atoms: C_10  and  C_11
REMARK    6  A    between atoms: C_16  and  S_17
REMARK    7  A    between atoms: N_18  and  C_19
REMARK    8  A    between atoms: C_25  and  O_26
REMARK    9  A    between atoms: C_29  and  C_30
REMARK                            x       y       z     vdW  Elec       q    Type
REMARK                         _______ _______ _______ _____ _____    ______ ____
ROOT
ATOM      1  N   UNL     1       3.616   5.269  18.261  0.00  0.00    +0.000 N 
ATOM      2  C   UNL     1       4.423   4.813  17.223  0.00  0.00    +0.000 C 
ATOM      3  N   UNL     1       4.755   5.581  16.225  0.00  0.00    +0.000 NA
ENDROOT
BRANCH   3   4
ATOM      4  C   UNL     1       5.513   5.177  15.117  0.00  0.00    +0.000 A 
ATOM      5  C   UNL     1       6.872   5.480  14.974  0.00  0.00    +0.000 A 
ATOM      6  C   UNL     1       7.615   5.009  13.887  0.00  0.00    +0.000 A 
ATOM      7  C   UNL     1       7.018   4.173  12.949  0.00  0.00    +0.000 A 
ATOM      8  C   UNL     1       5.681   3.812  13.096  0.00  0.00    +0.000 A 
ATOM      9  C   UNL     1       4.932   4.318  14.170  0.00  0.00    +0.000 A 
ENDBRANCH   3   4
BRANCH   2  10
ATOM     10  S   UNL     1       5.000   3.152  17.417  0.00  0.00    +0.000 S 
ATOM     11  H   UNL     1       5.954   3.397  18.319  0.00  0.00    +0.000 HD
ENDBRANCH   2  10
BRANCH   1  12
ATOM     12  C   UNL     1       3.809   6.649  18.726  0.00  0.00    +0.000 C 
BRANCH  12  19
ATOM     13  C   UNL     1      -0.784  11.897  22.412  0.00  0.00    +0.000 C 
ATOM     14  C   UNL     1      -0.191  10.657  21.794  0.00  0.00    +0.000 A 
ATOM     15  C   UNL     1      -0.098   9.490  22.557  0.00  0.00    +0.000 A 
ATOM     16  C   UNL     1       0.558   8.369  22.050  0.00  0.00    +0.000 A 
ATOM     17  C   UNL     1       1.101   8.379  20.755  0.00  0.00    +0.000 A 
ATOM     18  C   UNL     1       1.928   7.333  20.294  0.00  0.00    +0.000 A 
ATOM     19  C   UNL     1       2.539   7.417  19.038  0.00  0.00    +0.000 A 
ATOM     20  C   UNL     1       2.100   8.450  18.224  0.00  0.00    +0.000 A 
ATOM     21  N   UNL     1       1.338   9.477  18.644  0.00  0.00    +0.000 NA
ATOM     22  C   UNL     1       0.913   9.500  19.922  0.00  0.00    +0.000 A 
ATOM     23  C   UNL     1       0.329  10.659  20.477  0.00  0.00    +0.000 A 
ATOM     24  C   UNL     1       0.348  11.951  19.689  0.00  0.00    +0.000 C 
BRANCH  20  25
ATOM     25  O   UNL     1       2.477   8.558  16.918  0.00  0.00    +0.000 OA
ATOM     26  H   UNL     1       1.920   9.237  16.511  0.00  0.00    +0.000 HD
ENDBRANCH  20  25
ENDBRANCH  12  19
ENDBRANCH   1  12
BRANCH   1  27
ATOM     27  C   UNL     1       2.231   4.740  18.373  0.00  0.00    +0.000 C 
BRANCH  27  28
ATOM     28  C   UNL     1       1.932   3.659  19.435  0.00  0.00    +0.000 C 
ATOM     29  C   UNL     1       0.837   3.903  20.459  0.00  0.00    +0.000 C 
ATOM     30  C   UNL     1       1.136   2.813  21.461  0.00  0.00    +0.000 C 
ATOM     31  C   UNL     1       2.653   2.763  21.461  0.00  0.00    +0.000 C 
ATOM     32  O   UNL     1       3.094   3.272  20.190  0.00  0.00    +0.000 OA
ENDBRANCH  27  28
ENDBRANCH   1  27
TORSDOF 7
ENDMDL
MODEL 5
REMARK VINA RESULT:      -8.3      1.534      2.398
REMARK  Name = 
REMARK  9 active torsions:
REMARK  status: ('A' for Active; 'I' for Inactive)
REMARK    1  A    between atoms: C_1  and  C_2
REMARK    2  A    between atoms: C_7  and  C_8
REMARK    3  A    between atoms: C_8  and  N_9
REMARK    4  A    between atoms: N_9  and  C_10
REMARK    5  A    between atoms: C_10  and  C_11
REMARK    6  A    between atoms: C_16  and  S_17
REMARK    7  A    between atoms: N_18  and  C_19
REMARK    8  A    between atoms: C_25  and  O_26
REMARK    9  A    between atoms: C_29  and  C_30
REMARK                            x       y       z     vdW  Elec       q    Type
REMARK                         _______ _______ _______ _____ _____    ______ ____
ROOT
ATOM      1  N   UNL     1       3.823   4.683  18.098  0.00  0.00    +0.000 N 
ATOM      2  C   UNL     1       4.572   4.265  17.002  0.00  0.00    +0.000 C 
ATOM      3  N   UNL     1       4.926   5.090  16.058  0.00  0.00    +0.000 NA
ENDROOT
BRANCH   3   4
ATOM      4  C   UNL     1       5.628   4.733  14.899  0.00  0.00    +0.000 A 
ATOM      5  C   UNL     1       5.048   4.008  13.851  0.00  0.00    +0.000 A 
ATOM      6  C   UNL     1       5.758   3.721  12.681  0.00  0.00    +0.000 A 
ATOM      7  C   UNL     1       7.051   4.210  12.516  0.00  0.00    +0.000 A 
ATOM      8  C   UNL     1       7.632   4.979  13.521  0.00  0.00    +0.000 A 
ATOM      9  C   UNL     1       6.927   5.232  14.708  0.00  0.00    +0.000 A 
ENDBRANCH   3   4
BRANCH   2  10
ATOM     10  S   UNL     1       5.048   2.562  17.044  0.00  0.00    +0.000 S 
ATOM     11  H   UNL     1       5.601   2.498  15.830  0.00  0.00    +0.000 HD
ENDBRANCH   2  10
BRANCH   1  12
ATOM     12  C   UNL     1       4.114   6.005  18.665  0.00  0.00    +0.000 C 
BRANCH  12  19
ATOM     13  C   UNL     1      -0.085  12.130  21.324  0.00  0.00    +0.000 C 
ATOM     14  C   UNL     1       0.398  10.769  20.894  0.00  0.00    +0.000 A 
ATOM     15  C   UNL     1       0.266   9.688  21.769  0.00  0.00    +0.000 A 
ATOM     16  C   UNL     1       0.815   8.449  21.444  0.00  0.00    +0.000 A 
ATOM     17  C   UNL     1       1.475   8.255  20.220  0.00  0.00    +0.000 A 
ATOM     18  C   UNL     1       2.199   7.074  19.951  0.00  0.00    +0.000 A 
ATOM     19  C   UNL     1       2.931   6.949  18.765  0.00  0.00    +0.000 A 
ATOM     20  C   UNL     1       2.709   7.934  17.815  0.00  0.00    +0.000 A 
ATOM     21  N   UNL     1       2.051   9.083  18.052  0.00  0.00    +0.000 NA
ATOM     22  C   UNL     1       1.514   9.294  19.269  0.00  0.00    +0.000 A 
ATOM     23  C   UNL     1       1.036  10.567  19.646  0.00  0.00    +0.000 A 
ATOM     24  C   UNL     1       1.296  11.755  18.745  0.00  0.00    +0.000 C 
BRANCH  20  25
ATOM     25  O   UNL     1       3.218   7.855  16.552  0.00  0.00    +0.000 OA
ATOM     26  H   UNL     1       2.813   8.563  16.032  0.00  0.00    +0.000 HD
ENDBRANCH  20  25
ENDBRANCH  12  19
ENDBRANCH   1  12
BRANCH   1  27
ATOM     27  C   UNL     1       2.411   4.232  18.209  0.00  0.00    +0.000 C 
BRANCH  27  28
ATOM     28  C   UNL     1       2.015   3.311  19.385  0.00  0.00    +0.000 C 
ATOM     29  C   UNL     1       0.980   3.787  20.388  0.00  0.00    +0.000 C 
ATOM     30  C   UNL     1       1.176   2.782  21.499  0.00  0.00    +0.000 C 
ATOM     31  C   UNL     1       2.677   2.557  21.487  0.00  0.00    +0.000 C 
ATOM     32  O   UNL     1       3.143   2.874  20.164  0.00  0.00    +0.000 OA
ENDBRANCH  27  28
ENDBRANCH   1  27
TORSDOF 7
ENDMDL
MODEL 6
REMARK VINA RESULT:      -8.0      2.642      5.610
REMARK  Name = 
REMARK  9 active torsions:
REMARK  status: ('A' for Active; 'I' for Inactive)
REMARK    1  A    between atoms: C_1  and  C_2
REMARK    2  A    between atoms: C_7  and  C_8
REMARK    3  A    between atoms: C_8  and  N_9
REMARK    4  A    between atoms: N_9  and  C_10
REMARK    5  A    between atoms: C_10  and  C_11
REMARK    6  A    between atoms: C_16  and  S_17
REMARK    7  A    between atoms: N_18  and  C_19
REMARK    8  A    between atoms: C_25  and  O_26
REMARK    9  A    between atoms: C_29  and  C_30
REMARK                            x       y       z     vdW  Elec       q    Type
REMARK                         _______ _______ _______ _____ _____    ______ ____
ROOT
ATOM      1  N   UNL     1       3.164   6.934  17.828  0.00  0.00    +0.000 N 
ATOM      2  C   UNL     1       2.797   5.762  18.482  0.00  0.00    +0.000 C 
ATOM      3  N   UNL     1       3.154   5.522  19.710  0.00  0.00    +0.000 NA
ENDROOT
BRANCH   3   4
ATOM      4  C   UNL     1       2.873   4.343  20.414  0.00  0.00    +0.000 A 
ATOM      5  C   UNL     1       1.656   4.120  21.070  0.00  0.00    +0.000 A 
ATOM      6  C   UNL     1       1.382   2.908  21.711  0.00  0.00    +0.000 A 
ATOM      7  C   UNL     1       2.307   1.870  21.655  0.00  0.00    +0.000 A 
ATOM      8  C   UNL     1       3.503   2.046  20.963  0.00  0.00    +0.000 A 
ATOM      9  C   UNL     1       3.787   3.278  20.354  0.00  0.00    +0.000 A 
ENDBRANCH   3   4
BRANCH   2  10
ATOM     10  S   UNL     1       1.762   4.686  17.533  0.00  0.00    +0.000 S 
ATOM     11  H   UNL     1       2.184   3.529  18.049  0.00  0.00    +0.000 HD
ENDBRANCH   2  10
BRANCH   1  12
ATOM     12  C   UNL     1       3.176   8.180  18.605  0.00  0.00    +0.000 C 
BRANCH  12  19
ATOM     13  C   UNL     1      -1.833  12.150  23.227  0.00  0.00    +0.000 C 
ATOM     14  C   UNL     1      -1.079  11.093  22.462  0.00  0.00    +0.000 A 
ATOM     15  C   UNL     1      -0.594   9.972  23.142  0.00  0.00    +0.000 A 
ATOM     16  C   UNL     1       0.210   9.044  22.482  0.00  0.00    +0.000 A 
ATOM     17  C   UNL     1       0.515   9.198  21.120  0.00  0.00    +0.000 A 
ATOM     18  C   UNL     1       1.474   8.382  20.482  0.00  0.00    +0.000 A 
ATOM     19  C   UNL     1       1.832   8.623  19.151  0.00  0.00    +0.000 A 
ATOM     20  C   UNL     1       1.038   9.531  18.469  0.00  0.00    +0.000 A 
ATOM     21  N   UNL     1       0.139  10.343  19.055  0.00  0.00    +0.000 NA
ATOM     22  C   UNL     1      -0.063  10.251  20.384  0.00  0.00    +0.000 A 
ATOM     23  C   UNL     1      -0.799  11.232  21.081  0.00  0.00    +0.000 A 
ATOM     24  C   UNL     1      -1.211  12.501  20.366  0.00  0.00    +0.000 C 
BRANCH  20  25
ATOM     25  O   UNL     1       1.158   9.740  17.127  0.00  0.00    +0.000 OA
ATOM     26  H   UNL     1       0.488   9.196  16.689  0.00  0.00    +0.000 HD
ENDBRANCH  20  25
ENDBRANCH  12  19
ENDBRANCH   1  12
BRANCH   1  27
ATOM     27  C   UNL     1       4.160   6.853  16.727  0.00  0.00    +0.000 C 
BRANCH  27  28
ATOM     28  C   UNL     1       5.181   5.694  16.732  0.00  0.00    +0.000 C 
ATOM     29  C   UNL     1       6.455   5.827  17.548  0.00  0.00    +0.000 C 
ATOM     30  C   UNL     1       7.273   4.687  16.987  0.00  0.00    +0.000 C 
ATOM     31  C   UNL     1       6.901   4.699  15.516  0.00  0.00    +0.000 C 
ATOM     32  O   UNL     1       5.602   5.307  15.412  0.00  0.00    +0.000 OA
ENDBRANCH  27  28
ENDBRANCH   1  27
TORSDOF 7
ENDMDL
MODEL 7
REMARK VINA RESULT:      -7.8      3.150      5.679
REMARK  Name = 
REMARK  9 active torsions:
REMARK  status: ('A' for Active; 'I' for Inactive)
REMARK    1  A    between atoms: C_1  and  C_2
REMARK    2  A    between atoms: C_7  and  C_8
REMARK    3  A    between atoms: C_8  and  N_9
REMARK    4  A    between atoms: N_9  and  C_10
REMARK    5  A    between atoms: C_10  and  C_11
REMARK    6  A    between atoms: C_16  and  S_17
REMARK    7  A    between atoms: N_18  and  C_19
REMARK    8  A    between atoms: C_25  and  O_26
REMARK    9  A    between atoms: C_29  and  C_30
REMARK                            x       y       z     vdW  Elec       q    Type
REMARK                         _______ _______ _______ _____ _____    ______ ____
ROOT
ATOM      1  N   UNL     1       3.423   6.602  17.696  0.00  0.00    +0.000 N 
ATOM      2  C   UNL     1       2.966   5.461  18.348  0.00  0.00    +0.000 C 
ATOM      3  N   UNL     1       3.269   5.212  19.589  0.00  0.00    +0.000 NA
ENDROOT
BRANCH   3   4
ATOM      4  C   UNL     1       2.895   4.059  20.293  0.00  0.00    +0.000 A 
ATOM      5  C   UNL     1       3.753   2.966  20.474  0.00  0.00    +0.000 A 
ATOM      6  C   UNL     1       3.370   1.857  21.235  0.00  0.00    +0.000 A 
ATOM      7  C   UNL     1       2.137   1.848  21.878  0.00  0.00    +0.000 A 
ATOM      8  C   UNL     1       1.287   2.945  21.758  0.00  0.00    +0.000 A 
ATOM      9  C   UNL     1       1.661   4.039  20.963  0.00  0.00    +0.000 A 
ENDBRANCH   3   4
BRANCH   2  10
ATOM     10  S   UNL     1       1.899   4.439  17.375  0.00  0.00    +0.000 S 
ATOM     11  H   UNL     1       2.602   3.307  17.465  0.00  0.00    +0.000 HD
ENDBRANCH   2  10
BRANCH   1  12
ATOM     12  C   UNL     1       3.485   7.853  18.463  0.00  0.00    +0.000 C 
BRANCH  12  19
ATOM     13  C   UNL     1      -1.460  11.889  23.097  0.00  0.00    +0.000 C 
ATOM     14  C   UNL     1      -0.757  10.833  22.283  0.00  0.00    +0.000 A 
ATOM     15  C   UNL     1      -0.447   9.607  22.876  0.00  0.00    +0.000 A 
ATOM     16  C   UNL     1       0.311   8.663  22.184  0.00  0.00    +0.000 A 
ATOM     17  C   UNL     1       0.742   8.912  20.871  0.00  0.00    +0.000 A 
ATOM     18  C   UNL     1       1.662   8.061  20.223  0.00  0.00    +0.000 A 
ATOM     19  C   UNL     1       2.153   8.386  18.954  0.00  0.00    +0.000 A 
ATOM     20  C   UNL     1       1.515   9.437  18.314  0.00  0.00    +0.000 A 
ATOM     21  N   UNL     1       0.658  10.284  18.914  0.00  0.00    +0.000 NA
ATOM     22  C   UNL     1       0.338  10.087  20.208  0.00  0.00    +0.000 A 
ATOM     23  C   UNL     1      -0.350  11.072  20.948  0.00  0.00    +0.000 A 
ATOM     24  C   UNL     1      -0.569  12.441  20.340  0.00  0.00    +0.000 C 
BRANCH  20  25
ATOM     25  O   UNL     1       1.766   9.758  17.013  0.00  0.00    +0.000 OA
ATOM     26  H   UNL     1       1.090   9.326  16.472  0.00  0.00    +0.000 HD
ENDBRANCH  20  25
ENDBRANCH  12  19
ENDBRANCH   1  12
BRANCH   1  27
ATOM     27  C   UNL     1       4.447   6.451  16.628  0.00  0.00    +0.000 C 
BRANCH  27  28
ATOM     28  C   UNL     1       5.934   6.348  17.033  0.00  0.00    +0.000 C 
ATOM     29  C   UNL     1       6.298   5.788  18.397  0.00  0.00    +0.000 C 
ATOM     30  C   UNL     1       7.747   6.202  18.498  0.00  0.00    +0.000 C 
ATOM     31  C   UNL     1       7.755   7.564  17.828  0.00  0.00    +0.000 C 
ATOM     32  O   UNL     1       6.637   7.598  16.923  0.00  0.00    +0.000 OA
ENDBRANCH  27  28
ENDBRANCH   1  27
TORSDOF 7
ENDMDL
MODEL 8
REMARK VINA RESULT:      -7.8      2.027      3.221
REMARK  Name = 
REMARK  9 active torsions:
REMARK  status: ('A' for Active; 'I' for Inactive)
REMARK    1  A    between atoms: C_1  and  C_2
REMARK    2  A    between atoms: C_7  and  C_8
REMARK    3  A    between atoms: C_8  and  N_9
REMARK    4  A    between atoms: N_9  and  C_10
REMARK    5  A    between atoms: C_10  and  C_11
REMARK    6  A    between atoms: C_16  and  S_17
REMARK    7  A    between atoms: N_18  and  C_19
REMARK    8  A    between atoms: C_25  and  O_26
REMARK    9  A    between atoms: C_29  and  C_30
REMARK                            x       y       z     vdW  Elec       q    Type
REMARK                         _______ _______ _______ _____ _____    ______ ____
ROOT
ATOM      1  N   UNL     1       2.982   6.752  19.125  0.00  0.00    +0.000 N 
ATOM      2  C   UNL     1       3.985   6.120  18.396  0.00  0.00    +0.000 C 
ATOM      3  N   UNL     1       4.149   6.339  17.123  0.00  0.00    +0.000 NA
ENDROOT
BRANCH   3   4
ATOM      4  C   UNL     1       5.096   5.698  16.312  0.00  0.00    +0.000 A 
ATOM      5  C   UNL     1       6.459   6.016  16.337  0.00  0.00    +0.000 A 
ATOM      6  C   UNL     1       7.387   5.315  15.561  0.00  0.00    +0.000 A 
ATOM      7  C   UNL     1       6.970   4.238  14.785  0.00  0.00    +0.000 A 
ATOM      8  C   UNL     1       5.627   3.866  14.783  0.00  0.00    +0.000 A 
ATOM      9  C   UNL     1       4.696   4.598  15.536  0.00  0.00    +0.000 A 
ENDBRANCH   3   4
BRANCH   2  10
ATOM     10  S   UNL     1       5.036   5.068  19.354  0.00  0.00    +0.000 S 
ATOM     11  H   UNL     1       4.120   4.649  20.232  0.00  0.00    +0.000 HD
ENDBRANCH   2  10
BRANCH   1  12
ATOM     12  C   UNL     1       2.685   8.155  18.810  0.00  0.00    +0.000 C 
BRANCH  12  19
ATOM     13  C   UNL     1      -2.015  12.665  23.259  0.00  0.00    +0.000 C 
ATOM     14  C   UNL     1      -1.325  11.523  22.559  0.00  0.00    +0.000 A 
ATOM     15  C   UNL     1      -0.849  10.447  23.313  0.00  0.00    +0.000 A 
ATOM     16  C   UNL     1      -0.100   9.440  22.705  0.00  0.00    +0.000 A 
ATOM     17  C   UNL     1       0.156   9.469  21.325  0.00  0.00    +0.000 A 
ATOM     18  C   UNL     1       1.064   8.571  20.724  0.00  0.00    +0.000 A 
ATOM     19  C   UNL     1       1.377   8.688  19.365  0.00  0.00    +0.000 A 
ATOM     20  C   UNL     1       0.586   9.563  18.638  0.00  0.00    +0.000 A 
ATOM     21  N   UNL     1      -0.263  10.452  19.186  0.00  0.00    +0.000 NA
ATOM     22  C   UNL     1      -0.416  10.477  20.524  0.00  0.00    +0.000 A 
ATOM     23  C   UNL     1      -1.094  11.537  21.162  0.00  0.00    +0.000 A 
ATOM     24  C   UNL     1      -1.494  12.756  20.357  0.00  0.00    +0.000 C 
BRANCH  20  25
ATOM     25  O   UNL     1       0.660   9.655  17.280  0.00  0.00    +0.000 OA
ATOM     26  H   UNL     1       1.572   9.889  17.055  0.00  0.00    +0.000 HD
ENDBRANCH  20  25
ENDBRANCH  12  19
ENDBRANCH   1  12
BRANCH   1  27
ATOM     27  C   UNL     1       1.831   5.943  19.605  0.00  0.00    +0.000 C 
BRANCH  27  28
ATOM     28  C   UNL     1       2.039   4.434  19.860  0.00  0.00    +0.000 C 
ATOM     29  C   UNL     1       1.302   3.424  18.998  0.00  0.00    +0.000 C 
ATOM     30  C   UNL     1       1.505   2.161  19.802  0.00  0.00    +0.000 C 
ATOM     31  C   UNL     1       1.420   2.657  21.233  0.00  0.00    +0.000 C 
ATOM     32  O   UNL     1       1.777   4.050  21.221  0.00  0.00    +0.000 OA
ENDBRANCH  27  28
ENDBRANCH   1  27
TORSDOF 7
ENDMDL
MODEL 9
REMARK VINA RESULT:      -7.8      4.367     10.761
REMARK  Name = 
REMARK  9 active torsions:
REMARK  status: ('A' for Active; 'I' for Inactive)
REMARK    1  A    between atoms: C_1  and  C_2
REMARK    2  A    between atoms: C_7  and  C_8
REMARK    3  A    between atoms: C_8  and  N_9
REMARK    4  A    between atoms: N_9  and  C_10
REMARK    5  A    between atoms: C_10  and  C_11
REMARK    6  A    between atoms: C_16  and  S_17
REMARK    7  A    between atoms: N_18  and  C_19
REMARK    8  A    between atoms: C_25  and  O_26
REMARK    9  A    between atoms: C_29  and  C_30
REMARK                            x       y       z     vdW  Elec       q    Type
REMARK                         _______ _______ _______ _____ _____    ______ ____
ROOT
ATOM      1  N   UNL     1      -0.121  12.413  19.563  0.00  0.00    +0.000 N 
ATOM      2  C   UNL     1      -0.910  12.750  20.658  0.00  0.00    +0.000 C 
ATOM      3  N   UNL     1      -2.156  12.383  20.744  0.00  0.00    +0.000 NA
ENDROOT
BRANCH   3   4
ATOM      4  C   UNL     1      -3.028  12.732  21.784  0.00  0.00    +0.000 A 
ATOM      5  C   UNL     1      -4.148  13.551  21.596  0.00  0.00    +0.000 A 
ATOM      6  C   UNL     1      -5.033  13.830  22.643  0.00  0.00    +0.000 A 
ATOM      7  C   UNL     1      -4.841  13.242  23.889  0.00  0.00    +0.000 A 
ATOM      8  C   UNL     1      -3.765  12.380  24.088  0.00  0.00    +0.000 A 
ATOM      9  C   UNL     1      -2.860  12.134  23.044  0.00  0.00    +0.000 A 
ENDBRANCH   3   4
BRANCH   2  10
ATOM     10  S   UNL     1      -0.062  13.645  21.927  0.00  0.00    +0.000 S 
ATOM     11  H   UNL     1       1.086  13.840  21.273  0.00  0.00    +0.000 HD
ENDBRANCH   2  10
BRANCH   1  12
ATOM     12  C   UNL     1      -0.297  11.080  18.973  0.00  0.00    +0.000 C 
BRANCH  12  19
ATOM     13  C   UNL     1       3.320   4.076  19.267  0.00  0.00    +0.000 C 
ATOM     14  C   UNL     1       2.760   5.443  19.567  0.00  0.00    +0.000 A 
ATOM     15  C   UNL     1       1.996   5.630  20.722  0.00  0.00    +0.000 A 
ATOM     16  C   UNL     1       1.365   6.851  20.957  0.00  0.00    +0.000 A 
ATOM     17  C   UNL     1       1.516   7.921  20.061  0.00  0.00    +0.000 A 
ATOM     18  C   UNL     1       0.742   9.095  20.176  0.00  0.00    +0.000 A 
ATOM     19  C   UNL     1       0.840  10.104  19.211  0.00  0.00    +0.000 A 
ATOM     20  C   UNL     1       1.880   9.970  18.305  0.00  0.00    +0.000 A 
ATOM     21  N   UNL     1       2.613   8.852  18.151  0.00  0.00    +0.000 NA
ATOM     22  C   UNL     1       2.380   7.797  18.954  0.00  0.00    +0.000 A 
ATOM     23  C   UNL     1       2.939   6.531  18.679  0.00  0.00    +0.000 A 
ATOM     24  C   UNL     1       3.657   6.305  17.366  0.00  0.00    +0.000 C 
BRANCH  20  25
ATOM     25  O   UNL     1       2.204  10.953  17.418  0.00  0.00    +0.000 OA
ATOM     26  H   UNL     1       2.289  11.777  17.918  0.00  0.00    +0.000 HD
ENDBRANCH  20  25
ENDBRANCH  12  19
ENDBRANCH   1  12
BRANCH   1  27
ATOM     27  C   UNL     1       0.281  13.487  18.617  0.00  0.00    +0.000 C 
BRANCH  27  28
ATOM     28  C   UNL     1       1.608  14.239  18.865  0.00  0.00    +0.000 C 
ATOM     29  C   UNL     1       1.672  15.736  18.623  0.00  0.00    +0.000 C 
ATOM     30  C   UNL     1       3.166  15.963  18.632  0.00  0.00    +0.000 C 
ATOM     31  C   UNL     1       3.699  14.714  17.955  0.00  0.00    +0.000 C 
ATOM     32  O   UNL     1       2.718  13.678  18.143  0.00  0.00    +0.000 OA
ENDBRANCH  27  28
ENDBRANCH   1  27
TORSDOF 7
ENDMDL
