MODEL 1
REMARK VINA RESULT:      -7.8      0.000      0.000
REMARK  Name = 
REMARK  6 active torsions:
REMARK  status: ('A' for Active; 'I' for Inactive)
REMARK    1  A    between atoms: C_1  and  S_2
REMARK    2  A    between atoms: S_2  and  C_5
REMARK    3  A    between atoms: C_8  and  C_9
REMARK    4  A    between atoms: C_12  and  C_13
REMARK    5  A    between atoms: C_13  and  N_14
REMARK    6  A    between atoms: C_23  and  C_25
REMARK                            x       y       z     vdW  Elec       q    Type
REMARK                         _______ _______ _______ _____ _____    ______ ____
ROOT
ATOM      1  C   UNL     1      -0.181  11.589  19.707  0.00  0.00    +0.000 C 
ENDROOT
BRANCH   1   2
ATOM      2  N   UNL     1      -0.272  12.635  20.723  0.00  0.00    +0.000 N 
ATOM      3  C   UNL     1       0.900  13.226  21.194  0.00  0.00    +0.000 C 
ATOM      4  O   UNL     1       2.029  12.779  21.021  0.00  0.00    +0.000 OA
ATOM      5  C   UNL     1       0.631  14.526  21.915  0.00  0.00    +0.000 C 
ATOM      6  S   UNL     1      -1.104  14.915  21.593  0.00  0.00    +0.000 S 
ATOM      7  C   UNL     1      -1.534  13.157  21.260  0.00  0.00    +0.000 C 
ATOM      8  C   UNL     1      -2.744  13.046  20.321  0.00  0.00    +0.000 C 
ATOM      9  C   UNL     1      -4.025  13.593  20.946  0.00  0.00    +0.000 C 
ATOM     10  N   UNL     1      -4.294  12.960  22.241  0.00  0.00    +0.000 N 
ATOM     11  C   UNL     1      -5.584  12.704  22.735  0.00  0.00    +0.000 C 
ATOM     12  O   UNL     1      -5.755  12.341  23.899  0.00  0.00    +0.000 OA
ATOM     13  C   UNL     1      -3.192  12.999  23.205  0.00  0.00    +0.000 C 
ATOM     14  C   UNL     1      -1.886  12.477  22.605  0.00  0.00    +0.000 C 
BRANCH  11  15
ATOM     15  C   UNL     1      -6.736  12.884  21.753  0.00  0.00    +0.000 C 
ATOM     16 CL   UNL     1      -6.986  11.445  20.742  0.00  0.00    +0.000 Cl
ENDBRANCH  11  15
ENDBRANCH   1   2
BRANCH   1  20
ATOM     17  C   UNL     1       1.104   8.306  20.514  0.00  0.00    +0.000 A 
ATOM     18  C   UNL     1       0.470   8.530  21.719  0.00  0.00    +0.000 A 
ATOM     19  C   UNL     1      -0.153   9.791  21.620  0.00  0.00    +0.000 A 
ATOM     20  C   UNL     1       0.151  10.288  20.368  0.00  0.00    +0.000 A 
ATOM     21  O   UNL     1       0.909   9.379  19.681  0.00  0.00    +0.000 OA
BRANCH  17  25
ATOM     22  C   UNL     1       3.524   5.117  19.043  0.00  0.00    +0.000 A 
ATOM     23  C   UNL     1       2.785   4.935  20.215  0.00  0.00    +0.000 A 
ATOM     24  C   UNL     1       1.976   5.974  20.689  0.00  0.00    +0.000 A 
ATOM     25  C   UNL     1       1.913   7.200  20.011  0.00  0.00    +0.000 A 
ATOM     26  C   UNL     1       2.685   7.368  18.849  0.00  0.00    +0.000 A 
ATOM     27  C   UNL     1       3.491   6.335  18.363  0.00  0.00    +0.000 A 
BRANCH  22  29
ATOM     28  C   UNL     1       3.875   2.369  19.240  0.00  0.00    +0.000 C 
ATOM     29  S   UNL     1       4.541   3.799  18.425  0.00  0.00    +0.000 S 
ATOM     30  O   UNL     1       5.888   4.015  18.919  0.00  0.00    +0.000 OA
ATOM     31  O   UNL     1       4.279   3.670  17.005  0.00  0.00    +0.000 OA
ENDBRANCH  22  29
ENDBRANCH  17  25
ENDBRANCH   1  20
TORSDOF 5
ENDMDL
MODEL 2
REMARK VINA RESULT:      -7.7      0.744      1.000
REMARK  Name = 
REMARK  6 active torsions:
REMARK  status: ('A' for Active; 'I' for Inactive)
REMARK    1  A    between atoms: C_1  and  S_2
REMARK    2  A    between atoms: S_2  and  C_5
REMARK    3  A    between atoms: C_8  and  C_9
REMARK    4  A    between atoms: C_12  and  C_13
REMARK    5  A    between atoms: C_13  and  N_14
REMARK    6  A    between atoms: C_23  and  C_25
REMARK                            x       y       z     vdW  Elec       q    Type
REMARK                         _______ _______ _______ _____ _____    ______ ____
ROOT
ATOM      1  C   UNL     1       0.125  11.662  19.720  0.00  0.00    +0.000 C 
ENDROOT
BRANCH   1   2
ATOM      2  N   UNL     1      -0.073  12.731  20.697  0.00  0.00    +0.000 N 
ATOM      3  C   UNL     1       1.042  13.382  21.226  0.00  0.00    +0.000 C 
ATOM      4  O   UNL     1       2.196  12.976  21.140  0.00  0.00    +0.000 OA
ATOM      5  C   UNL     1       0.675  14.688  21.889  0.00  0.00    +0.000 C 
ATOM      6  S   UNL     1      -1.049  14.998  21.445  0.00  0.00    +0.000 S 
ATOM      7  C   UNL     1      -1.387  13.215  21.136  0.00  0.00    +0.000 C 
ATOM      8  C   UNL     1      -2.528  13.029  20.125  0.00  0.00    +0.000 C 
ATOM      9  C   UNL     1      -3.868  13.540  20.649  0.00  0.00    +0.000 C 
ATOM     10  N   UNL     1      -4.196  12.931  21.941  0.00  0.00    +0.000 N 
ATOM     11  C   UNL     1      -5.505  12.636  22.358  0.00  0.00    +0.000 C 
ATOM     12  O   UNL     1      -5.738  12.298  23.519  0.00  0.00    +0.000 OA
ATOM     13  C   UNL     1      -3.162  13.041  22.974  0.00  0.00    +0.000 C 
ATOM     14  C   UNL     1      -1.800  12.557  22.475  0.00  0.00    +0.000 C 
BRANCH  11  15
ATOM     15  C   UNL     1      -6.595  12.742  21.299  0.00  0.00    +0.000 C 
ATOM     16 CL   UNL     1      -7.644  11.309  21.269  0.00  0.00    +0.000 Cl
ENDBRANCH  11  15
ENDBRANCH   1   2
BRANCH   1  20
ATOM     17  C   UNL     1       1.279   8.354  20.617  0.00  0.00    +0.000 A 
ATOM     18  C   UNL     1       0.875   8.731  21.882  0.00  0.00    +0.000 A 
ATOM     19  C   UNL     1       0.340  10.030  21.765  0.00  0.00    +0.000 A 
ATOM     20  C   UNL     1       0.466  10.395  20.440  0.00  0.00    +0.000 A 
ATOM     21  O   UNL     1       1.027   9.369  19.728  0.00  0.00    +0.000 OA
BRANCH  17  25
ATOM     22  C   UNL     1       3.173   4.849  19.095  0.00  0.00    +0.000 A 
ATOM     23  C   UNL     1       2.459   4.779  20.294  0.00  0.00    +0.000 A 
ATOM     24  C   UNL     1       1.821   5.924  20.786  0.00  0.00    +0.000 A 
ATOM     25  C   UNL     1       1.906   7.142  20.098  0.00  0.00    +0.000 A 
ATOM     26  C   UNL     1       2.652   7.195  18.907  0.00  0.00    +0.000 A 
ATOM     27  C   UNL     1       3.287   6.056  18.404  0.00  0.00    +0.000 A 
BRANCH  22  29
ATOM     28  C   UNL     1       4.834   4.016  17.031  0.00  0.00    +0.000 C 
ATOM     29  S   UNL     1       3.973   3.398  18.455  0.00  0.00    +0.000 S 
ATOM     30  O   UNL     1       2.937   2.491  17.999  0.00  0.00    +0.000 OA
ATOM     31  O   UNL     1       4.960   2.975  19.430  0.00  0.00    +0.000 OA
ENDBRANCH  22  29
ENDBRANCH  17  25
ENDBRANCH   1  20
TORSDOF 5
ENDMDL
MODEL 3
REMARK VINA RESULT:      -7.7      0.703      1.260
REMARK  Name = 
REMARK  6 active torsions:
REMARK  status: ('A' for Active; 'I' for Inactive)
REMARK    1  A    between atoms: C_1  and  S_2
REMARK    2  A    between atoms: S_2  and  C_5
REMARK    3  A    between atoms: C_8  and  C_9
REMARK    4  A    between atoms: C_12  and  C_13
REMARK    5  A    between atoms: C_13  and  N_14
REMARK    6  A    between atoms: C_23  and  C_25
REMARK                            x       y       z     vdW  Elec       q    Type
REMARK                         _______ _______ _______ _____ _____    ______ ____
ROOT
ATOM      1  C   UNL     1      -0.241  11.753  19.696  0.00  0.00    +0.000 C 
ENDROOT
BRANCH   1   2
ATOM      2  N   UNL     1      -0.321  12.757  20.755  0.00  0.00    +0.000 N 
ATOM      3  C   UNL     1       0.855  13.329  21.238  0.00  0.00    +0.000 C 
ATOM      4  O   UNL     1       1.982  12.888  21.037  0.00  0.00    +0.000 OA
ATOM      5  C   UNL     1       0.594  14.599  22.013  0.00  0.00    +0.000 C 
ATOM      6  S   UNL     1      -1.144  15.001  21.724  0.00  0.00    +0.000 S 
ATOM      7  C   UNL     1      -1.578  13.258  21.324  0.00  0.00    +0.000 C 
ATOM      8  C   UNL     1      -2.797  13.185  20.393  0.00  0.00    +0.000 C 
ATOM      9  C   UNL     1      -4.072  13.707  21.051  0.00  0.00    +0.000 C 
ATOM     10  N   UNL     1      -4.329  13.023  22.322  0.00  0.00    +0.000 N 
ATOM     11  C   UNL     1      -5.615  12.747  22.817  0.00  0.00    +0.000 C 
ATOM     12  O   UNL     1      -5.775  12.338  23.967  0.00  0.00    +0.000 OA
ATOM     13  C   UNL     1      -3.218  13.022  23.277  0.00  0.00    +0.000 C 
ATOM     14  C   UNL     1      -1.919  12.524  22.644  0.00  0.00    +0.000 C 
BRANCH  11  15
ATOM     15  C   UNL     1      -6.775  12.967  21.854  0.00  0.00    +0.000 C 
ATOM     16 CL   UNL     1      -7.308  11.455  21.090  0.00  0.00    +0.000 Cl
ENDBRANCH  11  15
ENDBRANCH   1   2
BRANCH   1  20
ATOM     17  C   UNL     1       1.197   8.495  20.324  0.00  0.00    +0.000 A 
ATOM     18  C   UNL     1       0.601   8.647  21.559  0.00  0.00    +0.000 A 
ATOM     19  C   UNL     1      -0.072   9.885  21.534  0.00  0.00    +0.000 A 
ATOM     20  C   UNL     1       0.165  10.442  20.293  0.00  0.00    +0.000 A 
ATOM     21  O   UNL     1       0.930   9.590  19.542  0.00  0.00    +0.000 OA
BRANCH  17  25
ATOM     22  C   UNL     1       3.564   5.368  18.648  0.00  0.00    +0.000 A 
ATOM     23  C   UNL     1       3.434   6.577  17.959  0.00  0.00    +0.000 A 
ATOM     24  C   UNL     1       2.673   7.611  18.517  0.00  0.00    +0.000 A 
ATOM     25  C   UNL     1       2.026   7.440  19.748  0.00  0.00    +0.000 A 
ATOM     26  C   UNL     1       2.150   6.206  20.410  0.00  0.00    +0.000 A 
ATOM     27  C   UNL     1       2.913   5.170  19.866  0.00  0.00    +0.000 A 
BRANCH  22  29
ATOM     28  C   UNL     1       6.203   4.632  18.194  0.00  0.00    +0.000 C 
ATOM     29  S   UNL     1       4.541   4.056  17.956  0.00  0.00    +0.000 S 
ATOM     30  O   UNL     1       4.276   4.017  16.530  0.00  0.00    +0.000 OA
ATOM     31  O   UNL     1       4.348   2.881  18.784  0.00  0.00    +0.000 OA
ENDBRANCH  22  29
ENDBRANCH  17  25
ENDBRANCH   1  20
TORSDOF 5
ENDMDL
MODEL 4
REMARK VINA RESULT:      -7.6      1.137      1.166
REMARK  Name = 
REMARK  6 active torsions:
REMARK  status: ('A' for Active; 'I' for Inactive)
REMARK    1  A    between atoms: C_1  and  S_2
REMARK    2  A    between atoms: S_2  and  C_5
REMARK    3  A    between atoms: C_8  and  C_9
REMARK    4  A    between atoms: C_12  and  C_13
REMARK    5  A    between atoms: C_13  and  N_14
REMARK    6  A    between atoms: C_23  and  C_25
REMARK                            x       y       z     vdW  Elec       q    Type
REMARK                         _______ _______ _______ _____ _____    ______ ____
ROOT
ATOM      1  C   UNL     1      -0.086  11.486  19.417  0.00  0.00    +0.000 C 
ENDROOT
BRANCH   1   2
ATOM      2  N   UNL     1       0.039  12.687  20.241  0.00  0.00    +0.000 N 
ATOM      3  C   UNL     1       1.245  13.387  20.241  0.00  0.00    +0.000 C 
ATOM      4  O   UNL     1       2.307  12.954  19.806  0.00  0.00    +0.000 OA
ATOM      5  C   UNL     1       1.092  14.781  20.802  0.00  0.00    +0.000 C 
ATOM      6  S   UNL     1      -0.687  15.054  20.964  0.00  0.00    +0.000 S 
ATOM      7  C   UNL     1      -1.050  13.251  21.047  0.00  0.00    +0.000 C 
ATOM      8  C   UNL     1      -2.468  12.943  20.546  0.00  0.00    +0.000 C 
ATOM      9  C   UNL     1      -3.551  13.546  21.437  0.00  0.00    +0.000 C 
ATOM     10  N   UNL     1      -3.377  13.134  22.833  0.00  0.00    +0.000 N 
ATOM     11  C   UNL     1      -4.441  12.923  23.727  0.00  0.00    +0.000 C 
ATOM     12  O   UNL     1      -4.234  12.759  24.929  0.00  0.00    +0.000 OA
ATOM     13  C   UNL     1      -2.049  13.372  23.403  0.00  0.00    +0.000 C 
ATOM     14  C   UNL     1      -0.937  12.798  22.523  0.00  0.00    +0.000 C 
BRANCH  11  15
ATOM     15  C   UNL     1      -5.840  12.896  23.122  0.00  0.00    +0.000 C 
ATOM     16 CL   UNL     1      -6.933  14.053  23.911  0.00  0.00    +0.000 Cl
ENDBRANCH  11  15
ENDBRANCH   1   2
BRANCH   1  20
ATOM     17  C   UNL     1       1.362   8.332  20.432  0.00  0.00    +0.000 A 
ATOM     18  C   UNL     1       1.083   8.796  21.702  0.00  0.00    +0.000 A 
ATOM     19  C   UNL     1       0.461  10.051  21.546  0.00  0.00    +0.000 A 
ATOM     20  C   UNL     1       0.411  10.305  20.190  0.00  0.00    +0.000 A 
ATOM     21  O   UNL     1       0.948   9.251  19.502  0.00  0.00    +0.000 OA
BRANCH  17  25
ATOM     22  C   UNL     1       3.281   4.806  18.991  0.00  0.00    +0.000 A 
ATOM     23  C   UNL     1       2.557   4.755  20.185  0.00  0.00    +0.000 A 
ATOM     24  C   UNL     1       1.911   5.907  20.650  0.00  0.00    +0.000 A 
ATOM     25  C   UNL     1       1.997   7.113  19.941  0.00  0.00    +0.000 A 
ATOM     26  C   UNL     1       2.753   7.146  18.756  0.00  0.00    +0.000 A 
ATOM     27  C   UNL     1       3.396   6.000  18.280  0.00  0.00    +0.000 A 
BRANCH  22  29
ATOM     28  C   UNL     1       2.750   2.198  18.197  0.00  0.00    +0.000 C 
ATOM     29  S   UNL     1       4.091   3.346  18.386  0.00  0.00    +0.000 S 
ATOM     30  O   UNL     1       4.960   2.858  19.439  0.00  0.00    +0.000 OA
ATOM     31  O   UNL     1       4.614   3.649  17.067  0.00  0.00    +0.000 OA
ENDBRANCH  22  29
ENDBRANCH  17  25
ENDBRANCH   1  20
TORSDOF 5
ENDMDL
MODEL 5
REMARK VINA RESULT:      -7.6      3.575      5.396
REMARK  Name = 
REMARK  6 active torsions:
REMARK  status: ('A' for Active; 'I' for Inactive)
REMARK    1  A    between atoms: C_1  and  S_2
REMARK    2  A    between atoms: S_2  and  C_5
REMARK    3  A    between atoms: C_8  and  C_9
REMARK    4  A    between atoms: C_12  and  C_13
REMARK    5  A    between atoms: C_13  and  N_14
REMARK    6  A    between atoms: C_23  and  C_25
REMARK                            x       y       z     vdW  Elec       q    Type
REMARK                         _______ _______ _______ _____ _____    ______ ____
ROOT
ATOM      1  C   UNL     1      -0.762  11.539  18.676  0.00  0.00    +0.000 C 
ENDROOT
BRANCH   1   2
ATOM      2  N   UNL     1      -0.799  12.729  19.523  0.00  0.00    +0.000 N 
ATOM      3  C   UNL     1      -1.918  12.959  20.322  0.00  0.00    +0.000 C 
ATOM      4  O   UNL     1      -2.996  12.387  20.200  0.00  0.00    +0.000 OA
ATOM      5  C   UNL     1      -1.644  13.975  21.406  0.00  0.00    +0.000 C 
ATOM      6  S   UNL     1       0.143  14.244  21.385  0.00  0.00    +0.000 S 
ATOM      7  C   UNL     1       0.300  13.696  19.636  0.00  0.00    +0.000 C 
ATOM      8  C   UNL     1       1.701  13.137  19.348  0.00  0.00    +0.000 C 
ATOM      9  C   UNL     1       2.793  14.196  19.468  0.00  0.00    +0.000 C 
ATOM     10  N   UNL     1       2.498  15.357  18.623  0.00  0.00    +0.000 N 
ATOM     11  C   UNL     1       3.482  16.134  17.987  0.00  0.00    +0.000 C 
ATOM     12  O   UNL     1       3.193  17.200  17.443  0.00  0.00    +0.000 OA
ATOM     13  C   UNL     1       1.175  15.957  18.810  0.00  0.00    +0.000 C 
ATOM     14  C   UNL     1       0.057  14.919  18.717  0.00  0.00    +0.000 C 
BRANCH  11  15
ATOM     15  C   UNL     1       4.900  15.577  18.000  0.00  0.00    +0.000 C 
ATOM     16 CL   UNL     1       6.051  16.688  18.772  0.00  0.00    +0.000 Cl
ENDBRANCH  11  15
ENDBRANCH   1   2
BRANCH   1  20
ATOM     17  C   UNL     1       1.235   8.691  19.666  0.00  0.00    +0.000 A 
ATOM     18  C   UNL     1       0.693   8.946  20.909  0.00  0.00    +0.000 A 
ATOM     19  C   UNL     1      -0.179  10.043  20.753  0.00  0.00    +0.000 A 
ATOM     20  C   UNL     1      -0.109  10.422  19.427  0.00  0.00    +0.000 A 
ATOM     21  O   UNL     1       0.744   9.590  18.753  0.00  0.00    +0.000 OA
BRANCH  17  25
ATOM     22  C   UNL     1       4.090   5.850  18.264  0.00  0.00    +0.000 A 
ATOM     23  C   UNL     1       3.429   5.620  19.473  0.00  0.00    +0.000 A 
ATOM     24  C   UNL     1       2.477   6.542  19.925  0.00  0.00    +0.000 A 
ATOM     25  C   UNL     1       2.195   7.701  19.188  0.00  0.00    +0.000 A 
ATOM     26  C   UNL     1       2.893   7.923  17.988  0.00  0.00    +0.000 A 
ATOM     27  C   UNL     1       3.839   7.006  17.524  0.00  0.00    +0.000 A 
BRANCH  22  29
ATOM     28  C   UNL     1       4.293   3.259  17.285  0.00  0.00    +0.000 C 
ATOM     29  S   UNL     1       5.287   4.678  17.673  0.00  0.00    +0.000 S 
ATOM     30  O   UNL     1       6.150   4.334  18.787  0.00  0.00    +0.000 OA
ATOM     31  O   UNL     1       5.836   5.196  16.436  0.00  0.00    +0.000 OA
ENDBRANCH  22  29
ENDBRANCH  17  25
ENDBRANCH   1  20
TORSDOF 5
ENDMDL
MODEL 6
REMARK VINA RESULT:      -7.6      2.064      2.577
REMARK  Name = 
REMARK  6 active torsions:
REMARK  status: ('A' for Active; 'I' for Inactive)
REMARK    1  A    between atoms: C_1  and  S_2
REMARK    2  A    between atoms: S_2  and  C_5
REMARK    3  A    between atoms: C_8  and  C_9
REMARK    4  A    between atoms: C_12  and  C_13
REMARK    5  A    between atoms: C_13  and  N_14
REMARK    6  A    between atoms: C_23  and  C_25
REMARK                            x       y       z     vdW  Elec       q    Type
REMARK                         _______ _______ _______ _____ _____    ______ ____
ROOT
ATOM      1  C   UNL     1      -0.036  10.627  18.226  0.00  0.00    +0.000 C 
ENDROOT
BRANCH   1   2
ATOM      2  N   UNL     1       0.282  11.866  18.931  0.00  0.00    +0.000 N 
ATOM      3  C   UNL     1       1.523  12.467  18.722  0.00  0.00    +0.000 C 
ATOM      4  O   UNL     1       2.484  11.922  18.189  0.00  0.00    +0.000 OA
ATOM      5  C   UNL     1       1.545  13.904  19.188  0.00  0.00    +0.000 C 
ATOM      6  S   UNL     1      -0.173  14.327  19.555  0.00  0.00    +0.000 S 
ATOM      7  C   UNL     1      -0.647  12.570  19.824  0.00  0.00    +0.000 C 
ATOM      8  C   UNL     1      -2.138  12.342  19.535  0.00  0.00    +0.000 C 
ATOM      9  C   UNL     1      -3.047  13.088  20.507  0.00  0.00    +0.000 C 
ATOM     10  N   UNL     1      -2.717  12.759  21.897  0.00  0.00    +0.000 N 
ATOM     11  C   UNL     1      -3.664  12.695  22.934  0.00  0.00    +0.000 C 
ATOM     12  O   UNL     1      -3.310  12.597  24.109  0.00  0.00    +0.000 OA
ATOM     13  C   UNL     1      -1.311  12.929  22.272  0.00  0.00    +0.000 C 
ATOM     14  C   UNL     1      -0.370  12.210  21.304  0.00  0.00    +0.000 C 
BRANCH  11  15
ATOM     15  C   UNL     1      -5.130  12.739  22.518  0.00  0.00    +0.000 C 
ATOM     16 CL   UNL     1      -6.223  12.784  23.917  0.00  0.00    +0.000 Cl
ENDBRANCH  11  15
ENDBRANCH   1   2
BRANCH   1  20
ATOM     17  C   UNL     1       2.243   7.870  18.762  0.00  0.00    +0.000 A 
ATOM     18  C   UNL     1       1.826   7.990  20.072  0.00  0.00    +0.000 A 
ATOM     19  C   UNL     1       0.872   9.027  20.099  0.00  0.00    +0.000 A 
ATOM     20  C   UNL     1       0.769   9.508  18.809  0.00  0.00    +0.000 A 
ATOM     21  O   UNL     1       1.595   8.796  17.983  0.00  0.00    +0.000 OA
BRANCH  17  25
ATOM     22  C   UNL     1       5.116   5.352  16.867  0.00  0.00    +0.000 A 
ATOM     23  C   UNL     1       4.224   4.803  17.791  0.00  0.00    +0.000 A 
ATOM     24  C   UNL     1       3.268   5.624  18.400  0.00  0.00    +0.000 A 
ATOM     25  C   UNL     1       3.208   6.993  18.106  0.00  0.00    +0.000 A 
ATOM     26  C   UNL     1       4.134   7.528  17.193  0.00  0.00    +0.000 A 
ATOM     27  C   UNL     1       5.087   6.716  16.575  0.00  0.00    +0.000 A 
BRANCH  22  29
ATOM     28  C   UNL     1       6.442   5.014  14.450  0.00  0.00    +0.000 C 
ATOM     29  S   UNL     1       6.322   4.315  16.077  0.00  0.00    +0.000 S 
ATOM     30  O   UNL     1       5.749   2.988  15.958  0.00  0.00    +0.000 OA
ATOM     31  O   UNL     1       7.589   4.523  16.751  0.00  0.00    +0.000 OA
ENDBRANCH  22  29
ENDBRANCH  17  25
ENDBRANCH   1  20
TORSDOF 5
ENDMDL
MODEL 7
REMARK VINA RESULT:      -7.6      1.511      1.817
REMARK  Name = 
REMARK  6 active torsions:
REMARK  status: ('A' for Active; 'I' for Inactive)
REMARK    1  A    between atoms: C_1  and  S_2
REMARK    2  A    between atoms: S_2  and  C_5
REMARK    3  A    between atoms: C_8  and  C_9
REMARK    4  A    between atoms: C_12  and  C_13
REMARK    5  A    between atoms: C_13  and  N_14
REMARK    6  A    between atoms: C_23  and  C_25
REMARK                            x       y       z     vdW  Elec       q    Type
REMARK                         _______ _______ _______ _____ _____    ______ ____
ROOT
ATOM      1  C   UNL     1      -0.607  11.193  19.451  0.00  0.00    +0.000 C 
ENDROOT
BRANCH   1   2
ATOM      2  N   UNL     1      -0.155  12.503  19.912  0.00  0.00    +0.000 N 
ATOM      3  C   UNL     1       1.094  12.972  19.505  0.00  0.00    +0.000 C 
ATOM      4  O   UNL     1       1.969  12.281  18.994  0.00  0.00    +0.000 OA
ATOM      5  C   UNL     1       1.242  14.459  19.723  0.00  0.00    +0.000 C 
ATOM      6  S   UNL     1      -0.407  15.059  20.154  0.00  0.00    +0.000 S 
ATOM      7  C   UNL     1      -0.955  13.406  20.749  0.00  0.00    +0.000 C 
ATOM      8  C   UNL     1      -2.476  13.242  20.624  0.00  0.00    +0.000 C 
ATOM      9  C   UNL     1      -3.247  14.199  21.531  0.00  0.00    +0.000 C 
ATOM     10  N   UNL     1      -2.810  14.074  22.925  0.00  0.00    +0.000 N 
ATOM     11  C   UNL     1      -3.659  14.245  24.031  0.00  0.00    +0.000 C 
ATOM     12  O   UNL     1      -3.204  14.311  25.173  0.00  0.00    +0.000 OA
ATOM     13  C   UNL     1      -1.367  14.199  23.149  0.00  0.00    +0.000 C 
ATOM     14  C   UNL     1      -0.563  13.269  22.241  0.00  0.00    +0.000 C 
BRANCH  11  15
ATOM     15  C   UNL     1      -5.151  14.327  23.735  0.00  0.00    +0.000 C 
ATOM     16 CL   UNL     1      -5.992  12.806  24.098  0.00  0.00    +0.000 Cl
ENDBRANCH  11  15
ENDBRANCH   1   2
BRANCH   1  20
ATOM     17  C   UNL     1       1.279   8.292  20.501  0.00  0.00    +0.000 A 
ATOM     18  C   UNL     1       1.055   8.802  21.763  0.00  0.00    +0.000 A 
ATOM     19  C   UNL     1       0.280   9.968  21.596  0.00  0.00    +0.000 A 
ATOM     20  C   UNL     1       0.088  10.127  20.239  0.00  0.00    +0.000 A 
ATOM     21  O   UNL     1       0.684   9.097  19.562  0.00  0.00    +0.000 OA
BRANCH  17  25
ATOM     22  C   UNL     1       3.349   4.837  19.098  0.00  0.00    +0.000 A 
ATOM     23  C   UNL     1       3.480   6.044  18.407  0.00  0.00    +0.000 A 
ATOM     24  C   UNL     1       2.816   7.184  18.877  0.00  0.00    +0.000 A 
ATOM     25  C   UNL     1       2.008   7.122  20.021  0.00  0.00    +0.000 A 
ATOM     26  C   UNL     1       1.871   5.889  20.683  0.00  0.00    +0.000 A 
ATOM     27  C   UNL     1       2.535   4.748  20.227  0.00  0.00    +0.000 A 
BRANCH  22  29
ATOM     28  C   UNL     1       2.871   2.287  18.108  0.00  0.00    +0.000 C 
ATOM     29  S   UNL     1       4.200   3.390  18.518  0.00  0.00    +0.000 S 
ATOM     30  O   UNL     1       4.924   2.827  19.642  0.00  0.00    +0.000 OA
ATOM     31  O   UNL     1       4.886   3.745  17.291  0.00  0.00    +0.000 OA
ENDBRANCH  22  29
ENDBRANCH  17  25
ENDBRANCH   1  20
TORSDOF 5
ENDMDL
MODEL 8
REMARK VINA RESULT:      -7.5      1.368      1.952
REMARK  Name = 
REMARK  6 active torsions:
REMARK  status: ('A' for Active; 'I' for Inactive)
REMARK    1  A    between atoms: C_1  and  S_2
REMARK    2  A    between atoms: S_2  and  C_5
REMARK    3  A    between atoms: C_8  and  C_9
REMARK    4  A    between atoms: C_12  and  C_13
REMARK    5  A    between atoms: C_13  and  N_14
REMARK    6  A    between atoms: C_23  and  C_25
REMARK                            x       y       z     vdW  Elec       q    Type
REMARK                         _______ _______ _______ _____ _____    ______ ____
ROOT
ATOM      1  C   UNL     1      -0.170  11.019  21.520  0.00  0.00    +0.000 C 
ENDROOT
BRANCH   1   2
ATOM      2  N   UNL     1      -0.267  12.465  21.333  0.00  0.00    +0.000 N 
ATOM      3  C   UNL     1       0.895  13.196  21.084  0.00  0.00    +0.000 C 
ATOM      4  O   UNL     1       2.035  12.779  21.255  0.00  0.00    +0.000 OA
ATOM      5  C   UNL     1       0.594  14.568  20.527  0.00  0.00    +0.000 C 
ATOM      6  S   UNL     1      -1.170  14.563  20.135  0.00  0.00    +0.000 S 
ATOM      7  C   UNL     1      -1.528  13.215  21.336  0.00  0.00    +0.000 C 
ATOM      8  C   UNL     1      -2.771  12.414  20.922  0.00  0.00    +0.000 C 
ATOM      9  C   UNL     1      -4.049  13.249  20.961  0.00  0.00    +0.000 C 
ATOM     10  N   UNL     1      -4.231  13.875  22.274  0.00  0.00    +0.000 N 
ATOM     11  C   UNL     1      -5.485  14.110  22.864  0.00  0.00    +0.000 C 
ATOM     12  O   UNL     1      -5.587  14.801  23.878  0.00  0.00    +0.000 OA
ATOM     13  C   UNL     1      -3.091  14.652  22.768  0.00  0.00    +0.000 C 
ATOM     14  C   UNL     1      -1.789  13.852  22.723  0.00  0.00    +0.000 C 
BRANCH  11  15
ATOM     15  C   UNL     1      -6.685  13.455  22.191  0.00  0.00    +0.000 C 
ATOM     16 CL   UNL     1      -7.473  12.260  23.242  0.00  0.00    +0.000 Cl
ENDBRANCH  11  15
ENDBRANCH   1   2
BRANCH   1  20
ATOM     17  C   UNL     1       1.403   8.947  19.007  0.00  0.00    +0.000 A 
ATOM     18  C   UNL     1       0.619   9.681  18.141  0.00  0.00    +0.000 A 
ATOM     19  C   UNL     1      -0.090  10.612  18.927  0.00  0.00    +0.000 A 
ATOM     20  C   UNL     1       0.276  10.386  20.239  0.00  0.00    +0.000 A 
ATOM     21  O   UNL     1       1.201   9.378  20.294  0.00  0.00    +0.000 OA
BRANCH  17  25
ATOM     22  C   UNL     1       4.089   5.687  18.421  0.00  0.00    +0.000 A 
ATOM     23  C   UNL     1       4.036   6.712  17.473  0.00  0.00    +0.000 A 
ATOM     24  C   UNL     1       3.168   7.793  17.673  0.00  0.00    +0.000 A 
ATOM     25  C   UNL     1       2.341   7.847  18.804  0.00  0.00    +0.000 A 
ATOM     26  C   UNL     1       2.393   6.790  19.730  0.00  0.00    +0.000 A 
ATOM     27  C   UNL     1       3.260   5.711  19.542  0.00  0.00    +0.000 A 
BRANCH  22  29
ATOM     28  C   UNL     1       6.778   5.114  18.030  0.00  0.00    +0.000 C 
ATOM     29  S   UNL     1       5.198   4.320  18.183  0.00  0.00    +0.000 S 
ATOM     30  O   UNL     1       4.873   3.708  16.908  0.00  0.00    +0.000 OA
ATOM     31  O   UNL     1       5.201   3.539  19.405  0.00  0.00    +0.000 OA
ENDBRANCH  22  29
ENDBRANCH  17  25
ENDBRANCH   1  20
TORSDOF 5
ENDMDL
MODEL 9
REMARK VINA RESULT:      -7.5      3.537      5.530
REMARK  Name = 
REMARK  6 active torsions:
REMARK  status: ('A' for Active; 'I' for Inactive)
REMARK    1  A    between atoms: C_1  and  S_2
REMARK    2  A    between atoms: S_2  and  C_5
REMARK    3  A    between atoms: C_8  and  C_9
REMARK    4  A    between atoms: C_12  and  C_13
REMARK    5  A    between atoms: C_13  and  N_14
REMARK    6  A    between atoms: C_23  and  C_25
REMARK                            x       y       z     vdW  Elec       q    Type
REMARK                         _______ _______ _______ _____ _____    ______ ____
ROOT
ATOM      1  C   UNL     1       0.104  11.504  18.955  0.00  0.00    +0.000 C 
ENDROOT
BRANCH   1   2
ATOM      2  N   UNL     1      -0.169  12.670  19.792  0.00  0.00    +0.000 N 
ATOM      3  C   UNL     1      -1.444  12.831  20.335  0.00  0.00    +0.000 C 
ATOM      4  O   UNL     1      -2.442  12.216  19.975  0.00  0.00    +0.000 OA
ATOM      5  C   UNL     1      -1.456  13.830  21.468  0.00  0.00    +0.000 C 
ATOM      6  S   UNL     1       0.279  14.176  21.837  0.00  0.00    +0.000 S 
ATOM      7  C   UNL     1       0.833  13.680  20.153  0.00  0.00    +0.000 C 
ATOM      8  C   UNL     1       2.287  13.188  20.166  0.00  0.00    +0.000 C 
ATOM      9  C   UNL     1       3.277  14.290  20.535  0.00  0.00    +0.000 C 
ATOM     10  N   UNL     1       3.116  15.459  19.664  0.00  0.00    +0.000 N 
ATOM     11  C   UNL     1       4.175  16.293  19.267  0.00  0.00    +0.000 C 
ATOM     12  O   UNL     1       3.959  17.359  18.691  0.00  0.00    +0.000 OA
ATOM     13  C   UNL     1       1.756  15.996  19.571  0.00  0.00    +0.000 C 
ATOM     14  C   UNL     1       0.734  14.913  19.223  0.00  0.00    +0.000 C 
BRANCH  11  15
ATOM     15  C   UNL     1       5.582  15.797  19.577  0.00  0.00    +0.000 C 
ATOM     16 CL   UNL     1       6.820  16.669  18.649  0.00  0.00    +0.000 Cl
ENDBRANCH  11  15
ENDBRANCH   1   2
BRANCH   1  20
ATOM     17  C   UNL     1       1.408   8.387  20.246  0.00  0.00    +0.000 A 
ATOM     18  C   UNL     1       1.042   8.924  21.463  0.00  0.00    +0.000 A 
ATOM     19  C   UNL     1       0.458  10.178  21.193  0.00  0.00    +0.000 A 
ATOM     20  C   UNL     1       0.518  10.359  19.826  0.00  0.00    +0.000 A 
ATOM     21  O   UNL     1       1.085   9.261  19.238  0.00  0.00    +0.000 OA
BRANCH  17  25
ATOM     22  C   UNL     1       3.236   4.692  19.155  0.00  0.00    +0.000 A 
ATOM     23  C   UNL     1       3.417   5.814  18.343  0.00  0.00    +0.000 A 
ATOM     24  C   UNL     1       2.833   7.033  18.709  0.00  0.00    +0.000 A 
ATOM     25  C   UNL     1       2.055   7.134  19.871  0.00  0.00    +0.000 A 
ATOM     26  C   UNL     1       1.866   5.984  20.658  0.00  0.00    +0.000 A 
ATOM     27  C   UNL     1       2.449   4.765  20.305  0.00  0.00    +0.000 A 
BRANCH  22  29
ATOM     28  C   UNL     1       2.636   1.999  18.838  0.00  0.00    +0.000 C 
ATOM     29  S   UNL     1       3.985   3.145  18.706  0.00  0.00    +0.000 S 
ATOM     30  O   UNL     1       4.960   2.817  19.730  0.00  0.00    +0.000 OA
ATOM     31  O   UNL     1       4.369   3.231  17.311  0.00  0.00    +0.000 OA
ENDBRANCH  22  29
ENDBRANCH  17  25
ENDBRANCH   1  20
TORSDOF 5
ENDMDL
