MODEL 1
REMARK VINA RESULT:      -6.2      0.000      0.000
REMARK  Name = 
REMARK  10 active torsions:
REMARK  status: ('A' for Active; 'I' for Inactive)
REMARK    1  A    between atoms: C_1  and  O_2
REMARK    2  A    between atoms: O_2  and  C_3
REMARK    3  A    between atoms: C_7  and  O_8
REMARK    4  A    between atoms: O_8  and  C_9
REMARK    5  A    between atoms: C_10  and  C_11
REMARK    6  A    between atoms: C_11  and  N_12
REMARK    7  A    between atoms: C_19  and  C_20
REMARK    8  A    between atoms: N_22  and  C_23
REMARK    9  A    between atoms: N_22  and  C_24
REMARK   10  A    between atoms: C_24  and  C_25
REMARK                            x       y       z     vdW  Elec       q    Type
REMARK                         _______ _______ _______ _____ _____    ______ ____
ROOT
ATOM      1  N   UNL     1       2.497   7.471  18.894  0.00  0.00    +0.000 NA
ATOM      2  C   UNL     1       2.940   8.552  18.027  0.00  0.00    +0.000 C 
ATOM      3  C   UNL     1       1.943   9.674  17.720  0.00  0.00    +0.000 C 
ATOM      4  C   UNL     1       0.949  10.041  18.811  0.00  0.00    +0.000 C 
ATOM      5  C   UNL     1       0.636   8.939  19.809  0.00  0.00    +0.000 C 
ATOM      6  C   UNL     1       1.758   7.930  20.059  0.00  0.00    +0.000 C 
ATOM      7  C   UNL     1       0.862  11.477  19.306  0.00  0.00    +0.000 C 
ATOM      8  C   UNL     1      -0.176  11.006  18.326  0.00  0.00    +0.000 C 
ENDROOT
BRANCH   8   9
ATOM      9  C   UNL     1      -1.622  10.863  18.723  0.00  0.00    +0.000 C 
ATOM     10  O   UNL     1      -1.994  11.276  19.818  0.00  0.00    +0.000 OA
ATOM     11  N   UNL     1      -2.522  10.251  17.845  0.00  0.00    +0.000 N 
ATOM     12  C   UNL     1      -2.308   9.981  16.427  0.00  0.00    +0.000 C 
BRANCH  11  13
ATOM     13  C   UNL     1      -3.879   9.992  18.339  0.00  0.00    +0.000 C 
BRANCH  13  14
ATOM     14  C   UNL     1      -4.749  11.207  18.146  0.00  0.00    +0.000 A 
ATOM     15  C   UNL     1      -5.245  11.668  16.940  0.00  0.00    +0.000 A 
ATOM     16  S   UNL     1      -6.248  13.036  17.189  0.00  0.00    +0.000 S 
ATOM     17  C   UNL     1      -5.937  12.932  18.871  0.00  0.00    +0.000 A 
ATOM     18  N   UNL     1      -5.147  11.954  19.255  0.00  0.00    +0.000 NA
ENDBRANCH  13  14
ENDBRANCH  11  13
ENDBRANCH   8   9
BRANCH   1  19
ATOM     19  C   UNL     1       1.985   6.307  18.169  0.00  0.00    +0.000 C 
BRANCH  19  25
ATOM     20  C   UNL     1       3.831   4.687  17.681  0.00  0.00    +0.000 A 
ATOM     21  C   UNL     1       4.557   3.524  17.835  0.00  0.00    +0.000 A 
ATOM     22  C   UNL     1       4.129   2.583  18.781  0.00  0.00    +0.000 A 
ATOM     23  C   UNL     1       2.992   2.849  19.572  0.00  0.00    +0.000 A 
ATOM     24  C   UNL     1       2.268   4.044  19.428  0.00  0.00    +0.000 A 
ATOM     25  C   UNL     1       2.675   4.978  18.468  0.00  0.00    +0.000 A 
BRANCH  20  27
ATOM     26  C   UNL     1       5.343   6.153  16.335  0.00  0.00    +0.000 C 
ATOM     27  O   UNL     1       4.086   5.686  16.773  0.00  0.00    +0.000 OA
ENDBRANCH  20  27
BRANCH  24  28
ATOM     28  O   UNL     1       1.255   4.112  20.351  0.00  0.00    +0.000 OA
ATOM     29  C   UNL     1       1.218   3.172  21.405  0.00  0.00    +0.000 C 
ENDBRANCH  24  28
ENDBRANCH  19  25
ENDBRANCH   1  19
TORSDOF 7
ENDMDL
MODEL 2
REMARK VINA RESULT:      -6.0      3.915      5.365
REMARK  Name = 
REMARK  10 active torsions:
REMARK  status: ('A' for Active; 'I' for Inactive)
REMARK    1  A    between atoms: C_1  and  O_2
REMARK    2  A    between atoms: O_2  and  C_3
REMARK    3  A    between atoms: C_7  and  O_8
REMARK    4  A    between atoms: O_8  and  C_9
REMARK    5  A    between atoms: C_10  and  C_11
REMARK    6  A    between atoms: C_11  and  N_12
REMARK    7  A    between atoms: C_19  and  C_20
REMARK    8  A    between atoms: N_22  and  C_23
REMARK    9  A    between atoms: N_22  and  C_24
REMARK   10  A    between atoms: C_24  and  C_25
REMARK                            x       y       z     vdW  Elec       q    Type
REMARK                         _______ _______ _______ _____ _____    ______ ____
ROOT
ATOM      1  N   UNL     1       2.545   7.195  18.226  0.00  0.00    +0.000 NA
ATOM      2  C   UNL     1       2.101   6.946  19.588  0.00  0.00    +0.000 C 
ATOM      3  C   UNL     1       1.714   8.156  20.445  0.00  0.00    +0.000 C 
ATOM      4  C   UNL     1       1.084   9.342  19.731  0.00  0.00    +0.000 C 
ATOM      5  C   UNL     1       1.430   9.478  18.258  0.00  0.00    +0.000 C 
ATOM      6  C   UNL     1       1.730   8.171  17.522  0.00  0.00    +0.000 C 
ATOM      7  C   UNL     1      -0.271   9.866  20.182  0.00  0.00    +0.000 C 
ATOM      8  C   UNL     1       0.956  10.610  20.630  0.00  0.00    +0.000 C 
ENDROOT
BRANCH   8   9
ATOM      9  C   UNL     1       1.248  12.006  20.144  0.00  0.00    +0.000 C 
ATOM     10  O   UNL     1       1.888  12.166  19.108  0.00  0.00    +0.000 OA
ATOM     11  N   UNL     1       0.799  13.103  20.885  0.00  0.00    +0.000 N 
ATOM     12  C   UNL     1      -0.199  13.084  21.949  0.00  0.00    +0.000 C 
BRANCH  11  13
ATOM     13  C   UNL     1       1.243  14.435  20.459  0.00  0.00    +0.000 C 
BRANCH  13  14
ATOM     14  C   UNL     1       2.644  14.701  20.943  0.00  0.00    +0.000 A 
ATOM     15  C   UNL     1       3.727  15.038  20.151  0.00  0.00    +0.000 A 
ATOM     16  S   UNL     1       5.112  15.323  21.121  0.00  0.00    +0.000 S 
ATOM     17  C   UNL     1       4.186  14.961  22.515  0.00  0.00    +0.000 A 
ATOM     18  N   UNL     1       2.924  14.648  22.309  0.00  0.00    +0.000 NA
ENDBRANCH  13  14
ENDBRANCH  11  13
ENDBRANCH   8   9
BRANCH   1  19
ATOM     19  C   UNL     1       4.000   7.287  18.087  0.00  0.00    +0.000 C 
BRANCH  19  25
ATOM     20  C   UNL     1       6.005   6.359  16.908  0.00  0.00    +0.000 A 
ATOM     21  C   UNL     1       6.741   5.400  16.242  0.00  0.00    +0.000 A 
ATOM     22  C   UNL     1       6.152   4.153  15.993  0.00  0.00    +0.000 A 
ATOM     23  C   UNL     1       4.842   3.891  16.446  0.00  0.00    +0.000 A 
ATOM     24  C   UNL     1       4.104   4.862  17.141  0.00  0.00    +0.000 A 
ATOM     25  C   UNL     1       4.676   6.118  17.373  0.00  0.00    +0.000 A 
BRANCH  20  27
ATOM     26  C   UNL     1       7.707   8.074  17.542  0.00  0.00    +0.000 C 
ATOM     27  O   UNL     1       6.413   7.640  17.190  0.00  0.00    +0.000 OA
ENDBRANCH  20  27
BRANCH  24  28
ATOM     28  O   UNL     1       2.894   4.355  17.544  0.00  0.00    +0.000 OA
ATOM     29  C   UNL     1       2.686   2.958  17.514  0.00  0.00    +0.000 C 
ENDBRANCH  24  28
ENDBRANCH  19  25
ENDBRANCH   1  19
TORSDOF 7
ENDMDL
MODEL 3
REMARK VINA RESULT:      -5.9      6.364      8.023
REMARK  Name = 
REMARK  10 active torsions:
REMARK  status: ('A' for Active; 'I' for Inactive)
REMARK    1  A    between atoms: C_1  and  O_2
REMARK    2  A    between atoms: O_2  and  C_3
REMARK    3  A    between atoms: C_7  and  O_8
REMARK    4  A    between atoms: O_8  and  C_9
REMARK    5  A    between atoms: C_10  and  C_11
REMARK    6  A    between atoms: C_11  and  N_12
REMARK    7  A    between atoms: C_19  and  C_20
REMARK    8  A    between atoms: N_22  and  C_23
REMARK    9  A    between atoms: N_22  and  C_24
REMARK   10  A    between atoms: C_24  and  C_25
REMARK                            x       y       z     vdW  Elec       q    Type
REMARK                         _______ _______ _______ _____ _____    ______ ____
ROOT
ATOM      1  N   UNL     1      -0.889  13.320  22.453  0.00  0.00    +0.000 NA
ATOM      2  C   UNL     1      -1.212  14.077  23.652  0.00  0.00    +0.000 C 
ATOM      3  C   UNL     1      -2.691  14.237  24.018  0.00  0.00    +0.000 C 
ATOM      4  C   UNL     1      -3.623  13.087  23.669  0.00  0.00    +0.000 C 
ATOM      5  C   UNL     1      -3.171  12.205  22.517  0.00  0.00    +0.000 C 
ATOM      6  C   UNL     1      -1.658  12.094  22.318  0.00  0.00    +0.000 C 
ATOM      7  C   UNL     1      -4.469  12.439  24.754  0.00  0.00    +0.000 C 
ATOM      8  C   UNL     1      -5.132  13.436  23.846  0.00  0.00    +0.000 C 
ENDROOT
BRANCH   8   9
ATOM      9  C   UNL     1      -6.203  13.019  22.871  0.00  0.00    +0.000 C 
ATOM     10  O   UNL     1      -6.869  12.012  23.096  0.00  0.00    +0.000 OA
ATOM     11  N   UNL     1      -6.417  13.776  21.716  0.00  0.00    +0.000 N 
ATOM     12  C   UNL     1      -5.927  15.126  21.456  0.00  0.00    +0.000 C 
BRANCH  11  13
ATOM     13  C   UNL     1      -7.357  13.244  20.723  0.00  0.00    +0.000 C 
BRANCH  13  14
ATOM     14  C   UNL     1      -6.612  12.720  19.523  0.00  0.00    +0.000 A 
ATOM     15  C   UNL     1      -5.807  11.595  19.493  0.00  0.00    +0.000 A 
ATOM     16  S   UNL     1      -5.215  11.324  17.907  0.00  0.00    +0.000 S 
ATOM     17  C   UNL     1      -6.049  12.724  17.378  0.00  0.00    +0.000 A 
ATOM     18  N   UNL     1      -6.735  13.372  18.295  0.00  0.00    +0.000 NA
ENDBRANCH  13  14
ENDBRANCH  11  13
ENDBRANCH   8   9
BRANCH   1  19
ATOM     19  C   UNL     1      -0.707  14.152  21.262  0.00  0.00    +0.000 C 
BRANCH  19  25
ATOM     20  C   UNL     1       0.494  13.505  19.162  0.00  0.00    +0.000 A 
ATOM     21  C   UNL     1       1.595  13.284  18.359  0.00  0.00    +0.000 A 
ATOM     22  C   UNL     1       2.872  13.492  18.897  0.00  0.00    +0.000 A 
ATOM     23  C   UNL     1       3.011  13.946  20.226  0.00  0.00    +0.000 A 
ATOM     24  C   UNL     1       1.888  14.190  21.032  0.00  0.00    +0.000 A 
ATOM     25  C   UNL     1       0.609  13.962  20.510  0.00  0.00    +0.000 A 
BRANCH  20  27
ATOM     26  C   UNL     1      -1.362  12.224  18.087  0.00  0.00    +0.000 C 
ATOM     27  O   UNL     1      -0.818  13.307  18.807  0.00  0.00    +0.000 OA
ENDBRANCH  20  27
BRANCH  24  28
ATOM     28  O   UNL     1       2.266  14.694  22.252  0.00  0.00    +0.000 OA
ATOM     29  C   UNL     1       3.019  15.889  22.300  0.00  0.00    +0.000 C 
ENDBRANCH  24  28
ENDBRANCH  19  25
ENDBRANCH   1  19
TORSDOF 7
ENDMDL
MODEL 4
REMARK VINA RESULT:      -5.9      3.488      4.693
REMARK  Name = 
REMARK  10 active torsions:
REMARK  status: ('A' for Active; 'I' for Inactive)
REMARK    1  A    between atoms: C_1  and  O_2
REMARK    2  A    between atoms: O_2  and  C_3
REMARK    3  A    between atoms: C_7  and  O_8
REMARK    4  A    between atoms: O_8  and  C_9
REMARK    5  A    between atoms: C_10  and  C_11
REMARK    6  A    between atoms: C_11  and  N_12
REMARK    7  A    between atoms: C_19  and  C_20
REMARK    8  A    between atoms: N_22  and  C_23
REMARK    9  A    between atoms: N_22  and  C_24
REMARK   10  A    between atoms: C_24  and  C_25
REMARK                            x       y       z     vdW  Elec       q    Type
REMARK                         _______ _______ _______ _____ _____    ______ ____
ROOT
ATOM      1  N   UNL     1       2.570   7.181  18.401  0.00  0.00    +0.000 NA
ATOM      2  C   UNL     1       2.217   7.253  19.811  0.00  0.00    +0.000 C 
ATOM      3  C   UNL     1       1.780   8.612  20.367  0.00  0.00    +0.000 C 
ATOM      4  C   UNL     1       1.024   9.539  19.428  0.00  0.00    +0.000 C 
ATOM      5  C   UNL     1       1.283   9.323  17.946  0.00  0.00    +0.000 C 
ATOM      6  C   UNL     1       1.647   7.895  17.536  0.00  0.00    +0.000 C 
ATOM      7  C   UNL     1      -0.344  10.073  19.827  0.00  0.00    +0.000 C 
ATOM      8  C   UNL     1       0.842  10.981  19.993  0.00  0.00    +0.000 C 
ENDROOT
BRANCH   8   9
ATOM      9  C   UNL     1       1.000  12.227  19.159  0.00  0.00    +0.000 C 
ATOM     10  O   UNL     1       0.273  12.399  18.185  0.00  0.00    +0.000 OA
ATOM     11  N   UNL     1       1.979  13.165  19.498  0.00  0.00    +0.000 N 
ATOM     12  C   UNL     1       2.704  13.249  20.761  0.00  0.00    +0.000 C 
BRANCH  11  13
ATOM     13  C   UNL     1       2.199  14.278  18.569  0.00  0.00    +0.000 C 
BRANCH  13  14
ATOM     14  C   UNL     1       1.672  15.563  19.153  0.00  0.00    +0.000 A 
ATOM     15  C   UNL     1       2.417  16.692  19.439  0.00  0.00    +0.000 A 
ATOM     16  S   UNL     1       1.404  17.947  20.023  0.00  0.00    +0.000 S 
ATOM     17  C   UNL     1       0.056  16.899  19.873  0.00  0.00    +0.000 A 
ATOM     18  N   UNL     1       0.308  15.691  19.419  0.00  0.00    +0.000 NA
ENDBRANCH  13  14
ENDBRANCH  11  13
ENDBRANCH   8   9
BRANCH   1  19
ATOM     19  C   UNL     1       4.005   7.326  18.146  0.00  0.00    +0.000 C 
BRANCH  19  25
ATOM     20  C   UNL     1       5.980   6.421  16.901  0.00  0.00    +0.000 A 
ATOM     21  C   UNL     1       6.707   5.467  16.217  0.00  0.00    +0.000 A 
ATOM     22  C   UNL     1       6.130   4.209  16.000  0.00  0.00    +0.000 A 
ATOM     23  C   UNL     1       4.841   3.929  16.502  0.00  0.00    +0.000 A 
ATOM     24  C   UNL     1       4.114   4.895  17.217  0.00  0.00    +0.000 A 
ATOM     25  C   UNL     1       4.674   6.162  17.417  0.00  0.00    +0.000 A 
BRANCH  20  27
ATOM     26  C   UNL     1       7.647   8.152  17.585  0.00  0.00    +0.000 C 
ATOM     27  O   UNL     1       6.377   7.710  17.158  0.00  0.00    +0.000 OA
ENDBRANCH  20  27
BRANCH  24  28
ATOM     28  O   UNL     1       2.927   4.373  17.668  0.00  0.00    +0.000 OA
ATOM     29  C   UNL     1       2.924   3.579  18.837  0.00  0.00    +0.000 C 
ENDBRANCH  24  28
ENDBRANCH  19  25
ENDBRANCH   1  19
TORSDOF 7
ENDMDL
MODEL 5
REMARK VINA RESULT:      -5.9      3.860      5.445
REMARK  Name = 
REMARK  10 active torsions:
REMARK  status: ('A' for Active; 'I' for Inactive)
REMARK    1  A    between atoms: C_1  and  O_2
REMARK    2  A    between atoms: O_2  and  C_3
REMARK    3  A    between atoms: C_7  and  O_8
REMARK    4  A    between atoms: O_8  and  C_9
REMARK    5  A    between atoms: C_10  and  C_11
REMARK    6  A    between atoms: C_11  and  N_12
REMARK    7  A    between atoms: C_19  and  C_20
REMARK    8  A    between atoms: N_22  and  C_23
REMARK    9  A    between atoms: N_22  and  C_24
REMARK   10  A    between atoms: C_24  and  C_25
REMARK                            x       y       z     vdW  Elec       q    Type
REMARK                         _______ _______ _______ _____ _____    ______ ____
ROOT
ATOM      1  N   UNL     1       2.482   7.305  18.340  0.00  0.00    +0.000 NA
ATOM      2  C   UNL     1       2.228   7.349  19.772  0.00  0.00    +0.000 C 
ATOM      3  C   UNL     1       1.782   8.684  20.377  0.00  0.00    +0.000 C 
ATOM      4  C   UNL     1       0.926   9.591  19.506  0.00  0.00    +0.000 C 
ATOM      5  C   UNL     1       1.086   9.401  18.007  0.00  0.00    +0.000 C 
ATOM      6  C   UNL     1       1.472   7.993  17.553  0.00  0.00    +0.000 C 
ATOM      7  C   UNL     1      -0.428  10.068  20.009  0.00  0.00    +0.000 C 
ATOM      8  C   UNL     1       0.732  11.019  20.102  0.00  0.00    +0.000 C 
ENDROOT
BRANCH   8   9
ATOM      9  C   UNL     1       0.782  12.279  19.276  0.00  0.00    +0.000 C 
ATOM     10  O   UNL     1      -0.004  12.424  18.344  0.00  0.00    +0.000 OA
ATOM     11  N   UNL     1       1.730  13.261  19.573  0.00  0.00    +0.000 N 
ATOM     12  C   UNL     1       2.517  13.370  20.797  0.00  0.00    +0.000 C 
BRANCH  11  13
ATOM     13  C   UNL     1       1.845  14.393  18.647  0.00  0.00    +0.000 C 
BRANCH  13  14
ATOM     14  C   UNL     1       3.258  14.917  18.630  0.00  0.00    +0.000 A 
ATOM     15  C   UNL     1       3.693  16.100  19.199  0.00  0.00    +0.000 A 
ATOM     16  S   UNL     1       5.389  16.269  19.006  0.00  0.00    +0.000 S 
ATOM     17  C   UNL     1       5.422  14.776  18.167  0.00  0.00    +0.000 A 
ATOM     18  N   UNL     1       4.266  14.164  18.026  0.00  0.00    +0.000 NA
ENDBRANCH  13  14
ENDBRANCH  11  13
ENDBRANCH   8   9
BRANCH   1  19
ATOM     19  C   UNL     1       3.888   7.508  17.985  0.00  0.00    +0.000 C 
BRANCH  19  25
ATOM     20  C   UNL     1       5.991   6.485  17.088  0.00  0.00    +0.000 A 
ATOM     21  C   UNL     1       6.773   5.480  16.555  0.00  0.00    +0.000 A 
ATOM     22  C   UNL     1       6.185   4.235  16.296  0.00  0.00    +0.000 A 
ATOM     23  C   UNL     1       4.826   4.021  16.606  0.00  0.00    +0.000 A 
ATOM     24  C   UNL     1       4.038   5.039  17.167  0.00  0.00    +0.000 A 
ATOM     25  C   UNL     1       4.612   6.293  17.407  0.00  0.00    +0.000 A 
BRANCH  20  27
ATOM     26  C   UNL     1       7.707   8.224  17.610  0.00  0.00    +0.000 C 
ATOM     27  O   UNL     1       6.396   7.769  17.358  0.00  0.00    +0.000 OA
ENDBRANCH  20  27
BRANCH  24  28
ATOM     28  O   UNL     1       2.777   4.576  17.450  0.00  0.00    +0.000 OA
ATOM     29  C   UNL     1       2.544   3.184  17.482  0.00  0.00    +0.000 C 
ENDBRANCH  24  28
ENDBRANCH  19  25
ENDBRANCH   1  19
TORSDOF 7
ENDMDL
MODEL 6
REMARK VINA RESULT:      -5.9      0.360      2.459
REMARK  Name = 
REMARK  10 active torsions:
REMARK  status: ('A' for Active; 'I' for Inactive)
REMARK    1  A    between atoms: C_1  and  O_2
REMARK    2  A    between atoms: O_2  and  C_3
REMARK    3  A    between atoms: C_7  and  O_8
REMARK    4  A    between atoms: O_8  and  C_9
REMARK    5  A    between atoms: C_10  and  C_11
REMARK    6  A    between atoms: C_11  and  N_12
REMARK    7  A    between atoms: C_19  and  C_20
REMARK    8  A    between atoms: N_22  and  C_23
REMARK    9  A    between atoms: N_22  and  C_24
REMARK   10  A    between atoms: C_24  and  C_25
REMARK                            x       y       z     vdW  Elec       q    Type
REMARK                         _______ _______ _______ _____ _____    ______ ____
ROOT
ATOM      1  N   UNL     1       2.493   7.482  19.215  0.00  0.00    +0.000 NA
ATOM      2  C   UNL     1       2.922   8.443  18.211  0.00  0.00    +0.000 C 
ATOM      3  C   UNL     1       1.912   9.507  17.765  0.00  0.00    +0.000 C 
ATOM      4  C   UNL     1       0.921  10.005  18.805  0.00  0.00    +0.000 C 
ATOM      5  C   UNL     1       0.623   9.041  19.941  0.00  0.00    +0.000 C 
ATOM      6  C   UNL     1       1.755   8.082  20.314  0.00  0.00    +0.000 C 
ATOM      7  C   UNL     1       0.822  11.493  19.109  0.00  0.00    +0.000 C 
ATOM      8  C   UNL     1      -0.216  10.888  18.205  0.00  0.00    +0.000 C 
ENDROOT
BRANCH   8   9
ATOM      9  C   UNL     1      -1.659  10.786  18.626  0.00  0.00    +0.000 C 
ATOM     10  O   UNL     1      -1.996  11.186  19.737  0.00  0.00    +0.000 OA
ATOM     11  N   UNL     1      -2.595  10.226  17.752  0.00  0.00    +0.000 N 
ATOM     12  C   UNL     1      -2.416   9.981  16.325  0.00  0.00    +0.000 C 
BRANCH  11  13
ATOM     13  C   UNL     1      -3.951  10.003  18.265  0.00  0.00    +0.000 C 
BRANCH  13  14
ATOM     14  C   UNL     1      -4.799  11.231  18.062  0.00  0.00    +0.000 A 
ATOM     15  C   UNL     1      -5.248  11.717  16.847  0.00  0.00    +0.000 A 
ATOM     16  S   UNL     1      -6.242  13.095  17.084  0.00  0.00    +0.000 S 
ATOM     17  C   UNL     1      -5.989  12.961  18.774  0.00  0.00    +0.000 A 
ATOM     18  N   UNL     1      -5.225  11.966  19.169  0.00  0.00    +0.000 NA
ENDBRANCH  13  14
ENDBRANCH  11  13
ENDBRANCH   8   9
BRANCH   1  19
ATOM     19  C   UNL     1       1.988   6.228  18.651  0.00  0.00    +0.000 C 
BRANCH  19  25
ATOM     20  C   UNL     1       2.847   4.021  19.465  0.00  0.00    +0.000 A 
ATOM     21  C   UNL     1       3.691   2.929  19.483  0.00  0.00    +0.000 A 
ATOM     22  C   UNL     1       4.753   2.884  18.570  0.00  0.00    +0.000 A 
ATOM     23  C   UNL     1       4.925   3.929  17.639  0.00  0.00    +0.000 A 
ATOM     24  C   UNL     1       4.053   5.029  17.610  0.00  0.00    +0.000 A 
ATOM     25  C   UNL     1       3.003   5.093  18.534  0.00  0.00    +0.000 A 
BRANCH  20  27
ATOM     26  C   UNL     1       1.002   3.280  20.977  0.00  0.00    +0.000 C 
ATOM     27  O   UNL     1       1.792   4.242  20.315  0.00  0.00    +0.000 OA
ENDBRANCH  20  27
BRANCH  24  28
ATOM     28  O   UNL     1       4.372   5.875  16.577  0.00  0.00    +0.000 OA
ATOM     29  C   UNL     1       5.605   6.564  16.606  0.00  0.00    +0.000 C 
ENDBRANCH  24  28
ENDBRANCH  19  25
ENDBRANCH   1  19
TORSDOF 7
ENDMDL
MODEL 7
REMARK VINA RESULT:      -5.8      4.869      7.977
REMARK  Name = 
REMARK  10 active torsions:
REMARK  status: ('A' for Active; 'I' for Inactive)
REMARK    1  A    between atoms: C_1  and  O_2
REMARK    2  A    between atoms: O_2  and  C_3
REMARK    3  A    between atoms: C_7  and  O_8
REMARK    4  A    between atoms: O_8  and  C_9
REMARK    5  A    between atoms: C_10  and  C_11
REMARK    6  A    between atoms: C_11  and  N_12
REMARK    7  A    between atoms: C_19  and  C_20
REMARK    8  A    between atoms: N_22  and  C_23
REMARK    9  A    between atoms: N_22  and  C_24
REMARK   10  A    between atoms: C_24  and  C_25
REMARK                            x       y       z     vdW  Elec       q    Type
REMARK                         _______ _______ _______ _____ _____    ______ ____
ROOT
ATOM      1  N   UNL     1      -0.726  13.166  21.873  0.00  0.00    +0.000 NA
ATOM      2  C   UNL     1      -0.959  14.464  22.486  0.00  0.00    +0.000 C 
ATOM      3  C   UNL     1      -2.364  14.759  23.021  0.00  0.00    +0.000 C 
ATOM      4  C   UNL     1      -3.153  13.589  23.587  0.00  0.00    +0.000 C 
ATOM      5  C   UNL     1      -2.768  12.220  23.053  0.00  0.00    +0.000 C 
ATOM      6  C   UNL     1      -1.310  12.062  22.617  0.00  0.00    +0.000 C 
ATOM      7  C   UNL     1      -3.698  13.656  25.006  0.00  0.00    +0.000 C 
ATOM      8  C   UNL     1      -4.648  13.930  23.873  0.00  0.00    +0.000 C 
ENDROOT
BRANCH   8   9
ATOM      9  C   UNL     1      -5.788  12.995  23.562  0.00  0.00    +0.000 C 
ATOM     10  O   UNL     1      -5.918  11.961  24.212  0.00  0.00    +0.000 OA
ATOM     11  N   UNL     1      -6.677  13.309  22.531  0.00  0.00    +0.000 N 
ATOM     12  C   UNL     1      -6.830  14.605  21.878  0.00  0.00    +0.000 C 
BRANCH  11  13
ATOM     13  C   UNL     1      -7.671  12.296  22.162  0.00  0.00    +0.000 C 
BRANCH  13  14
ATOM     14  C   UNL     1      -7.238  11.561  20.920  0.00  0.00    +0.000 A 
ATOM     15  C   UNL     1      -6.576  12.113  19.839  0.00  0.00    +0.000 A 
ATOM     16  S   UNL     1      -6.211  10.903  18.679  0.00  0.00    +0.000 S 
ATOM     17  C   UNL     1      -6.973   9.741  19.682  0.00  0.00    +0.000 A 
ATOM     18  N   UNL     1      -7.472  10.189  20.814  0.00  0.00    +0.000 NA
ENDBRANCH  13  14
ENDBRANCH  11  13
ENDBRANCH   8   9
BRANCH   1  19
ATOM     19  C   UNL     1      -0.875  13.168  20.416  0.00  0.00    +0.000 C 
BRANCH  19  25
ATOM     20  C   UNL     1       1.116  12.383  19.115  0.00  0.00    +0.000 A 
ATOM     21  C   UNL     1       2.276  12.528  18.380  0.00  0.00    +0.000 A 
ATOM     22  C   UNL     1       2.765  13.819  18.142  0.00  0.00    +0.000 A 
ATOM     23  C   UNL     1       2.058  14.940  18.627  0.00  0.00    +0.000 A 
ATOM     24  C   UNL     1       0.867  14.789  19.356  0.00  0.00    +0.000 A 
ATOM     25  C   UNL     1       0.385  13.502  19.618  0.00  0.00    +0.000 A 
BRANCH  20  27
ATOM     26  C   UNL     1       0.505   9.990  18.743  0.00  0.00    +0.000 C 
ATOM     27  O   UNL     1       0.530  11.195  19.474  0.00  0.00    +0.000 OA
ENDBRANCH  20  27
BRANCH  24  28
ATOM     28  O   UNL     1       0.323  16.014  19.655  0.00  0.00    +0.000 OA
ATOM     29  C   UNL     1       1.025  17.186  19.298  0.00  0.00    +0.000 C 
ENDBRANCH  24  28
ENDBRANCH  19  25
ENDBRANCH   1  19
TORSDOF 7
ENDMDL
MODEL 8
REMARK VINA RESULT:      -5.8      4.729      6.985
REMARK  Name = 
REMARK  10 active torsions:
REMARK  status: ('A' for Active; 'I' for Inactive)
REMARK    1  A    between atoms: C_1  and  O_2
REMARK    2  A    between atoms: O_2  and  C_3
REMARK    3  A    between atoms: C_7  and  O_8
REMARK    4  A    between atoms: O_8  and  C_9
REMARK    5  A    between atoms: C_10  and  C_11
REMARK    6  A    between atoms: C_11  and  N_12
REMARK    7  A    between atoms: C_19  and  C_20
REMARK    8  A    between atoms: N_22  and  C_23
REMARK    9  A    between atoms: N_22  and  C_24
REMARK   10  A    between atoms: C_24  and  C_25
REMARK                            x       y       z     vdW  Elec       q    Type
REMARK                         _______ _______ _______ _____ _____    ______ ____
ROOT
ATOM      1  N   UNL     1      -0.818  12.954  21.746  0.00  0.00    +0.000 NA
ATOM      2  C   UNL     1      -0.893  14.217  22.464  0.00  0.00    +0.000 C 
ATOM      3  C   UNL     1      -2.262  14.654  22.996  0.00  0.00    +0.000 C 
ATOM      4  C   UNL     1      -3.217  13.560  23.445  0.00  0.00    +0.000 C 
ATOM      5  C   UNL     1      -3.002  12.200  22.802  0.00  0.00    +0.000 C 
ATOM      6  C   UNL     1      -1.566  11.882  22.381  0.00  0.00    +0.000 C 
ATOM      7  C   UNL     1      -3.790  13.583  24.854  0.00  0.00    +0.000 C 
ATOM      8  C   UNL     1      -4.660  14.075  23.731  0.00  0.00    +0.000 C 
ENDROOT
BRANCH   8   9
ATOM      9  C   UNL     1      -5.906  13.332  23.320  0.00  0.00    +0.000 C 
ATOM     10  O   UNL     1      -6.215  12.298  23.906  0.00  0.00    +0.000 OA
ATOM     11  N   UNL     1      -6.687  13.823  22.270  0.00  0.00    +0.000 N 
ATOM     12  C   UNL     1      -6.620  15.157  21.685  0.00  0.00    +0.000 C 
BRANCH  11  13
ATOM     13  C   UNL     1      -7.796  12.984  21.803  0.00  0.00    +0.000 C 
BRANCH  13  14
ATOM     14  C   UNL     1      -7.407  12.249  20.547  0.00  0.00    +0.000 A 
ATOM     15  C   UNL     1      -7.448  12.759  19.262  0.00  0.00    +0.000 A 
ATOM     16  S   UNL     1      -6.849  11.606  18.142  0.00  0.00    +0.000 S 
ATOM     17  C   UNL     1      -6.600  10.510  19.435  0.00  0.00    +0.000 A 
ATOM     18  N   UNL     1      -6.925  10.943  20.634  0.00  0.00    +0.000 NA
ENDBRANCH  13  14
ENDBRANCH  11  13
ENDBRANCH   8   9
BRANCH   1  19
ATOM     19  C   UNL     1      -0.921  13.096  20.292  0.00  0.00    +0.000 C 
BRANCH  19  25
ATOM     20  C   UNL     1       1.175  12.141  19.309  0.00  0.00    +0.000 A 
ATOM     21  C   UNL     1       1.927  11.237  18.587  0.00  0.00    +0.000 A 
ATOM     22  C   UNL     1       1.276  10.164  17.965  0.00  0.00    +0.000 A 
ATOM     23  C   UNL     1      -0.120  10.009  18.108  0.00  0.00    +0.000 A 
ATOM     24  C   UNL     1      -0.879  10.919  18.861  0.00  0.00    +0.000 A 
ATOM     25  C   UNL     1      -0.239  12.007  19.466  0.00  0.00    +0.000 A 
BRANCH  20  27
ATOM     26  C   UNL     1       2.960  13.780  19.916  0.00  0.00    +0.000 C 
ATOM     27  O   UNL     1       1.647  13.266  19.938  0.00  0.00    +0.000 OA
ENDBRANCH  20  27
BRANCH  24  28
ATOM     28  O   UNL     1      -2.192  10.524  18.920  0.00  0.00    +0.000 OA
ATOM     29  C   UNL     1      -2.763   9.863  17.810  0.00  0.00    +0.000 C 
ENDBRANCH  24  28
ENDBRANCH  19  25
ENDBRANCH   1  19
TORSDOF 7
ENDMDL
MODEL 9
REMARK VINA RESULT:      -5.8      3.888      5.350
REMARK  Name = 
REMARK  10 active torsions:
REMARK  status: ('A' for Active; 'I' for Inactive)
REMARK    1  A    between atoms: C_1  and  O_2
REMARK    2  A    between atoms: O_2  and  C_3
REMARK    3  A    between atoms: C_7  and  O_8
REMARK    4  A    between atoms: O_8  and  C_9
REMARK    5  A    between atoms: C_10  and  C_11
REMARK    6  A    between atoms: C_11  and  N_12
REMARK    7  A    between atoms: C_19  and  C_20
REMARK    8  A    between atoms: N_22  and  C_23
REMARK    9  A    between atoms: N_22  and  C_24
REMARK   10  A    between atoms: C_24  and  C_25
REMARK                            x       y       z     vdW  Elec       q    Type
REMARK                         _______ _______ _______ _____ _____    ______ ____
ROOT
ATOM      1  N   UNL     1       2.622   6.622  18.665  0.00  0.00    +0.000 NA
ATOM      2  C   UNL     1       2.016   6.819  19.973  0.00  0.00    +0.000 C 
ATOM      3  C   UNL     1       1.682   8.254  20.395  0.00  0.00    +0.000 C 
ATOM      4  C   UNL     1       1.266   9.223  19.299  0.00  0.00    +0.000 C 
ATOM      5  C   UNL     1       1.774   8.893  17.905  0.00  0.00    +0.000 C 
ATOM      6  C   UNL     1       1.998   7.408  17.614  0.00  0.00    +0.000 C 
ATOM      7  C   UNL     1      -0.060   9.961  19.402  0.00  0.00    +0.000 C 
ATOM      8  C   UNL     1       1.191  10.705  19.778  0.00  0.00    +0.000 C 
ENDROOT
BRANCH   8   9
ATOM      9  C   UNL     1       1.686  11.870  18.960  0.00  0.00    +0.000 C 
ATOM     10  O   UNL     1       2.448  11.668  18.018  0.00  0.00    +0.000 OA
ATOM     11  N   UNL     1       1.283  13.167  19.290  0.00  0.00    +0.000 N 
ATOM     12  C   UNL     1       0.180  13.538  20.170  0.00  0.00    +0.000 C 
BRANCH  11  13
ATOM     13  C   UNL     1       1.915  14.276  18.569  0.00  0.00    +0.000 C 
BRANCH  13  14
ATOM     14  C   UNL     1       3.263  14.590  19.163  0.00  0.00    +0.000 A 
ATOM     15  C   UNL     1       4.407  14.914  18.456  0.00  0.00    +0.000 A 
ATOM     16  S   UNL     1       5.696  15.267  19.533  0.00  0.00    +0.000 S 
ATOM     17  C   UNL     1       4.653  14.945  20.854  0.00  0.00    +0.000 A 
ATOM     18  N   UNL     1       3.420  14.600  20.550  0.00  0.00    +0.000 NA
ENDBRANCH  13  14
ENDBRANCH  11  13
ENDBRANCH   8   9
BRANCH   1  19
ATOM     19  C   UNL     1       4.085   6.554  18.698  0.00  0.00    +0.000 C 
BRANCH  19  25
ATOM     20  C   UNL     1       5.913   6.080  17.054  0.00  0.00    +0.000 A 
ATOM     21  C   UNL     1       6.605   5.332  16.123  0.00  0.00    +0.000 A 
ATOM     22  C   UNL     1       6.112   4.067  15.776  0.00  0.00    +0.000 A 
ATOM     23  C   UNL     1       4.947   3.571  16.397  0.00  0.00    +0.000 A 
ATOM     24  C   UNL     1       4.258   4.326  17.360  0.00  0.00    +0.000 A 
ATOM     25  C   UNL     1       4.730   5.600  17.695  0.00  0.00    +0.000 A 
BRANCH  20  27
ATOM     26  C   UNL     1       7.506   7.952  17.499  0.00  0.00    +0.000 C 
ATOM     27  O   UNL     1       6.232   7.349  17.471  0.00  0.00    +0.000 OA
ENDBRANCH  20  27
BRANCH  24  28
ATOM     28  O   UNL     1       3.206   3.610  17.876  0.00  0.00    +0.000 OA
ATOM     29  C   UNL     1       3.255   2.199  17.854  0.00  0.00    +0.000 C 
ENDBRANCH  24  28
ENDBRANCH  19  25
ENDBRANCH   1  19
TORSDOF 7
ENDMDL
