MODEL 1
REMARK VINA RESULT:      -7.0      0.000      0.000
REMARK  Name = 
REMARK  7 active torsions:
REMARK  status: ('A' for Active; 'I' for Inactive)
REMARK    1  A    between atoms: C_1  and  C_2
REMARK    2  A    between atoms: C_2  and  C_3
REMARK    3  A    between atoms: C_3  and  N_4
REMARK    4  A    between atoms: N_4  and  C_5
REMARK    5  A    between atoms: C_6  and  C_8
REMARK    6  A    between atoms: C_10  and  N_11
REMARK    7  A    between atoms: C_14  and  C_15
REMARK                            x       y       z     vdW  Elec       q    Type
REMARK                         _______ _______ _______ _____ _____    ______ ____
ROOT
ATOM      1  C   UNL     1       5.944   5.508  17.524  0.00  0.00    +0.000 A 
ATOM      2  C   UNL     1       6.894   5.064  18.539  0.00  0.00    +0.000 A 
ATOM      3  C   UNL     1       7.793   5.815  19.137  0.00  0.00    +0.000 A 
ATOM      4  C   UNL     1       7.922   7.147  18.662  0.00  0.00    +0.000 A 
ATOM      5  N   UNL     1       8.805   8.068  18.926  0.00  0.00    +0.000 NA
ATOM      6  C   UNL     1       8.376   9.141  18.204  0.00  0.00    +0.000 A 
ATOM      7  N   UNL     1       7.255   8.912  17.472  0.00  0.00    +0.000 NA
ATOM      8  N   UNL     1       7.020   7.601  17.700  0.00  0.00    +0.000 N 
ATOM      9  C   UNL     1       6.055   6.776  17.117  0.00  0.00    +0.000 A 
ENDROOT
BRANCH   6  10
ATOM     10  C   UNL     1       9.073  10.456  18.224  0.00  0.00    +0.000 A 
ATOM     11  C   UNL     1       8.630  11.623  17.645  0.00  0.00    +0.000 A 
ATOM     12  C   UNL     1       9.618  12.611  17.884  0.00  0.00    +0.000 A 
ATOM     13  C   UNL     1      10.623  11.976  18.576  0.00  0.00    +0.000 A 
ATOM     14 BR   UNL     1      12.244  12.761  19.063  0.00  0.00    +0.000 Br
ATOM     15  O   UNL     1      10.283  10.684  18.832  0.00  0.00    +0.000 OA
ENDBRANCH   6  10
BRANCH   1  18
ATOM     16  N   UNL     1       3.690   4.421  17.602  0.00  0.00    +0.000 N 
ATOM     17  C   UNL     1       3.349   5.064  18.874  0.00  0.00    +0.000 C 
ATOM     18  C   UNL     1       4.888   4.621  16.912  0.00  0.00    +0.000 C 
ATOM     19  O   UNL     1       5.097   4.131  15.796  0.00  0.00    +0.000 OA
BRANCH  16  20
ATOM     20  C   UNL     1       2.653   3.581  16.983  0.00  0.00    +0.000 C 
BRANCH  20  22
ATOM     21  C   UNL     1       3.478   1.516  18.247  0.00  0.00    +0.000 C 
ATOM     22  C   UNL     1       2.278   2.307  17.751  0.00  0.00    +0.000 C 
ENDBRANCH  20  22
ENDBRANCH  16  20
ENDBRANCH   1  18
BRANCH   3  23
ATOM     23  N   UNL     1       8.611   5.324  20.153  0.00  0.00    +0.000 N 
ATOM     24  H   UNL     1       9.515   5.782  20.273  0.00  0.00    +0.000 HD
ATOM     25  H   UNL     1       8.651   4.308  20.162  0.00  0.00    +0.000 HD
ENDBRANCH   3  23
TORSDOF 5
ENDMDL
MODEL 2
REMARK VINA RESULT:      -6.9      1.008      1.126
REMARK  Name = 
REMARK  7 active torsions:
REMARK  status: ('A' for Active; 'I' for Inactive)
REMARK    1  A    between atoms: C_1  and  C_2
REMARK    2  A    between atoms: C_2  and  C_3
REMARK    3  A    between atoms: C_3  and  N_4
REMARK    4  A    between atoms: N_4  and  C_5
REMARK    5  A    between atoms: C_6  and  C_8
REMARK    6  A    between atoms: C_10  and  N_11
REMARK    7  A    between atoms: C_14  and  C_15
REMARK                            x       y       z     vdW  Elec       q    Type
REMARK                         _______ _______ _______ _____ _____    ______ ____
ROOT
ATOM      1  C   UNL     1       5.884   5.470  17.501  0.00  0.00    +0.000 A 
ATOM      2  C   UNL     1       6.852   5.064  18.515  0.00  0.00    +0.000 A 
ATOM      3  C   UNL     1       7.749   5.840  19.082  0.00  0.00    +0.000 A 
ATOM      4  C   UNL     1       7.857   7.161  18.570  0.00  0.00    +0.000 A 
ATOM      5  N   UNL     1       8.733   8.098  18.799  0.00  0.00    +0.000 NA
ATOM      6  C   UNL     1       8.282   9.147  18.055  0.00  0.00    +0.000 A 
ATOM      7  N   UNL     1       7.156   8.886  17.343  0.00  0.00    +0.000 NA
ATOM      8  N   UNL     1       6.938   7.579  17.608  0.00  0.00    +0.000 N 
ATOM      9  C   UNL     1       5.976   6.728  17.059  0.00  0.00    +0.000 A 
ENDROOT
BRANCH   6  10
ATOM     10  C   UNL     1       8.964  10.470  18.032  0.00  0.00    +0.000 A 
ATOM     11  C   UNL     1      10.313  10.696  18.177  0.00  0.00    +0.000 A 
ATOM     12  C   UNL     1      10.513  12.097  18.122  0.00  0.00    +0.000 A 
ATOM     13  C   UNL     1       9.261  12.648  17.972  0.00  0.00    +0.000 A 
ATOM     14 BR   UNL     1       8.896  14.478  17.955  0.00  0.00    +0.000 Br
ATOM     15  O   UNL     1       8.320  11.672  17.866  0.00  0.00    +0.000 OA
ENDBRANCH   6  10
BRANCH   1  18
ATOM     16  N   UNL     1       3.638   4.371  17.629  0.00  0.00    +0.000 N 
ATOM     17  C   UNL     1       3.299   5.057  18.879  0.00  0.00    +0.000 C 
ATOM     18  C   UNL     1       4.831   4.555  16.925  0.00  0.00    +0.000 C 
ATOM     19  O   UNL     1       5.038   4.027  15.827  0.00  0.00    +0.000 OA
BRANCH  16  20
ATOM     20  C   UNL     1       2.604   3.504  17.044  0.00  0.00    +0.000 C 
BRANCH  20  22
ATOM     21  C   UNL     1       3.480   1.488  18.354  0.00  0.00    +0.000 C 
ATOM     22  C   UNL     1       2.260   2.241  17.846  0.00  0.00    +0.000 C 
ENDBRANCH  20  22
ENDBRANCH  16  20
ENDBRANCH   1  18
BRANCH   3  23
ATOM     23  N   UNL     1       8.586   5.386  20.100  0.00  0.00    +0.000 N 
ATOM     24  H   UNL     1       8.841   6.063  20.818  0.00  0.00    +0.000 HD
ATOM     25  H   UNL     1       9.365   4.836  19.745  0.00  0.00    +0.000 HD
ENDBRANCH   3  23
TORSDOF 5
ENDMDL
MODEL 3
REMARK VINA RESULT:      -6.9      2.326      2.946
REMARK  Name = 
REMARK  7 active torsions:
REMARK  status: ('A' for Active; 'I' for Inactive)
REMARK    1  A    between atoms: C_1  and  C_2
REMARK    2  A    between atoms: C_2  and  C_3
REMARK    3  A    between atoms: C_3  and  N_4
REMARK    4  A    between atoms: N_4  and  C_5
REMARK    5  A    between atoms: C_6  and  C_8
REMARK    6  A    between atoms: C_10  and  N_11
REMARK    7  A    between atoms: C_14  and  C_15
REMARK                            x       y       z     vdW  Elec       q    Type
REMARK                         _______ _______ _______ _____ _____    ______ ____
ROOT
ATOM      1  C   UNL     1       6.423   5.446  16.786  0.00  0.00    +0.000 A 
ATOM      2  C   UNL     1       7.145   4.970  17.961  0.00  0.00    +0.000 A 
ATOM      3  C   UNL     1       7.833   5.714  18.799  0.00  0.00    +0.000 A 
ATOM      4  C   UNL     1       7.978   7.084  18.457  0.00  0.00    +0.000 A 
ATOM      5  N   UNL     1       8.716   8.023  18.979  0.00  0.00    +0.000 NA
ATOM      6  C   UNL     1       8.392   9.128  18.250  0.00  0.00    +0.000 A 
ATOM      7  N   UNL     1       7.485   8.903  17.264  0.00  0.00    +0.000 NA
ATOM      8  N   UNL     1       7.291   7.568  17.344  0.00  0.00    +0.000 N 
ATOM      9  C   UNL     1       6.540   6.747  16.501  0.00  0.00    +0.000 A 
ENDROOT
BRANCH   6  10
ATOM     10  C   UNL     1       8.977  10.470  18.518  0.00  0.00    +0.000 A 
ATOM     11  C   UNL     1       9.968  10.762  19.427  0.00  0.00    +0.000 A 
ATOM     12  C   UNL     1      10.191  12.159  19.371  0.00  0.00    +0.000 A 
ATOM     13  C   UNL     1       9.298  12.645  18.444  0.00  0.00    +0.000 A 
ATOM     14 BR   UNL     1       9.058  14.449  18.036  0.00  0.00    +0.000 Br
ATOM     15  O   UNL     1       8.592  11.626  17.884  0.00  0.00    +0.000 OA
ENDBRANCH   6  10
BRANCH   1  18
ATOM     16  N   UNL     1       6.042   4.309  14.589  0.00  0.00    +0.000 N 
ATOM     17  C   UNL     1       7.308   4.801  14.038  0.00  0.00    +0.000 C 
ATOM     18  C   UNL     1       5.595   4.560  15.888  0.00  0.00    +0.000 C 
ATOM     19  O   UNL     1       4.565   4.049  16.342  0.00  0.00    +0.000 OA
BRANCH  16  20
ATOM     20  C   UNL     1       5.245   3.418  13.730  0.00  0.00    +0.000 C 
BRANCH  20  22
ATOM     21  C   UNL     1       4.389   3.275  11.324  0.00  0.00    +0.000 C 
ATOM     22  C   UNL     1       5.593   3.443  12.236  0.00  0.00    +0.000 C 
ENDBRANCH  20  22
ENDBRANCH  16  20
ENDBRANCH   1  18
BRANCH   3  23
ATOM     23  N   UNL     1       8.430   5.184  19.943  0.00  0.00    +0.000 N 
ATOM     24  H   UNL     1       8.777   5.854  20.629  0.00  0.00    +0.000 HD
ATOM     25  H   UNL     1       9.077   4.429  19.728  0.00  0.00    +0.000 HD
ENDBRANCH   3  23
TORSDOF 5
ENDMDL
MODEL 4
REMARK VINA RESULT:      -6.9      5.162      6.443
REMARK  Name = 
REMARK  7 active torsions:
REMARK  status: ('A' for Active; 'I' for Inactive)
REMARK    1  A    between atoms: C_1  and  C_2
REMARK    2  A    between atoms: C_2  and  C_3
REMARK    3  A    between atoms: C_3  and  N_4
REMARK    4  A    between atoms: N_4  and  C_5
REMARK    5  A    between atoms: C_6  and  C_8
REMARK    6  A    between atoms: C_10  and  N_11
REMARK    7  A    between atoms: C_14  and  C_15
REMARK                            x       y       z     vdW  Elec       q    Type
REMARK                         _______ _______ _______ _____ _____    ______ ____
ROOT
ATOM      1  C   UNL     1       5.915   5.154  15.930  0.00  0.00    +0.000 A 
ATOM      2  C   UNL     1       5.908   4.291  17.106  0.00  0.00    +0.000 A 
ATOM      3  C   UNL     1       5.136   4.429  18.161  0.00  0.00    +0.000 A 
ATOM      4  C   UNL     1       4.324   5.594  18.203  0.00  0.00    +0.000 A 
ATOM      5  N   UNL     1       3.590   6.091  19.158  0.00  0.00    +0.000 NA
ATOM      6  C   UNL     1       3.020   7.189  18.585  0.00  0.00    +0.000 A 
ATOM      7  N   UNL     1       3.396   7.409  17.299  0.00  0.00    +0.000 NA
ATOM      8  N   UNL     1       4.304   6.431  17.088  0.00  0.00    +0.000 N 
ATOM      9  C   UNL     1       5.116   6.225  15.970  0.00  0.00    +0.000 A 
ENDROOT
BRANCH   6  10
ATOM     10  C   UNL     1       2.060   8.067  19.308  0.00  0.00    +0.000 A 
ATOM     11  C   UNL     1       1.409   9.164  18.792  0.00  0.00    +0.000 A 
ATOM     12  C   UNL     1       0.623   9.714  19.834  0.00  0.00    +0.000 A 
ATOM     13  C   UNL     1       0.863   8.931  20.939  0.00  0.00    +0.000 A 
ATOM     14 BR   UNL     1       0.180   9.254  22.645  0.00  0.00    +0.000 Br
ATOM     15  O   UNL     1       1.692   7.900  20.621  0.00  0.00    +0.000 OA
ENDBRANCH   6  10
BRANCH   1  18
ATOM     16  N   UNL     1       6.274   4.137  13.670  0.00  0.00    +0.000 N 
ATOM     17  C   UNL     1       4.924   3.567  13.638  0.00  0.00    +0.000 C 
ATOM     18  C   UNL     1       6.777   4.917  14.714  0.00  0.00    +0.000 C 
ATOM     19  O   UNL     1       7.889   5.455  14.659  0.00  0.00    +0.000 OA
BRANCH  16  20
ATOM     20  C   UNL     1       7.108   3.938  12.475  0.00  0.00    +0.000 C 
BRANCH  20  22
ATOM     21  C   UNL     1       7.428   1.816  11.082  0.00  0.00    +0.000 C 
ATOM     22  C   UNL     1       6.531   3.000  11.406  0.00  0.00    +0.000 C 
ENDBRANCH  20  22
ENDBRANCH  16  20
ENDBRANCH   1  18
BRANCH   3  23
ATOM     23  N   UNL     1       5.142   3.511  19.210  0.00  0.00    +0.000 N 
ATOM     24  H   UNL     1       4.667   3.793  20.067  0.00  0.00    +0.000 HD
ATOM     25  H   UNL     1       6.058   3.094  19.355  0.00  0.00    +0.000 HD
ENDBRANCH   3  23
TORSDOF 5
ENDMDL
MODEL 5
REMARK VINA RESULT:      -6.8      5.148      6.566
REMARK  Name = 
REMARK  7 active torsions:
REMARK  status: ('A' for Active; 'I' for Inactive)
REMARK    1  A    between atoms: C_1  and  C_2
REMARK    2  A    between atoms: C_2  and  C_3
REMARK    3  A    between atoms: C_3  and  N_4
REMARK    4  A    between atoms: N_4  and  C_5
REMARK    5  A    between atoms: C_6  and  C_8
REMARK    6  A    between atoms: C_10  and  N_11
REMARK    7  A    between atoms: C_14  and  C_15
REMARK                            x       y       z     vdW  Elec       q    Type
REMARK                         _______ _______ _______ _____ _____    ______ ____
ROOT
ATOM      1  C   UNL     1       3.892   5.927  17.669  0.00  0.00    +0.000 A 
ATOM      2  C   UNL     1       3.419   5.574  19.004  0.00  0.00    +0.000 A 
ATOM      3  C   UNL     1       2.586   6.277  19.740  0.00  0.00    +0.000 A 
ATOM      4  C   UNL     1       2.212   7.549  19.232  0.00  0.00    +0.000 A 
ATOM      5  N   UNL     1       1.549   8.528  19.780  0.00  0.00    +0.000 NA
ATOM      6  C   UNL     1       1.471   9.458  18.787  0.00  0.00    +0.000 A 
ATOM      7  N   UNL     1       2.089   9.099  17.633  0.00  0.00    +0.000 NA
ATOM      8  N   UNL     1       2.641   7.908  17.955  0.00  0.00    +0.000 N 
ATOM      9  C   UNL     1       3.497   7.112  17.191  0.00  0.00    +0.000 A 
ENDROOT
BRANCH   6  10
ATOM     10  C   UNL     1       0.760  10.756  18.953  0.00  0.00    +0.000 A 
ATOM     11  C   UNL     1      -0.590  10.926  19.160  0.00  0.00    +0.000 A 
ATOM     12  C   UNL     1      -0.831  12.320  19.228  0.00  0.00    +0.000 A 
ATOM     13  C   UNL     1       0.390  12.922  19.031  0.00  0.00    +0.000 A 
ATOM     14 BR   UNL     1       0.665  14.763  18.903  0.00  0.00    +0.000 Br
ATOM     15  O   UNL     1       1.370  11.986  18.913  0.00  0.00    +0.000 OA
ENDBRANCH   6  10
BRANCH   1  18
ATOM     16  N   UNL     1       6.130   5.442  16.659  0.00  0.00    +0.000 N 
ATOM     17  C   UNL     1       6.741   6.622  17.279  0.00  0.00    +0.000 C 
ATOM     18  C   UNL     1       4.800   5.056  16.838  0.00  0.00    +0.000 C 
ATOM     19  O   UNL     1       4.350   4.003  16.371  0.00  0.00    +0.000 OA
BRANCH  16  20
ATOM     20  C   UNL     1       7.017   4.570  15.873  0.00  0.00    +0.000 C 
BRANCH  20  22
ATOM     21  C   UNL     1       6.238   3.863  13.542  0.00  0.00    +0.000 C 
ATOM     22  C   UNL     1       7.057   4.845  14.364  0.00  0.00    +0.000 C 
ENDBRANCH  20  22
ENDBRANCH  16  20
ENDBRANCH   1  18
BRANCH   3  23
ATOM     23  N   UNL     1       2.127   5.825  20.976  0.00  0.00    +0.000 N 
ATOM     24  H   UNL     1       2.039   6.523  21.714  0.00  0.00    +0.000 HD
ATOM     25  H   UNL     1       2.580   4.962  21.266  0.00  0.00    +0.000 HD
ENDBRANCH   3  23
TORSDOF 5
ENDMDL
MODEL 6
REMARK VINA RESULT:      -6.8      5.203      6.827
REMARK  Name = 
REMARK  7 active torsions:
REMARK  status: ('A' for Active; 'I' for Inactive)
REMARK    1  A    between atoms: C_1  and  C_2
REMARK    2  A    between atoms: C_2  and  C_3
REMARK    3  A    between atoms: C_3  and  N_4
REMARK    4  A    between atoms: N_4  and  C_5
REMARK    5  A    between atoms: C_6  and  C_8
REMARK    6  A    between atoms: C_10  and  N_11
REMARK    7  A    between atoms: C_14  and  C_15
REMARK                            x       y       z     vdW  Elec       q    Type
REMARK                         _______ _______ _______ _____ _____    ______ ____
ROOT
ATOM      1  C   UNL     1       3.938   5.470  17.975  0.00  0.00    +0.000 A 
ATOM      2  C   UNL     1       3.566   4.934  19.280  0.00  0.00    +0.000 A 
ATOM      3  C   UNL     1       2.755   5.502  20.145  0.00  0.00    +0.000 A 
ATOM      4  C   UNL     1       2.297   6.807  19.822  0.00  0.00    +0.000 A 
ATOM      5  N   UNL     1       1.632   7.679  20.526  0.00  0.00    +0.000 NA
ATOM      6  C   UNL     1       1.453   8.718  19.663  0.00  0.00    +0.000 A 
ATOM      7  N   UNL     1       2.010   8.532  18.438  0.00  0.00    +0.000 NA
ATOM      8  N   UNL     1       2.629   7.339  18.577  0.00  0.00    +0.000 N 
ATOM      9  C   UNL     1       3.466   6.683  17.671  0.00  0.00    +0.000 A 
ENDROOT
BRANCH   6  10
ATOM     10  C   UNL     1       0.702   9.950  20.030  0.00  0.00    +0.000 A 
ATOM     11  C   UNL     1       0.481  11.043  19.223  0.00  0.00    +0.000 A 
ATOM     12  C   UNL     1      -0.246  11.988  19.986  0.00  0.00    +0.000 A 
ATOM     13  C   UNL     1      -0.404  11.424  21.231  0.00  0.00    +0.000 A 
ATOM     14 BR   UNL     1      -1.192  12.270  22.695  0.00  0.00    +0.000 Br
ATOM     15  O   UNL     1       0.122  10.170  21.256  0.00  0.00    +0.000 OA
ENDBRANCH   6  10
BRANCH   1  18
ATOM     16  N   UNL     1       6.143   5.184  16.825  0.00  0.00    +0.000 N 
ATOM     17  C   UNL     1       6.761   6.268  17.594  0.00  0.00    +0.000 C 
ATOM     18  C   UNL     1       4.825   4.750  16.989  0.00  0.00    +0.000 C 
ATOM     19  O   UNL     1       4.372   3.771  16.385  0.00  0.00    +0.000 OA
BRANCH  16  20
ATOM     20  C   UNL     1       7.011   4.456  15.885  0.00  0.00    +0.000 C 
BRANCH  20  22
ATOM     21  C   UNL     1       6.207   3.916  13.517  0.00  0.00    +0.000 C 
ATOM     22  C   UNL     1       6.931   4.903  14.420  0.00  0.00    +0.000 C 
ENDBRANCH  20  22
ENDBRANCH  16  20
ENDBRANCH   1  18
BRANCH   3  23
ATOM     23  N   UNL     1       2.394   4.882  21.341  0.00  0.00    +0.000 N 
ATOM     24  H   UNL     1       3.129   4.374  21.832  0.00  0.00    +0.000 HD
ATOM     25  H   UNL     1       1.514   4.377  21.265  0.00  0.00    +0.000 HD
ENDBRANCH   3  23
TORSDOF 5
ENDMDL
MODEL 7
REMARK VINA RESULT:      -6.7      5.499      7.024
REMARK  Name = 
REMARK  7 active torsions:
REMARK  status: ('A' for Active; 'I' for Inactive)
REMARK    1  A    between atoms: C_1  and  C_2
REMARK    2  A    between atoms: C_2  and  C_3
REMARK    3  A    between atoms: C_3  and  N_4
REMARK    4  A    between atoms: N_4  and  C_5
REMARK    5  A    between atoms: C_6  and  C_8
REMARK    6  A    between atoms: C_10  and  N_11
REMARK    7  A    between atoms: C_14  and  C_15
REMARK                            x       y       z     vdW  Elec       q    Type
REMARK                         _______ _______ _______ _____ _____    ______ ____
ROOT
ATOM      1  C   UNL     1       4.110   6.416  17.717  0.00  0.00    +0.000 A 
ATOM      2  C   UNL     1       3.778   5.700  18.944  0.00  0.00    +0.000 A 
ATOM      3  C   UNL     1       2.870   6.057  19.826  0.00  0.00    +0.000 A 
ATOM      4  C   UNL     1       2.245   7.315  19.616  0.00  0.00    +0.000 A 
ATOM      5  N   UNL     1       1.444   8.009  20.374  0.00  0.00    +0.000 NA
ATOM      6  C   UNL     1       1.147   9.100  19.613  0.00  0.00    +0.000 A 
ATOM      7  N   UNL     1       1.761   9.122  18.402  0.00  0.00    +0.000 NA
ATOM      8  N   UNL     1       2.536   8.016  18.446  0.00  0.00    +0.000 N 
ATOM      9  C   UNL     1       3.483   7.580  17.517  0.00  0.00    +0.000 A 
ENDROOT
BRANCH   6  10
ATOM     10  C   UNL     1       0.221  10.172  20.069  0.00  0.00    +0.000 A 
ATOM     11  C   UNL     1      -0.477  11.045  19.265  0.00  0.00    +0.000 A 
ATOM     12  C   UNL     1      -1.205  11.910  20.118  0.00  0.00    +0.000 A 
ATOM     13  C   UNL     1      -0.886  11.529  21.400  0.00  0.00    +0.000 A 
ATOM     14 BR   UNL     1      -1.465  12.396  22.947  0.00  0.00    +0.000 Br
ATOM     15  O   UNL     1      -0.062  10.446  21.385  0.00  0.00    +0.000 OA
ENDBRANCH   6  10
BRANCH   1  18
ATOM     16  N   UNL     1       5.096   4.591  16.316  0.00  0.00    +0.000 N 
ATOM     17  C   UNL     1       4.111   3.610  16.781  0.00  0.00    +0.000 C 
ATOM     18  C   UNL     1       5.118   5.933  16.705  0.00  0.00    +0.000 C 
ATOM     19  O   UNL     1       5.910   6.748  16.217  0.00  0.00    +0.000 OA
BRANCH  16  20
ATOM     20  C   UNL     1       6.061   4.135  15.303  0.00  0.00    +0.000 C 
BRANCH  20  22
ATOM     21  C   UNL     1       6.585   3.810  12.821  0.00  0.00    +0.000 C 
ATOM     22  C   UNL     1       5.508   3.961  13.883  0.00  0.00    +0.000 C 
ENDBRANCH  20  22
ENDBRANCH  16  20
ENDBRANCH   1  18
BRANCH   3  23
ATOM     23  N   UNL     1       2.563   5.270  20.935  0.00  0.00    +0.000 N 
ATOM     24  H   UNL     1       3.308   5.133  21.618  0.00  0.00    +0.000 HD
ATOM     25  H   UNL     1       2.064   4.421  20.682  0.00  0.00    +0.000 HD
ENDBRANCH   3  23
TORSDOF 5
ENDMDL
MODEL 8
REMARK VINA RESULT:      -6.7      4.987      7.018
REMARK  Name = 
REMARK  7 active torsions:
REMARK  status: ('A' for Active; 'I' for Inactive)
REMARK    1  A    between atoms: C_1  and  C_2
REMARK    2  A    between atoms: C_2  and  C_3
REMARK    3  A    between atoms: C_3  and  N_4
REMARK    4  A    between atoms: N_4  and  C_5
REMARK    5  A    between atoms: C_6  and  C_8
REMARK    6  A    between atoms: C_10  and  N_11
REMARK    7  A    between atoms: C_14  and  C_15
REMARK                            x       y       z     vdW  Elec       q    Type
REMARK                         _______ _______ _______ _____ _____    ______ ____
ROOT
ATOM      1  C   UNL     1       3.668   5.123  18.340  0.00  0.00    +0.000 A 
ATOM      2  C   UNL     1       3.176   4.319  19.455  0.00  0.00    +0.000 A 
ATOM      3  C   UNL     1       2.358   4.727  20.400  0.00  0.00    +0.000 A 
ATOM      4  C   UNL     1       2.022   6.107  20.394  0.00  0.00    +0.000 A 
ATOM      5  N   UNL     1       1.383   6.836  21.265  0.00  0.00    +0.000 NA
ATOM      6  C   UNL     1       1.337   8.066  20.681  0.00  0.00    +0.000 A 
ATOM      7  N   UNL     1       1.952   8.137  19.473  0.00  0.00    +0.000 NA
ATOM      8  N   UNL     1       2.469   6.896  19.335  0.00  0.00    +0.000 N 
ATOM      9  C   UNL     1       3.309   6.411  18.330  0.00  0.00    +0.000 A 
ENDROOT
BRANCH   6  10
ATOM     10  C   UNL     1       0.660   9.232  21.312  0.00  0.00    +0.000 A 
ATOM     11  C   UNL     1      -0.192   9.196  22.392  0.00  0.00    +0.000 A 
ATOM     12  C   UNL     1      -0.623  10.523  22.633  0.00  0.00    +0.000 A 
ATOM     13  C   UNL     1      -0.026  11.293  21.661  0.00  0.00    +0.000 A 
ATOM     14 BR   UNL     1      -0.323  13.118  21.412  0.00  0.00    +0.000 Br
ATOM     15  O   UNL     1       0.793  10.531  20.886  0.00  0.00    +0.000 OA
ENDBRANCH   6  10
BRANCH   1  18
ATOM     16  N   UNL     1       5.928   4.856  17.297  0.00  0.00    +0.000 N 
ATOM     17  C   UNL     1       6.591   5.576  18.388  0.00  0.00    +0.000 C 
ATOM     18  C   UNL     1       4.557   4.591  17.244  0.00  0.00    +0.000 C 
ATOM     19  O   UNL     1       4.053   3.901  16.351  0.00  0.00    +0.000 OA
BRANCH  16  20
ATOM     20  C   UNL     1       6.792   4.307  16.241  0.00  0.00    +0.000 C 
BRANCH  20  22
ATOM     21  C   UNL     1       6.322   4.021  13.743  0.00  0.00    +0.000 C 
ATOM     22  C   UNL     1       6.679   4.980  14.867  0.00  0.00    +0.000 C 
ENDBRANCH  20  22
ENDBRANCH  16  20
ENDBRANCH   1  18
BRANCH   3  23
ATOM     23  N   UNL     1       1.878   3.868  21.387  0.00  0.00    +0.000 N 
ATOM     24  H   UNL     1       2.338   3.913  22.295  0.00  0.00    +0.000 HD
ATOM     25  H   UNL     1       1.728   2.923  21.039  0.00  0.00    +0.000 HD
ENDBRANCH   3  23
TORSDOF 5
ENDMDL
MODEL 9
REMARK VINA RESULT:      -6.6      5.123      6.571
REMARK  Name = 
REMARK  7 active torsions:
REMARK  status: ('A' for Active; 'I' for Inactive)
REMARK    1  A    between atoms: C_1  and  C_2
REMARK    2  A    between atoms: C_2  and  C_3
REMARK    3  A    between atoms: C_3  and  N_4
REMARK    4  A    between atoms: N_4  and  C_5
REMARK    5  A    between atoms: C_6  and  C_8
REMARK    6  A    between atoms: C_10  and  N_11
REMARK    7  A    between atoms: C_14  and  C_15
REMARK                            x       y       z     vdW  Elec       q    Type
REMARK                         _______ _______ _______ _____ _____    ______ ____
ROOT
ATOM      1  C   UNL     1       5.780   5.126  16.079  0.00  0.00    +0.000 A 
ATOM      2  C   UNL     1       5.631   4.124  17.129  0.00  0.00    +0.000 A 
ATOM      3  C   UNL     1       4.809   4.194  18.153  0.00  0.00    +0.000 A 
ATOM      4  C   UNL     1       4.090   5.409  18.305  0.00  0.00    +0.000 A 
ATOM      5  N   UNL     1       3.340   5.842  19.279  0.00  0.00    +0.000 NA
ATOM      6  C   UNL     1       2.895   7.049  18.827  0.00  0.00    +0.000 A 
ATOM      7  N   UNL     1       3.366   7.398  17.602  0.00  0.00    +0.000 NA
ATOM      8  N   UNL     1       4.205   6.380  17.311  0.00  0.00    +0.000 N 
ATOM      9  C   UNL     1       5.066   6.248  16.219  0.00  0.00    +0.000 A 
ENDROOT
BRANCH   6  10
ATOM     10  C   UNL     1       1.964   7.908  19.609  0.00  0.00    +0.000 A 
ATOM     11  C   UNL     1       1.522   7.677  20.892  0.00  0.00    +0.000 A 
ATOM     12  C   UNL     1       0.632   8.727  21.225  0.00  0.00    +0.000 A 
ATOM     13  C   UNL     1       0.561   9.527  20.108  0.00  0.00    +0.000 A 
ATOM     14 BR   UNL     1      -0.557  11.009  19.926  0.00  0.00    +0.000 Br
ATOM     15  O   UNL     1       1.401   9.070  19.141  0.00  0.00    +0.000 OA
ENDBRANCH   6  10
BRANCH   1  18
ATOM     16  N   UNL     1       6.254   4.232  13.789  0.00  0.00    +0.000 N 
ATOM     17  C   UNL     1       4.923   3.629  13.676  0.00  0.00    +0.000 C 
ATOM     18  C   UNL     1       6.694   4.972  14.889  0.00  0.00    +0.000 C 
ATOM     19  O   UNL     1       7.792   5.541  14.904  0.00  0.00    +0.000 OA
BRANCH  16  20
ATOM     20  C   UNL     1       7.139   4.113  12.620  0.00  0.00    +0.000 C 
BRANCH  20  22
ATOM     21  C   UNL     1       7.372   2.009  11.184  0.00  0.00    +0.000 C 
ATOM     22  C   UNL     1       6.592   3.287  11.449  0.00  0.00    +0.000 C 
ENDBRANCH  20  22
ENDBRANCH  16  20
ENDBRANCH   1  18
BRANCH   3  23
ATOM     23  N   UNL     1       4.677   3.152  19.070  0.00  0.00    +0.000 N 
ATOM     24  H   UNL     1       4.564   2.215  18.684  0.00  0.00    +0.000 HD
ATOM     25  H   UNL     1       4.029   3.377  19.822  0.00  0.00    +0.000 HD
ENDBRANCH   3  23
TORSDOF 5
ENDMDL
