MODEL 1
REMARK VINA RESULT:      -6.1      0.000      0.000
REMARK  Name = 
REMARK  9 active torsions:
REMARK  status: ('A' for Active; 'I' for Inactive)
REMARK    1  A    between atoms: C_1  and  C_2
REMARK    2  A    between atoms: C_2  and  C_3
REMARK    3  A    between atoms: C_2  and  N_8
REMARK    4  A    between atoms: C_3  and  S_4
REMARK    5  A    between atoms: S_4  and  C_5
REMARK    6  A    between atoms: N_8  and  C_18
REMARK    7  A    between atoms: C_9  and  C_11
REMARK    8  A    between atoms: C_11  and  C_12
REMARK    9  A    between atoms: C_12  and  C_13
REMARK                            x       y       z     vdW  Elec       q    Type
REMARK                         _______ _______ _______ _____ _____    ______ ____
ROOT
ATOM      1  N   UNL     1       3.469   5.440  17.856  0.00  0.00    +0.000 N 
ATOM      2  C   UNL     1       3.467   6.855  17.890  0.00  0.00    +0.000 C 
ATOM      3  O   UNL     1       4.479   7.549  17.810  0.00  0.00    +0.000 OA
ENDROOT
BRANCH   1   4
ATOM      4  C   UNL     1       2.204   4.717  17.795  0.00  0.00    +0.000 C 
ATOM      5  C   UNL     1       1.968   3.249  18.027  0.00  0.00    +0.000 C 
ATOM      6  C   UNL     1       1.588   4.231  19.088  0.00  0.00    +0.000 C 
ENDBRANCH   1   4
BRANCH   1   8
ATOM      7  C   UNL     1       4.933   3.682  19.001  0.00  0.00    +0.000 C 
ATOM      8  C   UNL     1       4.715   4.633  17.822  0.00  0.00    +0.000 C 
BRANCH   8   9
ATOM      9  C   UNL     1       5.022   3.997  16.460  0.00  0.00    +0.000 C 
BRANCH   9  10
ATOM     10  S   UNL     1       6.197   4.843  15.432  0.00  0.00    +0.000 S 
ATOM     11  C   UNL     1       6.162   3.879  13.942  0.00  0.00    +0.000 C 
ATOM     12  O   UNL     1       5.665   6.144  15.082  0.00  0.00    +0.000 OA
ATOM     13  O   UNL     1       7.522   4.671  15.992  0.00  0.00    +0.000 OA
ENDBRANCH   9  10
ENDBRANCH   8   9
ENDBRANCH   1   8
BRANCH   2  14
ATOM     14  C   UNL     1       2.078   7.480  18.013  0.00  0.00    +0.000 C 
BRANCH  14  15
ATOM     15  C   UNL     1       1.996   8.989  17.808  0.00  0.00    +0.000 C 
BRANCH  15  16
ATOM     16  C   UNL     1       1.177   9.617  18.916  0.00  0.00    +0.000 A 
ATOM     17  C   UNL     1       1.005   9.057  20.228  0.00  0.00    +0.000 A 
ATOM     18  C   UNL     1       0.262   9.865  21.060  0.00  0.00    +0.000 A 
ATOM     19  S   UNL     1      -0.244  11.296  20.277  0.00  0.00    +0.000 S 
ATOM     20  C   UNL     1       0.530  10.836  18.822  0.00  0.00    +0.000 A 
ENDBRANCH  15  16
ENDBRANCH  14  15
ENDBRANCH   2  14
TORSDOF 7
ENDMDL
MODEL 2
REMARK VINA RESULT:      -6.0      1.321      2.164
REMARK  Name = 
REMARK  9 active torsions:
REMARK  status: ('A' for Active; 'I' for Inactive)
REMARK    1  A    between atoms: C_1  and  C_2
REMARK    2  A    between atoms: C_2  and  C_3
REMARK    3  A    between atoms: C_2  and  N_8
REMARK    4  A    between atoms: C_3  and  S_4
REMARK    5  A    between atoms: S_4  and  C_5
REMARK    6  A    between atoms: N_8  and  C_18
REMARK    7  A    between atoms: C_9  and  C_11
REMARK    8  A    between atoms: C_11  and  C_12
REMARK    9  A    between atoms: C_12  and  C_13
REMARK                            x       y       z     vdW  Elec       q    Type
REMARK                         _______ _______ _______ _____ _____    ______ ____
ROOT
ATOM      1  N   UNL     1       3.391   5.446  17.662  0.00  0.00    +0.000 N 
ATOM      2  C   UNL     1       3.439   6.860  17.729  0.00  0.00    +0.000 C 
ATOM      3  O   UNL     1       4.423   7.532  17.429  0.00  0.00    +0.000 OA
ENDROOT
BRANCH   1   4
ATOM      4  C   UNL     1       2.127   4.754  17.883  0.00  0.00    +0.000 C 
ATOM      5  C   UNL     1       1.884   3.270  17.929  0.00  0.00    +0.000 C 
ATOM      6  C   UNL     1       1.913   4.049  19.204  0.00  0.00    +0.000 C 
ENDBRANCH   1   4
BRANCH   1   8
ATOM      7  C   UNL     1       5.012   4.646  15.851  0.00  0.00    +0.000 C 
ATOM      8  C   UNL     1       4.571   4.613  17.317  0.00  0.00    +0.000 C 
BRANCH   8   9
ATOM      9  C   UNL     1       5.738   4.723  18.307  0.00  0.00    +0.000 C 
BRANCH   9  10
ATOM     10  S   UNL     1       7.277   5.331  17.660  0.00  0.00    +0.000 S 
ATOM     11  C   UNL     1       8.041   6.035  19.098  0.00  0.00    +0.000 C 
ATOM     12  O   UNL     1       8.103   4.205  17.275  0.00  0.00    +0.000 OA
ATOM     13  O   UNL     1       7.006   6.437  16.765  0.00  0.00    +0.000 OA
ENDBRANCH   9  10
ENDBRANCH   8   9
ENDBRANCH   1   8
BRANCH   2  14
ATOM     14  C   UNL     1       2.135   7.511  18.190  0.00  0.00    +0.000 C 
BRANCH  14  15
ATOM     15  C   UNL     1       1.869   8.923  17.677  0.00  0.00    +0.000 C 
BRANCH  15  16
ATOM     16  C   UNL     1       1.415   9.809  18.818  0.00  0.00    +0.000 A 
ATOM     17  C   UNL     1       1.338  11.242  18.763  0.00  0.00    +0.000 A 
ATOM     18  C   UNL     1       0.831  11.795  19.919  0.00  0.00    +0.000 A 
ATOM     19  S   UNL     1       0.452  10.605  21.083  0.00  0.00    +0.000 S 
ATOM     20  C   UNL     1       0.965   9.348  20.042  0.00  0.00    +0.000 A 
ENDBRANCH  15  16
ENDBRANCH  14  15
ENDBRANCH   2  14
TORSDOF 7
ENDMDL
MODEL 3
REMARK VINA RESULT:      -5.9      2.478      3.001
REMARK  Name = 
REMARK  9 active torsions:
REMARK  status: ('A' for Active; 'I' for Inactive)
REMARK    1  A    between atoms: C_1  and  C_2
REMARK    2  A    between atoms: C_2  and  C_3
REMARK    3  A    between atoms: C_2  and  N_8
REMARK    4  A    between atoms: C_3  and  S_4
REMARK    5  A    between atoms: S_4  and  C_5
REMARK    6  A    between atoms: N_8  and  C_18
REMARK    7  A    between atoms: C_9  and  C_11
REMARK    8  A    between atoms: C_11  and  C_12
REMARK    9  A    between atoms: C_12  and  C_13
REMARK                            x       y       z     vdW  Elec       q    Type
REMARK                         _______ _______ _______ _____ _____    ______ ____
ROOT
ATOM      1  N   UNL     1       2.284   5.843  19.904  0.00  0.00    +0.000 N 
ATOM      2  C   UNL     1       2.014   7.232  19.873  0.00  0.00    +0.000 C 
ATOM      3  O   UNL     1       2.436   7.999  19.011  0.00  0.00    +0.000 OA
ENDROOT
BRANCH   1   4
ATOM      4  C   UNL     1       1.603   4.995  20.874  0.00  0.00    +0.000 C 
ATOM      5  C   UNL     1       1.116   3.584  20.686  0.00  0.00    +0.000 C 
ATOM      6  C   UNL     1       2.362   3.831  21.472  0.00  0.00    +0.000 C 
ENDBRANCH   1   4
BRANCH   1   8
ATOM      7  C   UNL     1       2.598   4.803  17.587  0.00  0.00    +0.000 C 
ATOM      8  C   UNL     1       3.201   5.177  18.944  0.00  0.00    +0.000 C 
BRANCH   8   9
ATOM      9  C   UNL     1       4.588   5.823  18.837  0.00  0.00    +0.000 C 
BRANCH   9  10
ATOM     10  S   UNL     1       5.986   4.751  19.065  0.00  0.00    +0.000 S 
ATOM     11  C   UNL     1       6.683   4.684  17.434  0.00  0.00    +0.000 C 
ATOM     12  O   UNL     1       6.965   5.425  19.894  0.00  0.00    +0.000 OA
ATOM     13  O   UNL     1       5.510   3.415  19.356  0.00  0.00    +0.000 OA
ENDBRANCH   9  10
ENDBRANCH   8   9
ENDBRANCH   1   8
BRANCH   2  14
ATOM     14  C   UNL     1       1.113   7.722  21.007  0.00  0.00    +0.000 C 
BRANCH  14  15
ATOM     15  C   UNL     1       1.443   9.094  21.586  0.00  0.00    +0.000 C 
BRANCH  15  16
ATOM     16  C   UNL     1       0.640  10.162  20.874  0.00  0.00    +0.000 A 
ATOM     17  C   UNL     1       0.981  11.556  20.835  0.00  0.00    +0.000 A 
ATOM     18  C   UNL     1       0.113  12.298  20.064  0.00  0.00    +0.000 A 
ATOM     19  S   UNL     1      -1.123  11.334  19.387  0.00  0.00    +0.000 S 
ATOM     20  C   UNL     1      -0.498   9.922  20.125  0.00  0.00    +0.000 A 
ENDBRANCH  15  16
ENDBRANCH  14  15
ENDBRANCH   2  14
TORSDOF 7
ENDMDL
MODEL 4
REMARK VINA RESULT:      -5.9      3.154      4.308
REMARK  Name = 
REMARK  9 active torsions:
REMARK  status: ('A' for Active; 'I' for Inactive)
REMARK    1  A    between atoms: C_1  and  C_2
REMARK    2  A    between atoms: C_2  and  C_3
REMARK    3  A    between atoms: C_2  and  N_8
REMARK    4  A    between atoms: C_3  and  S_4
REMARK    5  A    between atoms: S_4  and  C_5
REMARK    6  A    between atoms: N_8  and  C_18
REMARK    7  A    between atoms: C_9  and  C_11
REMARK    8  A    between atoms: C_11  and  C_12
REMARK    9  A    between atoms: C_12  and  C_13
REMARK                            x       y       z     vdW  Elec       q    Type
REMARK                         _______ _______ _______ _____ _____    ______ ____
ROOT
ATOM      1  N   UNL     1       4.188   5.229  17.086  0.00  0.00    +0.000 N 
ATOM      2  C   UNL     1       3.565   6.424  17.520  0.00  0.00    +0.000 C 
ATOM      3  O   UNL     1       4.013   7.550  17.314  0.00  0.00    +0.000 OA
ENDROOT
BRANCH   1   4
ATOM      4  C   UNL     1       3.495   3.955  17.237  0.00  0.00    +0.000 C 
ATOM      5  C   UNL     1       3.973   2.590  16.823  0.00  0.00    +0.000 C 
ATOM      6  C   UNL     1       4.009   2.974  18.267  0.00  0.00    +0.000 C 
ENDBRANCH   1   4
BRANCH   1   8
ATOM      7  C   UNL     1       5.498   5.134  14.889  0.00  0.00    +0.000 C 
ATOM      8  C   UNL     1       5.515   5.206  16.419  0.00  0.00    +0.000 C 
BRANCH   8   9
ATOM      9  C   UNL     1       6.521   6.225  16.970  0.00  0.00    +0.000 C 
BRANCH   9  10
ATOM     10  S   UNL     1       7.543   5.685  18.319  0.00  0.00    +0.000 S 
ATOM     11  C   UNL     1       6.348   5.327  19.582  0.00  0.00    +0.000 C 
ATOM     12  O   UNL     1       8.152   4.417  17.970  0.00  0.00    +0.000 OA
ATOM     13  O   UNL     1       8.316   6.811  18.802  0.00  0.00    +0.000 OA
ENDBRANCH   9  10
ENDBRANCH   8   9
ENDBRANCH   1   8
BRANCH   2  14
ATOM     14  C   UNL     1       2.246   6.211  18.261  0.00  0.00    +0.000 C 
BRANCH  14  15
ATOM     15  C   UNL     1       2.313   6.257  19.784  0.00  0.00    +0.000 C 
BRANCH  15  16
ATOM     16  C   UNL     1       1.952   4.904  20.358  0.00  0.00    +0.000 A 
ATOM     17  C   UNL     1       0.946   4.028  19.825  0.00  0.00    +0.000 A 
ATOM     18  C   UNL     1       0.865   2.831  20.502  0.00  0.00    +0.000 A 
ATOM     19  S   UNL     1       1.985   2.748  21.788  0.00  0.00    +0.000 S 
ATOM     20  C   UNL     1       2.581   4.314  21.440  0.00  0.00    +0.000 A 
ENDBRANCH  15  16
ENDBRANCH  14  15
ENDBRANCH   2  14
TORSDOF 7
ENDMDL
MODEL 5
REMARK VINA RESULT:      -5.9      3.358      7.617
REMARK  Name = 
REMARK  9 active torsions:
REMARK  status: ('A' for Active; 'I' for Inactive)
REMARK    1  A    between atoms: C_1  and  C_2
REMARK    2  A    between atoms: C_2  and  C_3
REMARK    3  A    between atoms: C_2  and  N_8
REMARK    4  A    between atoms: C_3  and  S_4
REMARK    5  A    between atoms: S_4  and  C_5
REMARK    6  A    between atoms: N_8  and  C_18
REMARK    7  A    between atoms: C_9  and  C_11
REMARK    8  A    between atoms: C_11  and  C_12
REMARK    9  A    between atoms: C_12  and  C_13
REMARK                            x       y       z     vdW  Elec       q    Type
REMARK                         _______ _______ _______ _____ _____    ______ ____
ROOT
ATOM      1  N   UNL     1       1.384   9.114  19.465  0.00  0.00    +0.000 N 
ATOM      2  C   UNL     1       2.048   8.313  18.504  0.00  0.00    +0.000 C 
ATOM      3  O   UNL     1       2.287   8.672  17.354  0.00  0.00    +0.000 OA
ENDROOT
BRANCH   1   4
ATOM      4  C   UNL     1       1.294   8.659  20.848  0.00  0.00    +0.000 C 
ATOM      5  C   UNL     1       0.855   9.448  22.051  0.00  0.00    +0.000 C 
ATOM      6  C   UNL     1      -0.078   8.448  21.448  0.00  0.00    +0.000 C 
ENDBRANCH   1   4
BRANCH   1   8
ATOM      7  C   UNL     1       1.802  11.507  18.662  0.00  0.00    +0.000 C 
ATOM      8  C   UNL     1       0.811  10.447  19.149  0.00  0.00    +0.000 C 
BRANCH   8   9
ATOM      9  C   UNL     1      -0.487  10.403  18.331  0.00  0.00    +0.000 C 
BRANCH   9  10
ATOM     10  S   UNL     1      -1.629  11.741  18.576  0.00  0.00    +0.000 S 
ATOM     11  C   UNL     1      -1.572  11.972  20.334  0.00  0.00    +0.000 C 
ATOM     12  O   UNL     1      -1.073  12.945  17.993  0.00  0.00    +0.000 OA
ATOM     13  O   UNL     1      -2.967  11.277  18.272  0.00  0.00    +0.000 OA
ENDBRANCH   9  10
ENDBRANCH   8   9
ENDBRANCH   1   8
BRANCH   2  14
ATOM     14  C   UNL     1       2.480   6.941  19.021  0.00  0.00    +0.000 C 
BRANCH  14  15
ATOM     15  C   UNL     1       3.177   6.031  18.014  0.00  0.00    +0.000 C 
BRANCH  15  16
ATOM     16  C   UNL     1       2.613   4.630  18.108  0.00  0.00    +0.000 A 
ATOM     17  C   UNL     1       3.074   3.506  17.341  0.00  0.00    +0.000 A 
ATOM     18  C   UNL     1       2.429   2.334  17.669  0.00  0.00    +0.000 A 
ATOM     19  S   UNL     1       1.261   2.569  18.892  0.00  0.00    +0.000 S 
ATOM     20  C   UNL     1       1.616   4.240  18.984  0.00  0.00    +0.000 A 
ENDBRANCH  15  16
ENDBRANCH  14  15
ENDBRANCH   2  14
TORSDOF 7
ENDMDL
MODEL 6
REMARK VINA RESULT:      -5.9      0.480      1.035
REMARK  Name = 
REMARK  9 active torsions:
REMARK  status: ('A' for Active; 'I' for Inactive)
REMARK    1  A    between atoms: C_1  and  C_2
REMARK    2  A    between atoms: C_2  and  C_3
REMARK    3  A    between atoms: C_2  and  N_8
REMARK    4  A    between atoms: C_3  and  S_4
REMARK    5  A    between atoms: S_4  and  C_5
REMARK    6  A    between atoms: N_8  and  C_18
REMARK    7  A    between atoms: C_9  and  C_11
REMARK    8  A    between atoms: C_11  and  C_12
REMARK    9  A    between atoms: C_12  and  C_13
REMARK                            x       y       z     vdW  Elec       q    Type
REMARK                         _______ _______ _______ _____ _____    ______ ____
ROOT
ATOM      1  N   UNL     1       3.521   5.437  17.854  0.00  0.00    +0.000 N 
ATOM      2  C   UNL     1       3.602   6.848  17.933  0.00  0.00    +0.000 C 
ATOM      3  O   UNL     1       4.647   7.486  17.833  0.00  0.00    +0.000 OA
ENDROOT
BRANCH   1   4
ATOM      4  C   UNL     1       2.216   4.787  17.822  0.00  0.00    +0.000 C 
ATOM      5  C   UNL     1       1.910   3.322  17.975  0.00  0.00    +0.000 C 
ATOM      6  C   UNL     1       1.647   4.250  19.116  0.00  0.00    +0.000 C 
ENDBRANCH   1   4
BRANCH   1   8
ATOM      7  C   UNL     1       4.896   3.523  18.853  0.00  0.00    +0.000 C 
ATOM      8  C   UNL     1       4.718   4.563  17.743  0.00  0.00    +0.000 C 
BRANCH   8   9
ATOM      9  C   UNL     1       4.966   4.003  16.337  0.00  0.00    +0.000 C 
BRANCH   9  10
ATOM     10  S   UNL     1       6.169   4.853  15.343  0.00  0.00    +0.000 S 
ATOM     11  C   UNL     1       6.150   3.913  13.837  0.00  0.00    +0.000 C 
ATOM     12  O   UNL     1       5.656   6.165  15.004  0.00  0.00    +0.000 OA
ATOM     13  O   UNL     1       7.481   4.658  15.924  0.00  0.00    +0.000 OA
ENDBRANCH   9  10
ENDBRANCH   8   9
ENDBRANCH   1   8
BRANCH   2  14
ATOM     14  C   UNL     1       2.256   7.544  18.132  0.00  0.00    +0.000 C 
BRANCH  14  15
ATOM     15  C   UNL     1       1.918   7.962  19.560  0.00  0.00    +0.000 C 
BRANCH  15  16
ATOM     16  C   UNL     1       1.122   9.249  19.546  0.00  0.00    +0.000 A 
ATOM     17  C   UNL     1       1.181  10.240  18.507  0.00  0.00    +0.000 A 
ATOM     18  C   UNL     1       0.306  11.284  18.713  0.00  0.00    +0.000 A 
ATOM     19  S   UNL     1      -0.588  11.092  20.155  0.00  0.00    +0.000 S 
ATOM     20  C   UNL     1       0.195   9.612  20.507  0.00  0.00    +0.000 A 
ENDBRANCH  15  16
ENDBRANCH  14  15
ENDBRANCH   2  14
TORSDOF 7
ENDMDL
MODEL 7
REMARK VINA RESULT:      -5.9      1.703      2.117
REMARK  Name = 
REMARK  9 active torsions:
REMARK  status: ('A' for Active; 'I' for Inactive)
REMARK    1  A    between atoms: C_1  and  C_2
REMARK    2  A    between atoms: C_2  and  C_3
REMARK    3  A    between atoms: C_2  and  N_8
REMARK    4  A    between atoms: C_3  and  S_4
REMARK    5  A    between atoms: S_4  and  C_5
REMARK    6  A    between atoms: N_8  and  C_18
REMARK    7  A    between atoms: C_9  and  C_11
REMARK    8  A    between atoms: C_11  and  C_12
REMARK    9  A    between atoms: C_12  and  C_13
REMARK                            x       y       z     vdW  Elec       q    Type
REMARK                         _______ _______ _______ _____ _____    ______ ____
ROOT
ATOM      1  N   UNL     1       3.329   5.462  18.455  0.00  0.00    +0.000 N 
ATOM      2  C   UNL     1       3.349   6.824  18.069  0.00  0.00    +0.000 C 
ATOM      3  O   UNL     1       4.140   7.300  17.258  0.00  0.00    +0.000 OA
ENDROOT
BRANCH   1   4
ATOM      4  C   UNL     1       2.248   4.965  19.299  0.00  0.00    +0.000 C 
ATOM      5  C   UNL     1       2.231   3.716  20.136  0.00  0.00    +0.000 C 
ATOM      6  C   UNL     1       2.413   5.042  20.800  0.00  0.00    +0.000 C 
ENDBRANCH   1   4
BRANCH   1   8
ATOM      7  C   UNL     1       3.795   3.267  17.226  0.00  0.00    +0.000 C 
ATOM      8  C   UNL     1       4.338   4.475  17.993  0.00  0.00    +0.000 C 
BRANCH   8   9
ATOM      9  C   UNL     1       5.584   5.097  17.349  0.00  0.00    +0.000 C 
BRANCH   9  10
ATOM     10  S   UNL     1       7.025   5.240  18.378  0.00  0.00    +0.000 S 
ATOM     11  C   UNL     1       7.600   6.876  18.001  0.00  0.00    +0.000 C 
ATOM     12  O   UNL     1       6.610   5.270  19.766  0.00  0.00    +0.000 OA
ATOM     13  O   UNL     1       8.043   4.333  17.891  0.00  0.00    +0.000 OA
ENDBRANCH   9  10
ENDBRANCH   8   9
ENDBRANCH   1   8
BRANCH   2  14
ATOM     14  C   UNL     1       2.271   7.681  18.732  0.00  0.00    +0.000 C 
BRANCH  14  15
ATOM     15  C   UNL     1       1.748   8.858  17.914  0.00  0.00    +0.000 C 
BRANCH  15  16
ATOM     16  C   UNL     1       0.742   9.645  18.727  0.00  0.00    +0.000 A 
ATOM     17  C   UNL     1       0.781   9.797  20.155  0.00  0.00    +0.000 A 
ATOM     18  C   UNL     1      -0.218  10.617  20.632  0.00  0.00    +0.000 A 
ATOM     19  S   UNL     1      -1.216  11.205  19.378  0.00  0.00    +0.000 S 
ATOM     20  C   UNL     1      -0.313  10.363  18.193  0.00  0.00    +0.000 A 
ENDBRANCH  15  16
ENDBRANCH  14  15
ENDBRANCH   2  14
TORSDOF 7
ENDMDL
MODEL 8
REMARK VINA RESULT:      -5.8      3.480      7.286
REMARK  Name = 
REMARK  9 active torsions:
REMARK  status: ('A' for Active; 'I' for Inactive)
REMARK    1  A    between atoms: C_1  and  C_2
REMARK    2  A    between atoms: C_2  and  C_3
REMARK    3  A    between atoms: C_2  and  N_8
REMARK    4  A    between atoms: C_3  and  S_4
REMARK    5  A    between atoms: S_4  and  C_5
REMARK    6  A    between atoms: N_8  and  C_18
REMARK    7  A    between atoms: C_9  and  C_11
REMARK    8  A    between atoms: C_11  and  C_12
REMARK    9  A    between atoms: C_12  and  C_13
REMARK                            x       y       z     vdW  Elec       q    Type
REMARK                         _______ _______ _______ _____ _____    ______ ____
ROOT
ATOM      1  N   UNL     1       1.117   9.544  19.575  0.00  0.00    +0.000 N 
ATOM      2  C   UNL     1       1.832   8.749  18.648  0.00  0.00    +0.000 C 
ATOM      3  O   UNL     1       2.067   9.083  17.489  0.00  0.00    +0.000 OA
ENDROOT
BRANCH   1   4
ATOM      4  C   UNL     1       1.034   9.130  20.971  0.00  0.00    +0.000 C 
ATOM      5  C   UNL     1       0.132   9.677  22.044  0.00  0.00    +0.000 C 
ATOM      6  C   UNL     1      -0.185   8.357  21.421  0.00  0.00    +0.000 C 
ENDBRANCH   1   4
BRANCH   1   8
ATOM      7  C   UNL     1      -1.030  10.795  18.965  0.00  0.00    +0.000 C 
ATOM      8  C   UNL     1       0.481  10.836  19.211  0.00  0.00    +0.000 C 
BRANCH   8   9
ATOM      9  C   UNL     1       0.928  12.028  20.067  0.00  0.00    +0.000 C 
BRANCH   9  10
ATOM     10  S   UNL     1       2.120  13.127  19.342  0.00  0.00    +0.000 S 
ATOM     11  C   UNL     1       1.110  14.484  18.806  0.00  0.00    +0.000 C 
ATOM     12  O   UNL     1       2.975  13.649  20.388  0.00  0.00    +0.000 OA
ATOM     13  O   UNL     1       2.649  12.518  18.138  0.00  0.00    +0.000 OA
ENDBRANCH   9  10
ENDBRANCH   8   9
ENDBRANCH   1   8
BRANCH   2  14
ATOM     14  C   UNL     1       2.328   7.417  19.213  0.00  0.00    +0.000 C 
BRANCH  14  15
ATOM     15  C   UNL     1       2.554   6.299  18.201  0.00  0.00    +0.000 C 
BRANCH  15  16
ATOM     16  C   UNL     1       1.998   4.997  18.738  0.00  0.00    +0.000 A 
ATOM     17  C   UNL     1       1.660   4.755  20.113  0.00  0.00    +0.000 A 
ATOM     18  C   UNL     1       1.115   3.506  20.317  0.00  0.00    +0.000 A 
ATOM     19  S   UNL     1       1.011   2.610  18.868  0.00  0.00    +0.000 S 
ATOM     20  C   UNL     1       1.696   3.891  17.964  0.00  0.00    +0.000 A 
ENDBRANCH  15  16
ENDBRANCH  14  15
ENDBRANCH   2  14
TORSDOF 7
ENDMDL
MODEL 9
REMARK VINA RESULT:      -5.8      2.177      3.012
REMARK  Name = 
REMARK  9 active torsions:
REMARK  status: ('A' for Active; 'I' for Inactive)
REMARK    1  A    between atoms: C_1  and  C_2
REMARK    2  A    between atoms: C_2  and  C_3
REMARK    3  A    between atoms: C_2  and  N_8
REMARK    4  A    between atoms: C_3  and  S_4
REMARK    5  A    between atoms: S_4  and  C_5
REMARK    6  A    between atoms: N_8  and  C_18
REMARK    7  A    between atoms: C_9  and  C_11
REMARK    8  A    between atoms: C_11  and  C_12
REMARK    9  A    between atoms: C_12  and  C_13
REMARK                            x       y       z     vdW  Elec       q    Type
REMARK                         _______ _______ _______ _____ _____    ______ ____
ROOT
ATOM      1  N   UNL     1       2.140   5.699  19.768  0.00  0.00    +0.000 N 
ATOM      2  C   UNL     1       2.089   7.113  19.802  0.00  0.00    +0.000 C 
ATOM      3  O   UNL     1       2.436   7.839  18.873  0.00  0.00    +0.000 OA
ENDROOT
BRANCH   1   4
ATOM      4  C   UNL     1       1.554   4.927  20.857  0.00  0.00    +0.000 C 
ATOM      5  C   UNL     1       1.196   3.466  20.865  0.00  0.00    +0.000 C 
ATOM      6  C   UNL     1       2.425   3.925  21.580  0.00  0.00    +0.000 C 
ENDBRANCH   1   4
BRANCH   1   8
ATOM      7  C   UNL     1       1.750   4.562  17.509  0.00  0.00    +0.000 C 
ATOM      8  C   UNL     1       2.720   4.938  18.632  0.00  0.00    +0.000 C 
BRANCH   8   9
ATOM      9  C   UNL     1       4.062   5.482  18.122  0.00  0.00    +0.000 C 
BRANCH   9  10
ATOM     10  S   UNL     1       5.485   4.447  18.366  0.00  0.00    +0.000 S 
ATOM     11  C   UNL     1       6.626   5.552  19.158  0.00  0.00    +0.000 C 
ATOM     12  O   UNL     1       5.164   3.429  19.346  0.00  0.00    +0.000 OA
ATOM     13  O   UNL     1       6.061   4.129  17.076  0.00  0.00    +0.000 OA
ENDBRANCH   9  10
ENDBRANCH   8   9
ENDBRANCH   1   8
BRANCH   2  14
ATOM     14  C   UNL     1       1.533   7.691  21.103  0.00  0.00    +0.000 C 
BRANCH  14  15
ATOM     15  C   UNL     1       0.107   8.228  21.047  0.00  0.00    +0.000 C 
BRANCH  15  16
ATOM     16  C   UNL     1       0.116   9.671  20.590  0.00  0.00    +0.000 A 
ATOM     17  C   UNL     1      -0.684  10.198  19.520  0.00  0.00    +0.000 A 
ATOM     18  C   UNL     1      -0.527  11.557  19.355  0.00  0.00    +0.000 A 
ATOM     19  S   UNL     1       0.586  12.212  20.472  0.00  0.00    +0.000 S 
ATOM     20  C   UNL     1       0.860  10.678  21.179  0.00  0.00    +0.000 A 
ENDBRANCH  15  16
ENDBRANCH  14  15
ENDBRANCH   2  14
TORSDOF 7
ENDMDL
