MODEL 1
REMARK VINA RESULT:      -8.3      0.000      0.000
REMARK  Name = 
REMARK  12 active torsions:
REMARK  status: ('A' for Active; 'I' for Inactive)
REMARK    1  A    between atoms: C_1  and  C_2
REMARK    2  A    between atoms: N_7  and  C_8
REMARK    3  A    between atoms: C_8  and  C_9
REMARK    4  A    between atoms: C_9  and  C_10
REMARK    5  A    between atoms: C_9  and  N_12
REMARK    6  A    between atoms: C_10  and  N_11
REMARK    7  A    between atoms: N_12  and  C_13
REMARK    8  A    between atoms: C_13  and  C_14
REMARK    9  A    between atoms: C_18  and  C_19
REMARK   10  A    between atoms: C_18  and  C_20
REMARK   11  A    between atoms: C_24  and  C_25
REMARK   12  A    between atoms: C_25  and  C_26
REMARK                            x       y       z     vdW  Elec       q    Type
REMARK                         _______ _______ _______ _____ _____    ______ ____
ROOT
ATOM      1  C   UNL     1       1.908   6.985  19.820  0.00  0.00    +0.000 C 
ATOM      2  O   UNL     1       2.524   7.737  19.057  0.00  0.00    +0.000 OA
ATOM      3  N   UNL     1       1.934   5.603  19.743  0.00  0.00    +0.000 N 
ATOM      4  C   UNL     1       1.106   4.657  20.515  0.00  0.00    +0.000 C 
ATOM      5  C   UNL     1       1.545   3.216  20.136  0.00  0.00    +0.000 C 
ATOM      6  C   UNL     1       2.001   2.440  21.373  0.00  0.00    +0.000 C 
ATOM      7  C   UNL     1       0.429   2.455  19.411  0.00  0.00    +0.000 C 
ATOM      8  C   UNL     1       2.699   3.499  19.197  0.00  0.00    +0.000 A 
ATOM      9  N   UNL     1       3.483   2.546  18.651  0.00  0.00    +0.000 NA
ATOM     10  C   UNL     1       4.481   3.008  17.856  0.00  0.00    +0.000 A 
ATOM     11  C   UNL     1       4.704   4.359  17.563  0.00  0.00    +0.000 A 
ATOM     12  C   UNL     1       3.856   5.305  18.148  0.00  0.00    +0.000 A 
ATOM     13  C   UNL     1       2.850   4.862  18.984  0.00  0.00    +0.000 A 
ENDROOT
BRANCH   1  14
ATOM     14  C   UNL     1       1.109   7.599  20.976  0.00  0.00    +0.000 C 
BRANCH  14  15
ATOM     15  N   UNL     1       1.869   8.646  21.685  0.00  0.00    +0.000 NA
ATOM     16  H   UNL     1       2.183   8.243  22.571  0.00  0.00    +0.000 HD
BRANCH  15  17
ATOM     17  C   UNL     1       1.071   9.857  22.038  0.00  0.00    +0.000 C 
BRANCH  17  18
ATOM     18  C   UNL     1       0.809  10.816  20.812  0.00  0.00    +0.000 C 
BRANCH  18  25
ATOM     19  C   UNL     1      -1.299  10.287  18.721  0.00  0.00    +0.000 C 
ATOM     20  C   UNL     1      -1.128  11.636  19.429  0.00  0.00    +0.000 C 
ATOM     21  C   UNL     1      -0.501  12.642  18.430  0.00  0.00    +0.000 C 
ATOM     22  O   UNL     1      -0.412  13.955  18.986  0.00  0.00    +0.000 OA
ATOM     23  C   UNL     1       0.356  13.927  20.189  0.00  0.00    +0.000 C 
ATOM     24  C   UNL     1      -0.282  12.988  21.231  0.00  0.00    +0.000 C 
ATOM     25  N   UNL     1      -0.460  11.584  20.778  0.00  0.00    +0.000 NA
ENDBRANCH  18  25
ENDBRANCH  17  18
BRANCH  17  26
ATOM     26  C   UNL     1      -0.174   9.327  22.816  0.00  0.00    +0.000 C 
BRANCH  26  27
ATOM     27  N   UNL     1      -1.057  10.298  23.456  0.00  0.00    +0.000 NA
ATOM     28  H   UNL     1      -1.409   9.984  24.353  0.00  0.00    +0.000 HD
ATOM     29  H   UNL     1      -0.572  11.184  23.585  0.00  0.00    +0.000 HD
ENDBRANCH  26  27
ENDBRANCH  17  26
ENDBRANCH  15  17
ENDBRANCH  14  15
ENDBRANCH   1  14
BRANCH  11  30
ATOM     30  C   UNL     1       5.838   4.804  16.678  0.00  0.00    +0.000 C 
BRANCH  30  31
ATOM     31  C   UNL     1       6.722   5.856  17.311  0.00  0.00    +0.000 A 
ATOM     32  C   UNL     1       7.462   5.552  18.467  0.00  0.00    +0.000 A 
ATOM     33  C   UNL     1       8.262   6.529  19.065  0.00  0.00    +0.000 A 
ATOM     34  C   UNL     1       8.319   7.801  18.517  0.00  0.00    +0.000 A 
ATOM     35  F   UNL     1       9.094   8.736  19.093  0.00  0.00    +0.000 F 
ATOM     36  C   UNL     1       7.589   8.125  17.380  0.00  0.00    +0.000 A 
ATOM     37  C   UNL     1       6.789   7.153  16.778  0.00  0.00    +0.000 A 
ENDBRANCH  30  31
ENDBRANCH  11  30
TORSDOF 9
ENDMDL
MODEL 2
REMARK VINA RESULT:      -8.2      0.856      1.120
REMARK  Name = 
REMARK  12 active torsions:
REMARK  status: ('A' for Active; 'I' for Inactive)
REMARK    1  A    between atoms: C_1  and  C_2
REMARK    2  A    between atoms: N_7  and  C_8
REMARK    3  A    between atoms: C_8  and  C_9
REMARK    4  A    between atoms: C_9  and  C_10
REMARK    5  A    between atoms: C_9  and  N_12
REMARK    6  A    between atoms: C_10  and  N_11
REMARK    7  A    between atoms: N_12  and  C_13
REMARK    8  A    between atoms: C_13  and  C_14
REMARK    9  A    between atoms: C_18  and  C_19
REMARK   10  A    between atoms: C_18  and  C_20
REMARK   11  A    between atoms: C_24  and  C_25
REMARK   12  A    between atoms: C_25  and  C_26
REMARK                            x       y       z     vdW  Elec       q    Type
REMARK                         _______ _______ _______ _____ _____    ______ ____
ROOT
ATOM      1  C   UNL     1       2.089   7.063  19.718  0.00  0.00    +0.000 C 
ATOM      2  O   UNL     1       2.791   7.727  18.947  0.00  0.00    +0.000 OA
ATOM      3  N   UNL     1       2.033   5.680  19.727  0.00  0.00    +0.000 N 
ATOM      4  C   UNL     1       1.106   4.837  20.507  0.00  0.00    +0.000 C 
ATOM      5  C   UNL     1       1.475   3.350  20.243  0.00  0.00    +0.000 C 
ATOM      6  C   UNL     1       1.814   2.631  21.551  0.00  0.00    +0.000 C 
ATOM      7  C   UNL     1       0.355   2.611  19.503  0.00  0.00    +0.000 C 
ATOM      8  C   UNL     1       2.694   3.504  19.358  0.00  0.00    +0.000 A 
ATOM      9  N   UNL     1       3.446   2.473  18.917  0.00  0.00    +0.000 NA
ATOM     10  C   UNL     1       4.512   2.822  18.155  0.00  0.00    +0.000 A 
ATOM     11  C   UNL     1       4.834   4.136  17.792  0.00  0.00    +0.000 A 
ATOM     12  C   UNL     1       4.016   5.166  18.268  0.00  0.00    +0.000 A 
ATOM     13  C   UNL     1       2.941   4.839  19.070  0.00  0.00    +0.000 A 
ENDROOT
BRANCH   1  14
ATOM     14  C   UNL     1       1.267   7.797  20.785  0.00  0.00    +0.000 C 
BRANCH  14  15
ATOM     15  N   UNL     1       0.862   9.145  20.346  0.00  0.00    +0.000 NA
ATOM     16  H   UNL     1       1.560   9.465  19.670  0.00  0.00    +0.000 HD
BRANCH  15  17
ATOM     17  C   UNL     1       0.837  10.168  21.433  0.00  0.00    +0.000 C 
BRANCH  17  18
ATOM     18  C   UNL     1       0.788  11.652  20.897  0.00  0.00    +0.000 C 
BRANCH  18  25
ATOM     19  C   UNL     1       2.259  12.306  18.346  0.00  0.00    +0.000 C 
ATOM     20  C   UNL     1       0.823  12.758  18.636  0.00  0.00    +0.000 C 
ATOM     21  C   UNL     1       0.836  14.278  18.940  0.00  0.00    +0.000 C 
ATOM     22  O   UNL     1      -0.485  14.795  19.113  0.00  0.00    +0.000 OA
ATOM     23  C   UNL     1      -1.151  14.097  20.166  0.00  0.00    +0.000 C 
ATOM     24  C   UNL     1      -1.242  12.590  19.858  0.00  0.00    +0.000 C 
ATOM     25  N   UNL     1       0.064  11.920  19.630  0.00  0.00    +0.000 NA
ENDBRANCH  18  25
ENDBRANCH  17  18
BRANCH  17  26
ATOM     26  C   UNL     1      -0.294   9.717  22.408  0.00  0.00    +0.000 C 
BRANCH  26  27
ATOM     27  N   UNL     1      -0.017   9.721  23.841  0.00  0.00    +0.000 NA
ATOM     28  H   UNL     1       0.457   8.882  24.157  0.00  0.00    +0.000 HD
ATOM     29  H   UNL     1       0.549  10.531  24.089  0.00  0.00    +0.000 HD
ENDBRANCH  26  27
ENDBRANCH  17  26
ENDBRANCH  15  17
ENDBRANCH  14  15
ENDBRANCH   1  14
BRANCH  11  30
ATOM     30  C   UNL     1       6.040   4.455  16.949  0.00  0.00    +0.000 C 
BRANCH  30  31
ATOM     31  C   UNL     1       6.848   5.624  17.468  0.00  0.00    +0.000 A 
ATOM     32  C   UNL     1       7.606   5.491  18.645  0.00  0.00    +0.000 A 
ATOM     33  C   UNL     1       8.335   6.576  19.137  0.00  0.00    +0.000 A 
ATOM     34  C   UNL     1       8.306   7.787  18.462  0.00  0.00    +0.000 A 
ATOM     35  F   UNL     1       9.013   8.827  18.937  0.00  0.00    +0.000 F 
ATOM     36  C   UNL     1       7.557   7.943  17.302  0.00  0.00    +0.000 A 
ATOM     37  C   UNL     1       6.827   6.862  16.806  0.00  0.00    +0.000 A 
ENDBRANCH  30  31
ENDBRANCH  11  30
TORSDOF 9
ENDMDL
MODEL 3
REMARK VINA RESULT:      -8.2      0.951      1.600
REMARK  Name = 
REMARK  12 active torsions:
REMARK  status: ('A' for Active; 'I' for Inactive)
REMARK    1  A    between atoms: C_1  and  C_2
REMARK    2  A    between atoms: N_7  and  C_8
REMARK    3  A    between atoms: C_8  and  C_9
REMARK    4  A    between atoms: C_9  and  C_10
REMARK    5  A    between atoms: C_9  and  N_12
REMARK    6  A    between atoms: C_10  and  N_11
REMARK    7  A    between atoms: N_12  and  C_13
REMARK    8  A    between atoms: C_13  and  C_14
REMARK    9  A    between atoms: C_18  and  C_19
REMARK   10  A    between atoms: C_18  and  C_20
REMARK   11  A    between atoms: C_24  and  C_25
REMARK   12  A    between atoms: C_25  and  C_26
REMARK                            x       y       z     vdW  Elec       q    Type
REMARK                         _______ _______ _______ _____ _____    ______ ____
ROOT
ATOM      1  C   UNL     1       1.983   7.023  19.899  0.00  0.00    +0.000 C 
ATOM      2  O   UNL     1       2.626   7.765  19.149  0.00  0.00    +0.000 OA
ATOM      3  N   UNL     1       1.956   5.642  19.797  0.00  0.00    +0.000 N 
ATOM      4  C   UNL     1       1.093   4.715  20.553  0.00  0.00    +0.000 C 
ATOM      5  C   UNL     1       1.477   3.264  20.147  0.00  0.00    +0.000 C 
ATOM      6  C   UNL     1       1.905   2.450  21.370  0.00  0.00    +0.000 C 
ATOM      7  C   UNL     1       0.333   2.560  19.411  0.00  0.00    +0.000 C 
ATOM      8  C   UNL     1       2.641   3.521  19.213  0.00  0.00    +0.000 A 
ATOM      9  N   UNL     1       3.388   2.549  18.648  0.00  0.00    +0.000 NA
ATOM     10  C   UNL     1       4.402   2.986  17.860  0.00  0.00    +0.000 A 
ATOM     11  C   UNL     1       4.675   4.333  17.591  0.00  0.00    +0.000 A 
ATOM     12  C   UNL     1       3.864   5.300  18.195  0.00  0.00    +0.000 A 
ATOM     13  C   UNL     1       2.843   4.881  19.023  0.00  0.00    +0.000 A 
ENDROOT
BRANCH   1  14
ATOM     14  C   UNL     1       1.208   7.645  21.067  0.00  0.00    +0.000 C 
BRANCH  14  15
ATOM     15  N   UNL     1       1.518   9.077  21.240  0.00  0.00    +0.000 NA
ATOM     16  H   UNL     1       2.164   9.153  22.030  0.00  0.00    +0.000 HD
BRANCH  15  17
ATOM     17  C   UNL     1       0.340   9.927  21.584  0.00  0.00    +0.000 C 
BRANCH  17  18
ATOM     18  C   UNL     1      -0.612  10.208  20.356  0.00  0.00    +0.000 C 
BRANCH  18  25
ATOM     19  C   UNL     1       0.168  13.040  19.669  0.00  0.00    +0.000 C 
ATOM     20  C   UNL     1      -0.183  11.979  18.619  0.00  0.00    +0.000 C 
ATOM     21  C   UNL     1      -1.581  12.305  18.036  0.00  0.00    +0.000 C 
ATOM     22  O   UNL     1      -1.929  11.420  16.969  0.00  0.00    +0.000 OA
ATOM     23  C   UNL     1      -1.900  10.067  17.426  0.00  0.00    +0.000 C 
ATOM     24  C   UNL     1      -0.501   9.690  17.948  0.00  0.00    +0.000 C 
ATOM     25  N   UNL     1       0.005  10.548  19.051  0.00  0.00    +0.000 NA
ENDBRANCH  18  25
ENDBRANCH  17  18
BRANCH  17  26
ATOM     26  C   UNL     1      -0.294   9.273  22.851  0.00  0.00    +0.000 C 
BRANCH  26  27
ATOM     27  N   UNL     1       0.305   9.558  24.152  0.00  0.00    +0.000 NA
ATOM     28  H   UNL     1      -0.287  10.129  24.746  0.00  0.00    +0.000 HD
ATOM     29  H   UNL     1       0.518   8.690  24.639  0.00  0.00    +0.000 HD
ENDBRANCH  26  27
ENDBRANCH  17  26
ENDBRANCH  15  17
ENDBRANCH  14  15
ENDBRANCH   1  14
BRANCH  11  30
ATOM     30  C   UNL     1       5.825   4.751  16.712  0.00  0.00    +0.000 C 
BRANCH  30  31
ATOM     31  C   UNL     1       6.712   5.806  17.338  0.00  0.00    +0.000 A 
ATOM     32  C   UNL     1       7.432   5.516  18.510  0.00  0.00    +0.000 A 
ATOM     33  C   UNL     1       8.235   6.496  19.101  0.00  0.00    +0.000 A 
ATOM     34  C   UNL     1       8.314   7.756  18.529  0.00  0.00    +0.000 A 
ATOM     35  F   UNL     1       9.091   8.693  19.098  0.00  0.00    +0.000 F 
ATOM     36  C   UNL     1       7.603   8.066  17.375  0.00  0.00    +0.000 A 
ATOM     37  C   UNL     1       6.801   7.091  16.781  0.00  0.00    +0.000 A 
ENDBRANCH  30  31
ENDBRANCH  11  30
TORSDOF 9
ENDMDL
MODEL 4
REMARK VINA RESULT:      -8.2      1.436      2.364
REMARK  Name = 
REMARK  12 active torsions:
REMARK  status: ('A' for Active; 'I' for Inactive)
REMARK    1  A    between atoms: C_1  and  C_2
REMARK    2  A    between atoms: N_7  and  C_8
REMARK    3  A    between atoms: C_8  and  C_9
REMARK    4  A    between atoms: C_9  and  C_10
REMARK    5  A    between atoms: C_9  and  N_12
REMARK    6  A    between atoms: C_10  and  N_11
REMARK    7  A    between atoms: N_12  and  C_13
REMARK    8  A    between atoms: C_13  and  C_14
REMARK    9  A    between atoms: C_18  and  C_19
REMARK   10  A    between atoms: C_18  and  C_20
REMARK   11  A    between atoms: C_24  and  C_25
REMARK   12  A    between atoms: C_25  and  C_26
REMARK                            x       y       z     vdW  Elec       q    Type
REMARK                         _______ _______ _______ _____ _____    ______ ____
ROOT
ATOM      1  C   UNL     1       2.107   7.115  19.704  0.00  0.00    +0.000 C 
ATOM      2  O   UNL     1       2.837   7.759  18.942  0.00  0.00    +0.000 OA
ATOM      3  N   UNL     1       2.054   5.732  19.750  0.00  0.00    +0.000 N 
ATOM      4  C   UNL     1       1.100   4.908  20.517  0.00  0.00    +0.000 C 
ATOM      5  C   UNL     1       1.482   3.416  20.309  0.00  0.00    +0.000 C 
ATOM      6  C   UNL     1       1.773   2.735  21.649  0.00  0.00    +0.000 C 
ATOM      7  C   UNL     1       0.393   2.652  19.548  0.00  0.00    +0.000 C 
ATOM      8  C   UNL     1       2.734   3.549  19.468  0.00  0.00    +0.000 A 
ATOM      9  N   UNL     1       3.504   2.508  19.086  0.00  0.00    +0.000 NA
ATOM     10  C   UNL     1       4.599   2.840  18.356  0.00  0.00    +0.000 A 
ATOM     11  C   UNL     1       4.931   4.144  17.969  0.00  0.00    +0.000 A 
ATOM     12  C   UNL     1       4.093   5.184  18.384  0.00  0.00    +0.000 A 
ATOM     13  C   UNL     1       2.989   4.876  19.152  0.00  0.00    +0.000 A 
ENDROOT
BRANCH   1  14
ATOM     14  C   UNL     1       1.243   7.875  20.717  0.00  0.00    +0.000 C 
BRANCH  14  15
ATOM     15  N   UNL     1       1.452   9.334  20.643  0.00  0.00    +0.000 NA
ATOM     16  H   UNL     1       1.288   9.710  21.580  0.00  0.00    +0.000 HD
BRANCH  15  17
ATOM     17  C   UNL     1       0.505  10.048  19.738  0.00  0.00    +0.000 C 
BRANCH  17  18
ATOM     18  C   UNL     1      -0.562  10.921  20.508  0.00  0.00    +0.000 C 
BRANCH  18  25
ATOM     19  C   UNL     1      -0.808   9.751  23.278  0.00  0.00    +0.000 C 
ATOM     20  C   UNL     1      -0.795  11.257  22.992  0.00  0.00    +0.000 C 
ATOM     21  C   UNL     1      -2.231  11.808  23.183  0.00  0.00    +0.000 C 
ATOM     22  O   UNL     1      -2.276  13.229  23.041  0.00  0.00    +0.000 OA
ATOM     23  C   UNL     1      -1.779  13.609  21.757  0.00  0.00    +0.000 C 
ATOM     24  C   UNL     1      -0.326  13.136  21.565  0.00  0.00    +0.000 C 
ATOM     25  N   UNL     1      -0.122  11.671  21.710  0.00  0.00    +0.000 NA
ENDBRANCH  18  25
ENDBRANCH  17  18
BRANCH  17  26
ATOM     26  C   UNL     1       1.397  10.771  18.682  0.00  0.00    +0.000 C 
BRANCH  26  27
ATOM     27  N   UNL     1       1.756  10.048  17.465  0.00  0.00    +0.000 NA
ATOM     28  H   UNL     1       1.654  10.607  16.625  0.00  0.00    +0.000 HD
ATOM     29  H   UNL     1       2.716   9.714  17.523  0.00  0.00    +0.000 HD
ENDBRANCH  26  27
ENDBRANCH  17  26
ENDBRANCH  15  17
ENDBRANCH  14  15
ENDBRANCH   1  14
BRANCH  11  30
ATOM     30  C   UNL     1       6.168   4.443  17.164  0.00  0.00    +0.000 C 
BRANCH  30  31
ATOM     31  C   UNL     1       6.923   5.663  17.646  0.00  0.00    +0.000 A 
ATOM     32  C   UNL     1       6.896   6.851  16.895  0.00  0.00    +0.000 A 
ATOM     33  C   UNL     1       7.610   7.972  17.327  0.00  0.00    +0.000 A 
ATOM     34  C   UNL     1       8.350   7.905  18.498  0.00  0.00    +0.000 A 
ATOM     35  F   UNL     1       9.032   8.987  18.912  0.00  0.00    +0.000 F 
ATOM     36  C   UNL     1       8.397   6.738  19.251  0.00  0.00    +0.000 A 
ATOM     37  C   UNL     1       7.685   5.616  18.824  0.00  0.00    +0.000 A 
ENDBRANCH  30  31
ENDBRANCH  11  30
TORSDOF 9
ENDMDL
MODEL 5
REMARK VINA RESULT:      -8.1      1.002      1.414
REMARK  Name = 
REMARK  12 active torsions:
REMARK  status: ('A' for Active; 'I' for Inactive)
REMARK    1  A    between atoms: C_1  and  C_2
REMARK    2  A    between atoms: N_7  and  C_8
REMARK    3  A    between atoms: C_8  and  C_9
REMARK    4  A    between atoms: C_9  and  C_10
REMARK    5  A    between atoms: C_9  and  N_12
REMARK    6  A    between atoms: C_10  and  N_11
REMARK    7  A    between atoms: N_12  and  C_13
REMARK    8  A    between atoms: C_13  and  C_14
REMARK    9  A    between atoms: C_18  and  C_19
REMARK   10  A    between atoms: C_18  and  C_20
REMARK   11  A    between atoms: C_24  and  C_25
REMARK   12  A    between atoms: C_25  and  C_26
REMARK                            x       y       z     vdW  Elec       q    Type
REMARK                         _______ _______ _______ _____ _____    ______ ____
ROOT
ATOM      1  C   UNL     1       2.059   6.990  19.812  0.00  0.00    +0.000 C 
ATOM      2  O   UNL     1       2.737   7.691  19.053  0.00  0.00    +0.000 OA
ATOM      3  N   UNL     1       2.011   5.607  19.762  0.00  0.00    +0.000 N 
ATOM      4  C   UNL     1       1.110   4.725  20.528  0.00  0.00    +0.000 C 
ATOM      5  C   UNL     1       1.479   3.253  20.190  0.00  0.00    +0.000 C 
ATOM      6  C   UNL     1       1.857   2.480  21.455  0.00  0.00    +0.000 C 
ATOM      7  C   UNL     1       0.343   2.540  19.448  0.00  0.00    +0.000 C 
ATOM      8  C   UNL     1       2.673   3.454  19.280  0.00  0.00    +0.000 A 
ATOM      9  N   UNL     1       3.418   2.448  18.775  0.00  0.00    +0.000 NA
ATOM     10  C   UNL     1       4.462   2.837  18.001  0.00  0.00    +0.000 A 
ATOM     11  C   UNL     1       4.767   4.168  17.688  0.00  0.00    +0.000 A 
ATOM     12  C   UNL     1       3.957   5.170  18.230  0.00  0.00    +0.000 A 
ATOM     13  C   UNL     1       2.905   4.801  19.044  0.00  0.00    +0.000 A 
ENDROOT
BRANCH   1  14
ATOM     14  C   UNL     1       1.263   7.671  20.932  0.00  0.00    +0.000 C 
BRANCH  14  15
ATOM     15  N   UNL     1       0.743   8.990  20.523  0.00  0.00    +0.000 NA
ATOM     16  H   UNL     1       1.266   9.275  19.691  0.00  0.00    +0.000 HD
BRANCH  15  17
ATOM     17  C   UNL     1       0.943  10.072  21.531  0.00  0.00    +0.000 C 
BRANCH  17  18
ATOM     18  C   UNL     1       0.334  11.460  21.089  0.00  0.00    +0.000 C 
BRANCH  18  25
ATOM     19  C   UNL     1      -0.939  13.569  22.831  0.00  0.00    +0.000 C 
ATOM     20  C   UNL     1       0.174  13.864  21.819  0.00  0.00    +0.000 C 
ATOM     21  C   UNL     1      -0.444  14.605  20.606  0.00  0.00    +0.000 C 
ATOM     22  O   UNL     1       0.554  15.012  19.669  0.00  0.00    +0.000 OA
ATOM     23  C   UNL     1       1.294  13.878  19.217  0.00  0.00    +0.000 C 
ATOM     24  C   UNL     1       1.981  13.160  20.395  0.00  0.00    +0.000 C 
ATOM     25  N   UNL     1       1.059  12.699  21.466  0.00  0.00    +0.000 NA
ENDBRANCH  18  25
ENDBRANCH  17  18
BRANCH  17  26
ATOM     26  C   UNL     1       0.462   9.476  22.889  0.00  0.00    +0.000 C 
BRANCH  26  27
ATOM     27  N   UNL     1      -0.751  10.018  23.495  0.00  0.00    +0.000 NA
ATOM     28  H   UNL     1      -0.565  10.610  24.297  0.00  0.00    +0.000 HD
ATOM     29  H   UNL     1      -1.279  10.552  22.808  0.00  0.00    +0.000 HD
ENDBRANCH  26  27
ENDBRANCH  17  26
ENDBRANCH  15  17
ENDBRANCH  14  15
ENDBRANCH   1  14
BRANCH  11  30
ATOM     30  C   UNL     1       5.948   4.531  16.828  0.00  0.00    +0.000 C 
BRANCH  30  31
ATOM     31  C   UNL     1       6.782   5.661  17.392  0.00  0.00    +0.000 A 
ATOM     32  C   UNL     1       7.524   5.468  18.570  0.00  0.00    +0.000 A 
ATOM     33  C   UNL     1       8.278   6.517  19.104  0.00  0.00    +0.000 A 
ATOM     34  C   UNL     1       8.287   7.749  18.470  0.00  0.00    +0.000 A 
ATOM     35  F   UNL     1       9.016   8.754  18.985  0.00  0.00    +0.000 F 
ATOM     36  C   UNL     1       7.553   7.963  17.309  0.00  0.00    +0.000 A 
ATOM     37  C   UNL     1       6.800   6.919  16.771  0.00  0.00    +0.000 A 
ENDBRANCH  30  31
ENDBRANCH  11  30
TORSDOF 9
ENDMDL
MODEL 6
REMARK VINA RESULT:      -8.0      0.905      1.332
REMARK  Name = 
REMARK  12 active torsions:
REMARK  status: ('A' for Active; 'I' for Inactive)
REMARK    1  A    between atoms: C_1  and  C_2
REMARK    2  A    between atoms: N_7  and  C_8
REMARK    3  A    between atoms: C_8  and  C_9
REMARK    4  A    between atoms: C_9  and  C_10
REMARK    5  A    between atoms: C_9  and  N_12
REMARK    6  A    between atoms: C_10  and  N_11
REMARK    7  A    between atoms: N_12  and  C_13
REMARK    8  A    between atoms: C_13  and  C_14
REMARK    9  A    between atoms: C_18  and  C_19
REMARK   10  A    between atoms: C_18  and  C_20
REMARK   11  A    between atoms: C_24  and  C_25
REMARK   12  A    between atoms: C_25  and  C_26
REMARK                            x       y       z     vdW  Elec       q    Type
REMARK                         _______ _______ _______ _____ _____    ______ ____
ROOT
ATOM      1  C   UNL     1       2.136   7.030  19.729  0.00  0.00    +0.000 C 
ATOM      2  O   UNL     1       2.862   7.693  18.981  0.00  0.00    +0.000 OA
ATOM      3  N   UNL     1       2.082   5.646  19.739  0.00  0.00    +0.000 N 
ATOM      4  C   UNL     1       1.132   4.803  20.489  0.00  0.00    +0.000 C 
ATOM      5  C   UNL     1       1.512   3.316  20.240  0.00  0.00    +0.000 C 
ATOM      6  C   UNL     1       1.809   2.600  21.560  0.00  0.00    +0.000 C 
ATOM      7  C   UNL     1       0.419   2.573  19.465  0.00  0.00    +0.000 C 
ATOM      8  C   UNL     1       2.760   3.471  19.396  0.00  0.00    +0.000 A 
ATOM      9  N   UNL     1       3.528   2.440  18.983  0.00  0.00    +0.000 NA
ATOM     10  C   UNL     1       4.619   2.790  18.257  0.00  0.00    +0.000 A 
ATOM     11  C   UNL     1       4.950   4.104  17.903  0.00  0.00    +0.000 A 
ATOM     12  C   UNL     1       4.114   5.133  18.349  0.00  0.00    +0.000 A 
ATOM     13  C   UNL     1       3.014   4.805  19.114  0.00  0.00    +0.000 A 
ENDROOT
BRANCH   1  14
ATOM     14  C   UNL     1       1.278   7.763  20.766  0.00  0.00    +0.000 C 
BRANCH  14  15
ATOM     15  N   UNL     1       0.900   9.117  20.319  0.00  0.00    +0.000 NA
ATOM     16  H   UNL     1       1.637   9.443  19.688  0.00  0.00    +0.000 HD
BRANCH  15  17
ATOM     17  C   UNL     1       0.813  10.128  21.413  0.00  0.00    +0.000 C 
BRANCH  17  18
ATOM     18  C   UNL     1      -0.371  11.156  21.226  0.00  0.00    +0.000 C 
BRANCH  18  25
ATOM     19  C   UNL     1      -2.437  13.168  20.341  0.00  0.00    +0.000 C 
ATOM     20  C   UNL     1      -0.931  13.345  20.116  0.00  0.00    +0.000 C 
ATOM     21  C   UNL     1      -0.626  13.115  18.614  0.00  0.00    +0.000 C 
ATOM     22  O   UNL     1       0.746  13.373  18.307  0.00  0.00    +0.000 OA
ATOM     23  C   UNL     1       1.591  12.542  19.105  0.00  0.00    +0.000 C 
ATOM     24  C   UNL     1       1.360  12.799  20.606  0.00  0.00    +0.000 C 
ATOM     25  N   UNL     1      -0.038  12.593  21.067  0.00  0.00    +0.000 NA
ENDBRANCH  18  25
ENDBRANCH  17  18
BRANCH  17  26
ATOM     26  C   UNL     1       0.854   9.313  22.743  0.00  0.00    +0.000 C 
BRANCH  26  27
ATOM     27  N   UNL     1      -0.037   9.710  23.829  0.00  0.00    +0.000 NA
ATOM     28  H   UNL     1      -0.697   8.985  24.087  0.00  0.00    +0.000 HD
ATOM     29  H   UNL     1       0.504   9.970  24.651  0.00  0.00    +0.000 HD
ENDBRANCH  26  27
ENDBRANCH  17  26
ENDBRANCH  15  17
ENDBRANCH  14  15
ENDBRANCH   1  14
BRANCH  11  30
ATOM     30  C   UNL     1       6.183   4.424  17.100  0.00  0.00    +0.000 C 
BRANCH  30  31
ATOM     31  C   UNL     1       6.925   5.647  17.592  0.00  0.00    +0.000 A 
ATOM     32  C   UNL     1       6.882   6.843  16.854  0.00  0.00    +0.000 A 
ATOM     33  C   UNL     1       7.584   7.967  17.295  0.00  0.00    +0.000 A 
ATOM     34  C   UNL     1       8.328   7.897  18.463  0.00  0.00    +0.000 A 
ATOM     35  F   UNL     1       8.998   8.983  18.886  0.00  0.00    +0.000 F 
ATOM     36  C   UNL     1       8.392   6.723  19.204  0.00  0.00    +0.000 A 
ATOM     37  C   UNL     1       7.691   5.598  18.767  0.00  0.00    +0.000 A 
ENDBRANCH  30  31
ENDBRANCH  11  30
TORSDOF 9
ENDMDL
MODEL 7
REMARK VINA RESULT:      -7.9      1.254      1.969
REMARK  Name = 
REMARK  12 active torsions:
REMARK  status: ('A' for Active; 'I' for Inactive)
REMARK    1  A    between atoms: C_1  and  C_2
REMARK    2  A    between atoms: N_7  and  C_8
REMARK    3  A    between atoms: C_8  and  C_9
REMARK    4  A    between atoms: C_9  and  C_10
REMARK    5  A    between atoms: C_9  and  N_12
REMARK    6  A    between atoms: C_10  and  N_11
REMARK    7  A    between atoms: N_12  and  C_13
REMARK    8  A    between atoms: C_13  and  C_14
REMARK    9  A    between atoms: C_18  and  C_19
REMARK   10  A    between atoms: C_18  and  C_20
REMARK   11  A    between atoms: C_24  and  C_25
REMARK   12  A    between atoms: C_25  and  C_26
REMARK                            x       y       z     vdW  Elec       q    Type
REMARK                         _______ _______ _______ _____ _____    ______ ____
ROOT
ATOM      1  C   UNL     1       2.109   7.033  19.673  0.00  0.00    +0.000 C 
ATOM      2  O   UNL     1       2.828   7.684  18.907  0.00  0.00    +0.000 OA
ATOM      3  N   UNL     1       2.045   5.651  19.697  0.00  0.00    +0.000 N 
ATOM      4  C   UNL     1       1.100   4.821  20.469  0.00  0.00    +0.000 C 
ATOM      5  C   UNL     1       1.465   3.330  20.229  0.00  0.00    +0.000 C 
ATOM      6  C   UNL     1       1.777   2.624  21.551  0.00  0.00    +0.000 C 
ATOM      7  C   UNL     1       0.354   2.588  19.478  0.00  0.00    +0.000 C 
ATOM      8  C   UNL     1       2.700   3.467  19.364  0.00  0.00    +0.000 A 
ATOM      9  N   UNL     1       3.454   2.427  18.949  0.00  0.00    +0.000 NA
ATOM     10  C   UNL     1       4.536   2.762  18.202  0.00  0.00    +0.000 A 
ATOM     11  C   UNL     1       4.872   4.070  17.831  0.00  0.00    +0.000 A 
ATOM     12  C   UNL     1       4.051   5.109  18.280  0.00  0.00    +0.000 A 
ATOM     13  C   UNL     1       2.960   4.797  19.065  0.00  0.00    +0.000 A 
ENDROOT
BRANCH   1  14
ATOM     14  C   UNL     1       1.273   7.783  20.717  0.00  0.00    +0.000 C 
BRANCH  14  15
ATOM     15  N   UNL     1       1.431   9.246  20.610  0.00  0.00    +0.000 NA
ATOM     16  H   UNL     1       1.392   9.624  21.560  0.00  0.00    +0.000 HD
BRANCH  15  17
ATOM     17  C   UNL     1       0.347   9.931  19.846  0.00  0.00    +0.000 C 
BRANCH  17  18
ATOM     18  C   UNL     1      -0.599  10.813  20.752  0.00  0.00    +0.000 C 
BRANCH  18  25
ATOM     19  C   UNL     1      -2.013  11.572  23.306  0.00  0.00    +0.000 C 
ATOM     20  C   UNL     1      -0.949  12.448  22.634  0.00  0.00    +0.000 C 
ATOM     21  C   UNL     1      -1.654  13.662  21.975  0.00  0.00    +0.000 C 
ATOM     22  O   UNL     1      -0.713  14.584  21.422  0.00  0.00    +0.000 OA
ATOM     23  C   UNL     1       0.112  13.924  20.461  0.00  0.00    +0.000 C 
ATOM     24  C   UNL     1       0.881  12.754  21.103  0.00  0.00    +0.000 C 
ATOM     25  N   UNL     1       0.025  11.722  21.744  0.00  0.00    +0.000 NA
ENDBRANCH  18  25
ENDBRANCH  17  18
BRANCH  17  26
ATOM     26  C   UNL     1       1.056  10.635  18.648  0.00  0.00    +0.000 C 
BRANCH  26  27
ATOM     27  N   UNL     1       1.578   9.805  17.566  0.00  0.00    +0.000 NA
ATOM     28  H   UNL     1       2.590   9.824  17.502  0.00  0.00    +0.000 HD
ATOM     29  H   UNL     1       1.275   8.840  17.684  0.00  0.00    +0.000 HD
ENDBRANCH  26  27
ENDBRANCH  17  26
ENDBRANCH  15  17
ENDBRANCH  14  15
ENDBRANCH   1  14
BRANCH  11  30
ATOM     30  C   UNL     1       6.094   4.372  17.006  0.00  0.00    +0.000 C 
BRANCH  30  31
ATOM     31  C   UNL     1       6.886   5.559  17.511  0.00  0.00    +0.000 A 
ATOM     32  C   UNL     1       7.603   5.465  18.717  0.00  0.00    +0.000 A 
ATOM     33  C   UNL     1       8.317   6.567  19.197  0.00  0.00    +0.000 A 
ATOM     34  C   UNL     1       8.313   7.753  18.480  0.00  0.00    +0.000 A 
ATOM     35  F   UNL     1       9.005   8.808  18.943  0.00  0.00    +0.000 F 
ATOM     36  C   UNL     1       7.604   7.870  17.290  0.00  0.00    +0.000 A 
ATOM     37  C   UNL     1       6.890   6.772  16.807  0.00  0.00    +0.000 A 
ENDBRANCH  30  31
ENDBRANCH  11  30
TORSDOF 9
ENDMDL
MODEL 8
REMARK VINA RESULT:      -7.9      1.354      2.308
REMARK  Name = 
REMARK  12 active torsions:
REMARK  status: ('A' for Active; 'I' for Inactive)
REMARK    1  A    between atoms: C_1  and  C_2
REMARK    2  A    between atoms: N_7  and  C_8
REMARK    3  A    between atoms: C_8  and  C_9
REMARK    4  A    between atoms: C_9  and  C_10
REMARK    5  A    between atoms: C_9  and  N_12
REMARK    6  A    between atoms: C_10  and  N_11
REMARK    7  A    between atoms: N_12  and  C_13
REMARK    8  A    between atoms: C_13  and  C_14
REMARK    9  A    between atoms: C_18  and  C_19
REMARK   10  A    between atoms: C_18  and  C_20
REMARK   11  A    between atoms: C_24  and  C_25
REMARK   12  A    between atoms: C_25  and  C_26
REMARK                            x       y       z     vdW  Elec       q    Type
REMARK                         _______ _______ _______ _____ _____    ______ ____
ROOT
ATOM      1  C   UNL     1       2.076   7.079  19.788  0.00  0.00    +0.000 C 
ATOM      2  O   UNL     1       2.769   7.762  19.026  0.00  0.00    +0.000 OA
ATOM      3  N   UNL     1       2.053   5.695  19.791  0.00  0.00    +0.000 N 
ATOM      4  C   UNL     1       1.141   4.826  20.559  0.00  0.00    +0.000 C 
ATOM      5  C   UNL     1       1.546   3.349  20.291  0.00  0.00    +0.000 C 
ATOM      6  C   UNL     1       1.892   2.632  21.598  0.00  0.00    +0.000 C 
ATOM      7  C   UNL     1       0.450   2.588  19.539  0.00  0.00    +0.000 C 
ATOM      8  C   UNL     1       2.768   3.536  19.416  0.00  0.00    +0.000 A 
ATOM      9  N   UNL     1       3.547   2.525  18.977  0.00  0.00    +0.000 NA
ATOM     10  C   UNL     1       4.611   2.904  18.225  0.00  0.00    +0.000 A 
ATOM     11  C   UNL     1       4.905   4.227  17.871  0.00  0.00    +0.000 A 
ATOM     12  C   UNL     1       4.059   5.235  18.346  0.00  0.00    +0.000 A 
ATOM     13  C   UNL     1       2.986   4.878  19.136  0.00  0.00    +0.000 A 
ENDROOT
BRANCH   1  14
ATOM     14  C   UNL     1       1.229   7.787  20.852  0.00  0.00    +0.000 C 
BRANCH  14  15
ATOM     15  N   UNL     1       1.384   9.254  20.801  0.00  0.00    +0.000 NA
ATOM     16  H   UNL     1       1.151   9.614  21.730  0.00  0.00    +0.000 HD
BRANCH  15  17
ATOM     17  C   UNL     1       0.465   9.940  19.847  0.00  0.00    +0.000 C 
BRANCH  17  18
ATOM     18  C   UNL     1      -0.702  10.730  20.558  0.00  0.00    +0.000 C 
BRANCH  18  25
ATOM     19  C   UNL     1      -1.011  12.986  22.537  0.00  0.00    +0.000 C 
ATOM     20  C   UNL     1      -1.658  12.983  21.148  0.00  0.00    +0.000 C 
ATOM     21  C   UNL     1      -3.179  12.735  21.312  0.00  0.00    +0.000 C 
ATOM     22  O   UNL     1      -3.869  12.829  20.064  0.00  0.00    +0.000 OA
ATOM     23  C   UNL     1      -3.325  11.894  19.132  0.00  0.00    +0.000 C 
ATOM     24  C   UNL     1      -1.827  12.160  18.893  0.00  0.00    +0.000 C 
ATOM     25  N   UNL     1      -0.983  12.118  20.116  0.00  0.00    +0.000 NA
ENDBRANCH  18  25
ENDBRANCH  17  18
BRANCH  17  26
ATOM     26  C   UNL     1       1.387  10.739  18.875  0.00  0.00    +0.000 C 
BRANCH  26  27
ATOM     27  N   UNL     1       1.714  10.145  17.582  0.00  0.00    +0.000 NA
ATOM     28  H   UNL     1       1.546  10.771  16.803  0.00  0.00    +0.000 HD
ATOM     29  H   UNL     1       2.690   9.854  17.565  0.00  0.00    +0.000 HD
ENDBRANCH  26  27
ENDBRANCH  17  26
ENDBRANCH  15  17
ENDBRANCH  14  15
ENDBRANCH   1  14
BRANCH  11  30
ATOM     30  C   UNL     1       6.109   4.578  17.039  0.00  0.00    +0.000 C 
BRANCH  30  31
ATOM     31  C   UNL     1       6.890   5.759  17.574  0.00  0.00    +0.000 A 
ATOM     32  C   UNL     1       6.876   6.984  16.884  0.00  0.00    +0.000 A 
ATOM     33  C   UNL     1       7.614   8.069  17.364  0.00  0.00    +0.000 A 
ATOM     34  C   UNL     1       8.364   7.931  18.522  0.00  0.00    +0.000 A 
ATOM     35  F   UNL     1       9.069   8.979  18.983  0.00  0.00    +0.000 F 
ATOM     36  C   UNL     1       8.399   6.727  19.215  0.00  0.00    +0.000 A 
ATOM     37  C   UNL     1       7.663   5.640  18.740  0.00  0.00    +0.000 A 
ENDBRANCH  30  31
ENDBRANCH  11  30
TORSDOF 9
ENDMDL
MODEL 9
REMARK VINA RESULT:      -7.9      1.161      1.694
REMARK  Name = 
REMARK  12 active torsions:
REMARK  status: ('A' for Active; 'I' for Inactive)
REMARK    1  A    between atoms: C_1  and  C_2
REMARK    2  A    between atoms: N_7  and  C_8
REMARK    3  A    between atoms: C_8  and  C_9
REMARK    4  A    between atoms: C_9  and  C_10
REMARK    5  A    between atoms: C_9  and  N_12
REMARK    6  A    between atoms: C_10  and  N_11
REMARK    7  A    between atoms: N_12  and  C_13
REMARK    8  A    between atoms: C_13  and  C_14
REMARK    9  A    between atoms: C_18  and  C_19
REMARK   10  A    between atoms: C_18  and  C_20
REMARK   11  A    between atoms: C_24  and  C_25
REMARK   12  A    between atoms: C_25  and  C_26
REMARK                            x       y       z     vdW  Elec       q    Type
REMARK                         _______ _______ _______ _____ _____    ______ ____
ROOT
ATOM      1  C   UNL     1       2.137   7.105  19.601  0.00  0.00    +0.000 C 
ATOM      2  O   UNL     1       2.865   7.724  18.818  0.00  0.00    +0.000 OA
ATOM      3  N   UNL     1       2.082   5.725  19.690  0.00  0.00    +0.000 N 
ATOM      4  C   UNL     1       1.129   4.926  20.484  0.00  0.00    +0.000 C 
ATOM      5  C   UNL     1       1.507   3.427  20.321  0.00  0.00    +0.000 C 
ATOM      6  C   UNL     1       1.801   2.787  21.679  0.00  0.00    +0.000 C 
ATOM      7  C   UNL     1       0.414   2.643  19.587  0.00  0.00    +0.000 C 
ATOM      8  C   UNL     1       2.756   3.533  19.472  0.00  0.00    +0.000 A 
ATOM      9  N   UNL     1       3.524   2.479  19.118  0.00  0.00    +0.000 NA
ATOM     10  C   UNL     1       4.616   2.786  18.375  0.00  0.00    +0.000 A 
ATOM     11  C   UNL     1       4.950   4.078  17.948  0.00  0.00    +0.000 A 
ATOM     12  C   UNL     1       4.115   5.132  18.334  0.00  0.00    +0.000 A 
ATOM     13  C   UNL     1       3.013   4.849  19.115  0.00  0.00    +0.000 A 
ENDROOT
BRANCH   1  14
ATOM     14  C   UNL     1       1.278   7.898  20.595  0.00  0.00    +0.000 C 
BRANCH  14  15
ATOM     15  N   UNL     1       1.293   9.345  20.312  0.00  0.00    +0.000 NA
ATOM     16  H   UNL     1       2.274   9.630  20.244  0.00  0.00    +0.000 HD
BRANCH  15  17
ATOM     17  C   UNL     1       0.689  10.191  21.383  0.00  0.00    +0.000 C 
BRANCH  17  18
ATOM     18  C   UNL     1      -0.761  10.708  21.032  0.00  0.00    +0.000 C 
BRANCH  18  25
ATOM     19  C   UNL     1      -1.291  12.875  23.063  0.00  0.00    +0.000 C 
ATOM     20  C   UNL     1      -1.718  12.968  21.593  0.00  0.00    +0.000 C 
ATOM     21  C   UNL     1      -3.254  12.776  21.512  0.00  0.00    +0.000 C 
ATOM     22  O   UNL     1      -3.742  12.960  20.182  0.00  0.00    +0.000 OA
ATOM     23  C   UNL     1      -3.094  12.049  19.292  0.00  0.00    +0.000 C 
ATOM     24  C   UNL     1      -1.568  12.264  19.297  0.00  0.00    +0.000 C 
ATOM     25  N   UNL     1      -0.923  12.126  20.629  0.00  0.00    +0.000 NA
ENDBRANCH  18  25
ENDBRANCH  17  18
BRANCH  17  26
ATOM     26  C   UNL     1       0.864   9.381  22.705  0.00  0.00    +0.000 C 
BRANCH  26  27
ATOM     27  N   UNL     1      -0.181   9.477  23.721  0.00  0.00    +0.000 NA
ATOM     28  H   UNL     1      -0.473  10.431  23.902  0.00  0.00    +0.000 HD
ATOM     29  H   UNL     1      -0.995   8.933  23.442  0.00  0.00    +0.000 HD
ENDBRANCH  26  27
ENDBRANCH  17  26
ENDBRANCH  15  17
ENDBRANCH  14  15
ENDBRANCH   1  14
BRANCH  11  30
ATOM     30  C   UNL     1       6.184   4.350  17.130  0.00  0.00    +0.000 C 
BRANCH  30  31
ATOM     31  C   UNL     1       6.948   5.577  17.578  0.00  0.00    +0.000 A 
ATOM     32  C   UNL     1       7.694   5.547  18.769  0.00  0.00    +0.000 A 
ATOM     33  C   UNL     1       8.382   6.686  19.196  0.00  0.00    +0.000 A 
ATOM     34  C   UNL     1       8.322   7.847  18.442  0.00  0.00    +0.000 A 
ATOM     35  F   UNL     1       8.989   8.939  18.854  0.00  0.00    +0.000 F 
ATOM     36  C   UNL     1       7.584   7.902  17.265  0.00  0.00    +0.000 A 
ATOM     37  C   UNL     1       6.896   6.767  16.834  0.00  0.00    +0.000 A 
ENDBRANCH  30  31
ENDBRANCH  11  30
TORSDOF 9
ENDMDL
