MODEL 1
REMARK VINA RESULT:      -8.5      0.000      0.000
REMARK  Name = 
REMARK  4 active torsions:
REMARK  status: ('A' for Active; 'I' for Inactive)
REMARK    1  A    between atoms: C_1  and  N_2
REMARK    2  A    between atoms: C_4  and  C_5
REMARK    3  A    between atoms: C_9  and  N_10
REMARK    4  A    between atoms: C_12  and  C_13
REMARK                            x       y       z     vdW  Elec       q    Type
REMARK                         _______ _______ _______ _____ _____    ______ ____
ROOT
ATOM      1  C   UNL     1       4.136   5.881  18.437  0.00  0.00    +0.000 C 
ATOM      2  O   UNL     1       3.792   7.059  18.504  0.00  0.00    +0.000 OA
ATOM      3  N   UNL     1       5.418   5.523  18.138  0.00  0.00    +0.000 N 
ATOM      4  C   UNL     1       6.528   6.387  17.797  0.00  0.00    +0.000 C 
ATOM      5  C   UNL     1       7.276   5.113  17.341  0.00  0.00    +0.000 C 
ATOM      6  C   UNL     1       6.214   4.320  18.151  0.00  0.00    +0.000 C 
ENDROOT
BRANCH   1  10
ATOM      7  C   UNL     1       1.438   2.979  21.316  0.00  0.00    +0.000 C 
ATOM      8  N   UNL     1       1.784   3.431  19.984  0.00  0.00    +0.000 N 
ATOM      9  N   UNL     1       2.768   4.406  19.878  0.00  0.00    +0.000 NA
ATOM     10  C   UNL     1       3.078   4.802  18.679  0.00  0.00    +0.000 A 
ATOM     11  C   UNL     1       2.447   4.280  17.443  0.00  0.00    +0.000 A 
ATOM     12  C   UNL     1       1.473   3.380  17.576  0.00  0.00    +0.000 A 
ATOM     13  C   UNL     1       1.073   2.906  18.912  0.00  0.00    +0.000 A 
ATOM     14  O   UNL     1       0.159   2.090  19.004  0.00  0.00    +0.000 OA
ENDBRANCH   1  10
BRANCH   5  15
ATOM     15  N   UNL     1       7.166   4.915  15.916  0.00  0.00    +0.000 N 
ATOM     16  C   UNL     1       6.384   3.959  15.325  0.00  0.00    +0.000 A 
ATOM     17  C   UNL     1       6.526   4.207  13.976  0.00  0.00    +0.000 A 
ATOM     18  N   UNL     1       7.375   5.267  13.799  0.00  0.00    +0.000 NA
ATOM     19  N   UNL     1       7.783   5.675  14.992  0.00  0.00    +0.000 NA
BRANCH  17  20
ATOM     20  C   UNL     1       5.875   3.517  12.880  0.00  0.00    +0.000 A 
ATOM     21  C   UNL     1       6.519   2.430  12.274  0.00  0.00    +0.000 A 
ATOM     22  C   UNL     1       5.919   1.746  11.213  0.00  0.00    +0.000 A 
ATOM     23  C   UNL     1       4.664   2.139  10.754  0.00  0.00    +0.000 A 
ATOM     24  C   UNL     1       4.006   3.209  11.357  0.00  0.00    +0.000 A 
ATOM     25  C   UNL     1       4.609   3.899  12.414  0.00  0.00    +0.000 A 
ENDBRANCH  17  20
ENDBRANCH   5  15
TORSDOF 3
ENDMDL
MODEL 2
REMARK VINA RESULT:      -7.7      4.513      8.906
REMARK  Name = 
REMARK  4 active torsions:
REMARK  status: ('A' for Active; 'I' for Inactive)
REMARK    1  A    between atoms: C_1  and  N_2
REMARK    2  A    between atoms: C_4  and  C_5
REMARK    3  A    between atoms: C_9  and  N_10
REMARK    4  A    between atoms: C_12  and  C_13
REMARK                            x       y       z     vdW  Elec       q    Type
REMARK                         _______ _______ _______ _____ _____    ______ ____
ROOT
ATOM      1  C   UNL     1       3.139   4.221  17.543  0.00  0.00    +0.000 C 
ATOM      2  O   UNL     1       2.305   3.576  16.909  0.00  0.00    +0.000 OA
ATOM      3  N   UNL     1       2.924   4.598  18.836  0.00  0.00    +0.000 N 
ATOM      4  C   UNL     1       1.737   4.394  19.638  0.00  0.00    +0.000 C 
ATOM      5  C   UNL     1       2.341   5.401  20.644  0.00  0.00    +0.000 C 
ATOM      6  C   UNL     1       3.693   5.165  19.916  0.00  0.00    +0.000 C 
ENDROOT
BRANCH   1  10
ATOM      7  C   UNL     1       7.254   6.842  17.117  0.00  0.00    +0.000 C 
ATOM      8  N   UNL     1       6.379   5.811  16.597  0.00  0.00    +0.000 N 
ATOM      9  N   UNL     1       5.220   5.539  17.312  0.00  0.00    +0.000 NA
ATOM     10  C   UNL     1       4.437   4.617  16.836  0.00  0.00    +0.000 A 
ATOM     11  C   UNL     1       4.712   3.853  15.594  0.00  0.00    +0.000 A 
ATOM     12  C   UNL     1       5.854   4.101  14.954  0.00  0.00    +0.000 A 
ATOM     13  C   UNL     1       6.785   5.126  15.457  0.00  0.00    +0.000 A 
ATOM     14  O   UNL     1       7.838   5.318  14.856  0.00  0.00    +0.000 OA
ENDBRANCH   1  10
BRANCH   5  15
ATOM     15  N   UNL     1       1.814   6.729  20.445  0.00  0.00    +0.000 N 
ATOM     16  C   UNL     1       0.929   7.347  21.288  0.00  0.00    +0.000 A 
ATOM     17  C   UNL     1       0.789   8.609  20.750  0.00  0.00    +0.000 A 
ATOM     18  N   UNL     1       1.561   8.707  19.624  0.00  0.00    +0.000 NA
ATOM     19  N   UNL     1       2.163   7.542  19.431  0.00  0.00    +0.000 NA
BRANCH  17  20
ATOM     20  C   UNL     1      -0.002   9.705  21.272  0.00  0.00    +0.000 A 
ATOM     21  C   UNL     1      -0.329   9.730  22.634  0.00  0.00    +0.000 A 
ATOM     22  C   UNL     1      -1.093  10.772  23.166  0.00  0.00    +0.000 A 
ATOM     23  C   UNL     1      -1.532  11.804  22.340  0.00  0.00    +0.000 A 
ATOM     24  C   UNL     1      -1.203  11.799  20.986  0.00  0.00    +0.000 A 
ATOM     25  C   UNL     1      -0.444  10.753  20.451  0.00  0.00    +0.000 A 
ENDBRANCH  17  20
ENDBRANCH   5  15
TORSDOF 3
ENDMDL
MODEL 3
REMARK VINA RESULT:      -7.6      0.969      1.309
REMARK  Name = 
REMARK  4 active torsions:
REMARK  status: ('A' for Active; 'I' for Inactive)
REMARK    1  A    between atoms: C_1  and  N_2
REMARK    2  A    between atoms: C_4  and  C_5
REMARK    3  A    between atoms: C_9  and  N_10
REMARK    4  A    between atoms: C_12  and  C_13
REMARK                            x       y       z     vdW  Elec       q    Type
REMARK                         _______ _______ _______ _____ _____    ______ ____
ROOT
ATOM      1  C   UNL     1       4.126   6.411  17.979  0.00  0.00    +0.000 C 
ATOM      2  O   UNL     1       3.672   7.545  17.844  0.00  0.00    +0.000 OA
ATOM      3  N   UNL     1       5.441   6.131  17.749  0.00  0.00    +0.000 N 
ATOM      4  C   UNL     1       6.472   7.027  17.270  0.00  0.00    +0.000 C 
ATOM      5  C   UNL     1       7.344   5.771  17.039  0.00  0.00    +0.000 C 
ATOM      6  C   UNL     1       6.344   5.028  17.968  0.00  0.00    +0.000 C 
ENDROOT
BRANCH   1  10
ATOM      7  C   UNL     1       2.318   1.869  17.675  0.00  0.00    +0.000 C 
ATOM      8  N   UNL     1       2.294   3.176  18.300  0.00  0.00    +0.000 N 
ATOM      9  N   UNL     1       3.199   4.120  17.835  0.00  0.00    +0.000 NA
ATOM     10  C   UNL     1       3.168   5.293  18.396  0.00  0.00    +0.000 A 
ATOM     11  C   UNL     1       2.235   5.666  19.488  0.00  0.00    +0.000 A 
ATOM     12  C   UNL     1       1.409   4.727  19.946  0.00  0.00    +0.000 A 
ATOM     13  C   UNL     1       1.412   3.377  19.356  0.00  0.00    +0.000 A 
ATOM     14  O   UNL     1       0.653   2.527  19.813  0.00  0.00    +0.000 OA
ENDBRANCH   1  10
BRANCH   5  15
ATOM     15  N   UNL     1       7.281   5.327  15.667  0.00  0.00    +0.000 N 
ATOM     16  C   UNL     1       6.372   4.421  15.188  0.00  0.00    +0.000 A 
ATOM     17  C   UNL     1       6.632   4.380  13.834  0.00  0.00    +0.000 A 
ATOM     18  N   UNL     1       7.669   5.228  13.549  0.00  0.00    +0.000 NA
ATOM     19  N   UNL     1       8.076   5.782  14.682  0.00  0.00    +0.000 NA
BRANCH  17  20
ATOM     20  C   UNL     1       5.930   3.613  12.826  0.00  0.00    +0.000 A 
ATOM     21  C   UNL     1       6.549   2.488  12.262  0.00  0.00    +0.000 A 
ATOM     22  C   UNL     1       5.899   1.731  11.284  0.00  0.00    +0.000 A 
ATOM     23  C   UNL     1       4.618   2.086  10.867  0.00  0.00    +0.000 A 
ATOM     24  C   UNL     1       3.986   3.193  11.428  0.00  0.00    +0.000 A 
ATOM     25  C   UNL     1       4.639   3.957  12.402  0.00  0.00    +0.000 A 
ENDBRANCH  17  20
ENDBRANCH   5  15
TORSDOF 3
ENDMDL
MODEL 4
REMARK VINA RESULT:      -7.5      4.315      8.858
REMARK  Name = 
REMARK  4 active torsions:
REMARK  status: ('A' for Active; 'I' for Inactive)
REMARK    1  A    between atoms: C_1  and  N_2
REMARK    2  A    between atoms: C_4  and  C_5
REMARK    3  A    between atoms: C_9  and  N_10
REMARK    4  A    between atoms: C_12  and  C_13
REMARK                            x       y       z     vdW  Elec       q    Type
REMARK                         _______ _______ _______ _____ _____    ______ ____
ROOT
ATOM      1  C   UNL     1       3.205   3.970  17.344  0.00  0.00    +0.000 C 
ATOM      2  O   UNL     1       2.330   3.361  16.732  0.00  0.00    +0.000 OA
ATOM      3  N   UNL     1       3.051   4.329  18.651  0.00  0.00    +0.000 N 
ATOM      4  C   UNL     1       1.890   4.143  19.495  0.00  0.00    +0.000 C 
ATOM      5  C   UNL     1       2.560   5.114  20.495  0.00  0.00    +0.000 C 
ATOM      6  C   UNL     1       3.876   4.853  19.711  0.00  0.00    +0.000 C 
ENDROOT
BRANCH   1  10
ATOM      7  C   UNL     1       6.243   3.745  13.509  0.00  0.00    +0.000 C 
ATOM      8  N   UNL     1       5.936   4.279  14.820  0.00  0.00    +0.000 N 
ATOM      9  N   UNL     1       4.752   3.864  15.415  0.00  0.00    +0.000 NA
ATOM     10  C   UNL     1       4.486   4.342  16.595  0.00  0.00    +0.000 A 
ATOM     11  C   UNL     1       5.364   5.291  17.323  0.00  0.00    +0.000 A 
ATOM     12  C   UNL     1       6.470   5.708  16.710  0.00  0.00    +0.000 A 
ATOM     13  C   UNL     1       6.813   5.209  15.367  0.00  0.00    +0.000 A 
ATOM     14  O   UNL     1       7.829   5.627  14.818  0.00  0.00    +0.000 OA
ENDBRANCH   1  10
BRANCH   5  15
ATOM     15  N   UNL     1       2.065   6.461  20.339  0.00  0.00    +0.000 N 
ATOM     16  C   UNL     1       1.305   7.119  21.268  0.00  0.00    +0.000 A 
ATOM     17  C   UNL     1       1.152   8.381  20.734  0.00  0.00    +0.000 A 
ATOM     18  N   UNL     1       1.796   8.439  19.527  0.00  0.00    +0.000 NA
ATOM     19  N   UNL     1       2.328   7.251  19.282  0.00  0.00    +0.000 NA
BRANCH  17  20
ATOM     20  C   UNL     1       0.467   9.511  21.327  0.00  0.00    +0.000 A 
ATOM     21  C   UNL     1      -0.251   9.333  22.517  0.00  0.00    +0.000 A 
ATOM     22  C   UNL     1      -0.925  10.403  23.111  0.00  0.00    +0.000 A 
ATOM     23  C   UNL     1      -0.881  11.665  22.524  0.00  0.00    +0.000 A 
ATOM     24  C   UNL     1      -0.160  11.860  21.348  0.00  0.00    +0.000 A 
ATOM     25  C   UNL     1       0.510  10.788  20.748  0.00  0.00    +0.000 A 
ENDBRANCH  17  20
ENDBRANCH   5  15
TORSDOF 3
ENDMDL
MODEL 5
REMARK VINA RESULT:      -7.5      1.671      2.073
REMARK  Name = 
REMARK  4 active torsions:
REMARK  status: ('A' for Active; 'I' for Inactive)
REMARK    1  A    between atoms: C_1  and  N_2
REMARK    2  A    between atoms: C_4  and  C_5
REMARK    3  A    between atoms: C_9  and  N_10
REMARK    4  A    between atoms: C_12  and  C_13
REMARK                            x       y       z     vdW  Elec       q    Type
REMARK                         _______ _______ _______ _____ _____    ______ ____
ROOT
ATOM      1  C   UNL     1       2.824   5.688  18.238  0.00  0.00    +0.000 C 
ATOM      2  O   UNL     1       1.762   5.994  17.700  0.00  0.00    +0.000 OA
ATOM      3  N   UNL     1       4.000   6.292  17.902  0.00  0.00    +0.000 N 
ATOM      4  C   UNL     1       4.230   7.288  16.878  0.00  0.00    +0.000 C 
ATOM      5  C   UNL     1       5.740   7.021  17.068  0.00  0.00    +0.000 C 
ATOM      6  C   UNL     1       5.349   6.342  18.410  0.00  0.00    +0.000 C 
ENDROOT
BRANCH   1  10
ATOM      7  C   UNL     1       4.662   1.711  20.426  0.00  0.00    +0.000 C 
ATOM      8  N   UNL     1       3.632   2.727  20.360  0.00  0.00    +0.000 N 
ATOM      9  N   UNL     1       3.738   3.677  19.353  0.00  0.00    +0.000 NA
ATOM     10  C   UNL     1       2.806   4.582  19.295  0.00  0.00    +0.000 A 
ATOM     11  C   UNL     1       1.660   4.653  20.233  0.00  0.00    +0.000 A 
ATOM     12  C   UNL     1       1.607   3.758  21.219  0.00  0.00    +0.000 A 
ATOM     13  C   UNL     1       2.644   2.719  21.339  0.00  0.00    +0.000 A 
ATOM     14  O   UNL     1       2.580   1.920  22.269  0.00  0.00    +0.000 OA
ENDBRANCH   1  10
BRANCH   5  15
ATOM     15  N   UNL     1       6.242   6.089  16.087  0.00  0.00    +0.000 N 
ATOM     16  C   UNL     1       5.464   5.449  15.158  0.00  0.00    +0.000 A 
ATOM     17  C   UNL     1       6.374   4.748  14.396  0.00  0.00    +0.000 A 
ATOM     18  N   UNL     1       7.635   4.969  14.882  0.00  0.00    +0.000 NA
ATOM     19  N   UNL     1       7.540   5.769  15.934  0.00  0.00    +0.000 NA
BRANCH  17  20
ATOM     20  C   UNL     1       6.102   3.926  13.234  0.00  0.00    +0.000 A 
ATOM     21  C   UNL     1       7.168   3.322  12.554  0.00  0.00    +0.000 A 
ATOM     22  C   UNL     1       6.937   2.527  11.427  0.00  0.00    +0.000 A 
ATOM     23  C   UNL     1       5.636   2.322  10.976  0.00  0.00    +0.000 A 
ATOM     24  C   UNL     1       4.565   2.906  11.651  0.00  0.00    +0.000 A 
ATOM     25  C   UNL     1       4.795   3.707  12.774  0.00  0.00    +0.000 A 
ENDBRANCH  17  20
ENDBRANCH   5  15
TORSDOF 3
ENDMDL
MODEL 6
REMARK VINA RESULT:      -7.5      6.676      8.245
REMARK  Name = 
REMARK  4 active torsions:
REMARK  status: ('A' for Active; 'I' for Inactive)
REMARK    1  A    between atoms: C_1  and  N_2
REMARK    2  A    between atoms: C_4  and  C_5
REMARK    3  A    between atoms: C_9  and  N_10
REMARK    4  A    between atoms: C_12  and  C_13
REMARK                            x       y       z     vdW  Elec       q    Type
REMARK                         _______ _______ _______ _____ _____    ______ ____
ROOT
ATOM      1  C   UNL     1      -0.704  12.045  19.401  0.00  0.00    +0.000 C 
ATOM      2  O   UNL     1      -0.162  13.149  19.386  0.00  0.00    +0.000 OA
ATOM      3  N   UNL     1      -0.132  10.973  20.020  0.00  0.00    +0.000 N 
ATOM      4  C   UNL     1       1.158  10.903  20.673  0.00  0.00    +0.000 C 
ATOM      5  C   UNL     1       0.985   9.367  20.677  0.00  0.00    +0.000 C 
ATOM      6  C   UNL     1      -0.520   9.636  20.399  0.00  0.00    +0.000 C 
ENDROOT
BRANCH   1  10
ATOM      7  C   UNL     1      -3.472  10.896  15.527  0.00  0.00    +0.000 C 
ATOM      8  N   UNL     1      -3.385  11.352  16.900  0.00  0.00    +0.000 N 
ATOM      9  N   UNL     1      -2.116  11.471  17.452  0.00  0.00    +0.000 NA
ATOM     10  C   UNL     1      -2.045  11.887  18.681  0.00  0.00    +0.000 A 
ATOM     11  C   UNL     1      -3.226  12.232  19.510  0.00  0.00    +0.000 A 
ATOM     12  C   UNL     1      -4.432  12.064  18.972  0.00  0.00    +0.000 A 
ATOM     13  C   UNL     1      -4.571  11.582  17.587  0.00  0.00    +0.000 A 
ATOM     14  O   UNL     1      -5.697  11.419  17.125  0.00  0.00    +0.000 OA
ENDBRANCH   1  10
BRANCH   5  15
ATOM     15  N   UNL     1       1.667   8.755  19.562  0.00  0.00    +0.000 N 
ATOM     16  C   UNL     1       2.214   7.499  19.584  0.00  0.00    +0.000 A 
ATOM     17  C   UNL     1       2.664   7.315  18.293  0.00  0.00    +0.000 A 
ATOM     18  N   UNL     1       2.394   8.438  17.557  0.00  0.00    +0.000 NA
ATOM     19  N   UNL     1       1.808   9.323  18.351  0.00  0.00    +0.000 NA
BRANCH  17  20
ATOM     20  C   UNL     1       3.292   6.132  17.740  0.00  0.00    +0.000 A 
ATOM     21  C   UNL     1       2.639   4.896  17.842  0.00  0.00    +0.000 A 
ATOM     22  C   UNL     1       3.221   3.737  17.321  0.00  0.00    +0.000 A 
ATOM     23  C   UNL     1       4.458   3.805  16.686  0.00  0.00    +0.000 A 
ATOM     24  C   UNL     1       5.112   5.029  16.565  0.00  0.00    +0.000 A 
ATOM     25  C   UNL     1       4.534   6.190  17.092  0.00  0.00    +0.000 A 
ENDBRANCH  17  20
ENDBRANCH   5  15
TORSDOF 3
ENDMDL
MODEL 7
REMARK VINA RESULT:      -7.4      6.118      8.077
REMARK  Name = 
REMARK  4 active torsions:
REMARK  status: ('A' for Active; 'I' for Inactive)
REMARK    1  A    between atoms: C_1  and  N_2
REMARK    2  A    between atoms: C_4  and  C_5
REMARK    3  A    between atoms: C_9  and  N_10
REMARK    4  A    between atoms: C_12  and  C_13
REMARK                            x       y       z     vdW  Elec       q    Type
REMARK                         _______ _______ _______ _____ _____    ______ ____
ROOT
ATOM      1  C   UNL     1      -0.182  11.210  19.909  0.00  0.00    +0.000 C 
ATOM      2  O   UNL     1       0.532  12.204  19.799  0.00  0.00    +0.000 OA
ATOM      3  N   UNL     1       0.194  10.134  20.657  0.00  0.00    +0.000 N 
ATOM      4  C   UNL     1       1.442   9.930  21.361  0.00  0.00    +0.000 C 
ATOM      5  C   UNL     1       1.020   8.451  21.519  0.00  0.00    +0.000 C 
ATOM      6  C   UNL     1      -0.415   8.926  21.158  0.00  0.00    +0.000 C 
ENDROOT
BRANCH   1  10
ATOM      7  C   UNL     1      -4.865  12.511  19.299  0.00  0.00    +0.000 C 
ATOM      8  N   UNL     1      -3.707  11.781  18.825  0.00  0.00    +0.000 N 
ATOM      9  N   UNL     1      -2.550  11.856  19.588  0.00  0.00    +0.000 NA
ATOM     10  C   UNL     1      -1.517  11.192  19.160  0.00  0.00    +0.000 A 
ATOM     11  C   UNL     1      -1.510  10.377  17.921  0.00  0.00    +0.000 A 
ATOM     12  C   UNL     1      -2.618  10.360  17.183  0.00  0.00    +0.000 A 
ATOM     13  C   UNL     1      -3.814  11.105  17.614  0.00  0.00    +0.000 A 
ATOM     14  O   UNL     1      -4.815  11.086  16.903  0.00  0.00    +0.000 OA
ENDBRANCH   1  10
BRANCH   5  15
ATOM     15  N   UNL     1       1.614   7.619  20.500  0.00  0.00    +0.000 N 
ATOM     16  C   UNL     1       1.692   6.253  20.563  0.00  0.00    +0.000 A 
ATOM     17  C   UNL     1       2.244   5.899  19.350  0.00  0.00    +0.000 A 
ATOM     18  N   UNL     1       2.487   7.031  18.618  0.00  0.00    +0.000 NA
ATOM     19  N   UNL     1       2.124   8.080  19.342  0.00  0.00    +0.000 NA
BRANCH  17  20
ATOM     20  C   UNL     1       2.509   4.562  18.859  0.00  0.00    +0.000 A 
ATOM     21  C   UNL     1       1.615   3.527  19.168  0.00  0.00    +0.000 A 
ATOM     22  C   UNL     1       1.845   2.226  18.713  0.00  0.00    +0.000 A 
ATOM     23  C   UNL     1       2.968   1.949  17.936  0.00  0.00    +0.000 A 
ATOM     24  C   UNL     1       3.857   2.971  17.610  0.00  0.00    +0.000 A 
ATOM     25  C   UNL     1       3.632   4.273  18.071  0.00  0.00    +0.000 A 
ENDBRANCH  17  20
ENDBRANCH   5  15
TORSDOF 3
ENDMDL
MODEL 8
REMARK VINA RESULT:      -7.4      7.203      9.578
REMARK  Name = 
REMARK  4 active torsions:
REMARK  status: ('A' for Active; 'I' for Inactive)
REMARK    1  A    between atoms: C_1  and  N_2
REMARK    2  A    between atoms: C_4  and  C_5
REMARK    3  A    between atoms: C_9  and  N_10
REMARK    4  A    between atoms: C_12  and  C_13
REMARK                            x       y       z     vdW  Elec       q    Type
REMARK                         _______ _______ _______ _____ _____    ______ ____
ROOT
ATOM      1  C   UNL     1       2.065  13.342  20.456  0.00  0.00    +0.000 C 
ATOM      2  O   UNL     1       2.693  13.395  21.512  0.00  0.00    +0.000 OA
ATOM      3  N   UNL     1       1.258  12.285  20.154  0.00  0.00    +0.000 N 
ATOM      4  C   UNL     1       1.045  11.077  20.921  0.00  0.00    +0.000 C 
ATOM      5  C   UNL     1       0.358  10.494  19.665  0.00  0.00    +0.000 C 
ATOM      6  C   UNL     1       0.266  11.960  19.158  0.00  0.00    +0.000 C 
ENDROOT
BRANCH   1  10
ATOM      7  C   UNL     1       0.770  17.644  18.508  0.00  0.00    +0.000 C 
ATOM      8  N   UNL     1       1.666  16.506  18.520  0.00  0.00    +0.000 N 
ATOM      9  N   UNL     1       1.422  15.513  19.459  0.00  0.00    +0.000 NA
ATOM     10  C   UNL     1       2.226  14.491  19.460  0.00  0.00    +0.000 A 
ATOM     11  C   UNL     1       3.371  14.336  18.530  0.00  0.00    +0.000 A 
ATOM     12  C   UNL     1       3.612  15.326  17.671  0.00  0.00    +0.000 A 
ATOM     13  C   UNL     1       2.740  16.512  17.636  0.00  0.00    +0.000 A 
ATOM     14  O   UNL     1       2.998  17.417  16.846  0.00  0.00    +0.000 OA
ENDBRANCH   1  10
BRANCH   5  15
ATOM     15  N   UNL     1       1.267   9.683  18.892  0.00  0.00    +0.000 N 
ATOM     16  C   UNL     1       1.628   8.402  19.215  0.00  0.00    +0.000 A 
ATOM     17  C   UNL     1       2.423   8.009  18.158  0.00  0.00    +0.000 A 
ATOM     18  N   UNL     1       2.524   9.040  17.263  0.00  0.00    +0.000 NA
ATOM     19  N   UNL     1       1.836  10.068  17.735  0.00  0.00    +0.000 NA
BRANCH  17  20
ATOM     20  C   UNL     1       3.043   6.715  17.957  0.00  0.00    +0.000 A 
ATOM     21  C   UNL     1       4.311   6.645  17.362  0.00  0.00    +0.000 A 
ATOM     22  C   UNL     1       4.933   5.412  17.151  0.00  0.00    +0.000 A 
ATOM     23  C   UNL     1       4.297   4.236  17.541  0.00  0.00    +0.000 A 
ATOM     24  C   UNL     1       3.042   4.291  18.145  0.00  0.00    +0.000 A 
ATOM     25  C   UNL     1       2.415   5.525  18.351  0.00  0.00    +0.000 A 
ENDBRANCH  17  20
ENDBRANCH   5  15
TORSDOF 3
ENDMDL
MODEL 9
REMARK VINA RESULT:      -7.4      4.098      7.080
REMARK  Name = 
REMARK  4 active torsions:
REMARK  status: ('A' for Active; 'I' for Inactive)
REMARK    1  A    between atoms: C_1  and  N_2
REMARK    2  A    between atoms: C_4  and  C_5
REMARK    3  A    between atoms: C_9  and  N_10
REMARK    4  A    between atoms: C_12  and  C_13
REMARK                            x       y       z     vdW  Elec       q    Type
REMARK                         _______ _______ _______ _____ _____    ______ ____
ROOT
ATOM      1  C   UNL     1       3.293   6.246  19.123  0.00  0.00    +0.000 C 
ATOM      2  O   UNL     1       3.180   5.342  19.949  0.00  0.00    +0.000 OA
ATOM      3  N   UNL     1       4.246   6.214  18.148  0.00  0.00    +0.000 N 
ATOM      4  C   UNL     1       5.281   5.223  17.945  0.00  0.00    +0.000 C 
ATOM      5  C   UNL     1       5.930   6.218  16.956  0.00  0.00    +0.000 C 
ATOM      6  C   UNL     1       4.559   6.948  16.947  0.00  0.00    +0.000 C 
ENDROOT
BRANCH   1  10
ATOM      7  C   UNL     1       0.343   9.283  21.585  0.00  0.00    +0.000 C 
ATOM      8  N   UNL     1       0.960   8.895  20.333  0.00  0.00    +0.000 N 
ATOM      9  N   UNL     1       1.797   7.787  20.352  0.00  0.00    +0.000 NA
ATOM     10  C   UNL     1       2.342   7.441  19.224  0.00  0.00    +0.000 A 
ATOM     11  C   UNL     1       2.122   8.154  17.942  0.00  0.00    +0.000 A 
ATOM     12  C   UNL     1       1.352   9.241  17.961  0.00  0.00    +0.000 A 
ATOM     13  C   UNL     1       0.720   9.686  19.215  0.00  0.00    +0.000 A 
ATOM     14  O   UNL     1       0.031  10.703  19.206  0.00  0.00    +0.000 OA
ENDBRANCH   1  10
BRANCH   5  15
ATOM     15  N   UNL     1       6.977   6.985  17.588  0.00  0.00    +0.000 N 
ATOM     16  C   UNL     1       7.164   8.330  17.413  0.00  0.00    +0.000 A 
ATOM     17  C   UNL     1       8.202   8.632  18.269  0.00  0.00    +0.000 A 
ATOM     18  N   UNL     1       8.606   7.489  18.907  0.00  0.00    +0.000 NA
ATOM     19  N   UNL     1       7.868   6.483  18.462  0.00  0.00    +0.000 NA
BRANCH  17  20
ATOM     20  C   UNL     1       8.785   9.933  18.523  0.00  0.00    +0.000 A 
ATOM     21  C   UNL     1       8.542  10.982  17.625  0.00  0.00    +0.000 A 
ATOM     22  C   UNL     1       9.094  12.248  17.840  0.00  0.00    +0.000 A 
ATOM     23  C   UNL     1       9.887  12.480  18.962  0.00  0.00    +0.000 A 
ATOM     24  C   UNL     1      10.125  11.450  19.869  0.00  0.00    +0.000 A 
ATOM     25  C   UNL     1       9.580  10.180  19.651  0.00  0.00    +0.000 A 
ENDBRANCH  17  20
ENDBRANCH   5  15
TORSDOF 3
ENDMDL
