MODEL 1
REMARK VINA RESULT:      -8.9      0.000      0.000
REMARK  Name = 
REMARK  12 active torsions:
REMARK  status: ('A' for Active; 'I' for Inactive)
REMARK    1  A    between atoms: C_1  and  C_2
REMARK    2  A    between atoms: C_2  and  C_3
REMARK    3  A    between atoms: C_3  and  C_4
REMARK    4  A    between atoms: C_4  and  C_5
REMARK    5  A    between atoms: C_8  and  C_9
REMARK    6  A    between atoms: N_11  and  C_12
REMARK    7  A    between atoms: C_12  and  C_13
REMARK    8  A    between atoms: N_21  and  C_22
REMARK    9  A    between atoms: C_22  and  C_23
REMARK   10  A    between atoms: C_26  and  C_27
REMARK   11  A    between atoms: C_32  and  C_33
REMARK   12  A    between atoms: C_33  and  O_35
REMARK                            x       y       z     vdW  Elec       q    Type
REMARK                         _______ _______ _______ _____ _____    ______ ____
ROOT
ATOM      1  C   UNL     1       2.322   4.204  18.430  0.00  0.00    +0.000 A 
ATOM      2  C   UNL     1       2.507   3.394  17.369  0.00  0.00    +0.000 A 
ATOM      3  C   UNL     1       3.673   3.477  16.542  0.00  0.00    +0.000 A 
ATOM      4  C   UNL     1       4.657   4.346  16.809  0.00  0.00    +0.000 A 
ATOM      5  C   UNL     1       4.518   5.234  18.002  0.00  0.00    +0.000 A 
ATOM      6  O   UNL     1       5.423   6.029  18.270  0.00  0.00    +0.000 OA
ATOM      7  N   UNL     1       3.326   5.138  18.760  0.00  0.00    +0.000 N 
ENDROOT
BRANCH   4   8
ATOM      8  C   UNL     1       5.815   4.360  15.862  0.00  0.00    +0.000 C 
ATOM      9  O   UNL     1       6.958   4.132  16.251  0.00  0.00    +0.000 OA
ATOM     10  N   UNL     1       5.520   4.632  14.555  0.00  0.00    +0.000 N 
ATOM     11  H   UNL     1       4.552   4.824  14.298  0.00  0.00    +0.000 HD
BRANCH  10  12
ATOM     12  C   UNL     1       6.535   4.729  13.537  0.00  0.00    +0.000 C 
BRANCH  12  13
ATOM     13  C   UNL     1       6.437   3.592  12.554  0.00  0.00    +0.000 A 
ATOM     14  C   UNL     1       5.187   3.051  12.208  0.00  0.00    +0.000 A 
ATOM     15  C   UNL     1       5.099   2.008  11.289  0.00  0.00    +0.000 A 
ATOM     16  C   UNL     1       6.251   1.481  10.712  0.00  0.00    +0.000 A 
ATOM     17  C   UNL     1       7.500   1.998  11.060  0.00  0.00    +0.000 A 
ATOM     18  C   UNL     1       7.594   3.033  11.981  0.00  0.00    +0.000 A 
ENDBRANCH  12  13
ENDBRANCH  10  12
ENDBRANCH   4   8
BRANCH   1  19
ATOM     19  C   UNL     1       1.044   4.014  19.223  0.00  0.00    +0.000 C 
BRANCH  19  20
ATOM     20  C   UNL     1       0.887   2.744  20.068  0.00  0.00    +0.000 C 
BRANCH  20  22
ATOM     21  C   UNL     1       2.921   2.442  21.501  0.00  0.00    +0.000 C 
ATOM     22  C   UNL     1       1.456   2.850  21.483  0.00  0.00    +0.000 C 
ENDBRANCH  20  22
ENDBRANCH  19  20
ENDBRANCH   1  19
BRANCH   7  23
ATOM     23  C   UNL     1       3.208   6.113  19.858  0.00  0.00    +0.000 C 
BRANCH  23  24
ATOM     24  C   UNL     1       2.363   7.324  19.531  0.00  0.00    +0.000 A 
ATOM     25  C   UNL     1       2.405   7.911  18.260  0.00  0.00    +0.000 A 
ATOM     26  C   UNL     1       1.750   9.122  18.003  0.00  0.00    +0.000 A 
ATOM     27  C   UNL     1       1.104   9.821  19.032  0.00  0.00    +0.000 A 
ATOM     28  C   UNL     1       0.937   9.144  20.253  0.00  0.00    +0.000 A 
ATOM     29  C   UNL     1       1.538   7.906  20.493  0.00  0.00    +0.000 A 
BRANCH  27  30
ATOM     30  C   UNL     1       0.704  11.247  18.902  0.00  0.00    +0.000 A 
ATOM     31  C   UNL     1       1.652  12.248  19.237  0.00  0.00    +0.000 A 
ATOM     32  C   UNL     1       1.393  13.612  19.076  0.00  0.00    +0.000 A 
ATOM     33  C   UNL     1       0.164  14.030  18.594  0.00  0.00    +0.000 A 
ATOM     34  C   UNL     1      -0.798  13.079  18.265  0.00  0.00    +0.000 A 
ATOM     35  C   UNL     1      -0.544  11.697  18.396  0.00  0.00    +0.000 A 
BRANCH  35  36
ATOM     36  C   UNL     1      -1.693  10.846  17.957  0.00  0.00    +0.000 C 
ATOM     37  O   UNL     1      -2.757  10.842  18.563  0.00  0.00    +0.000 OA
BRANCH  36  38
ATOM     38  O   UNL     1      -1.534  10.176  16.800  0.00  0.00    +0.000 OA
ATOM     39  H   UNL     1      -0.840   9.493  16.792  0.00  0.00    +0.000 HD
ENDBRANCH  36  38
ENDBRANCH  35  36
ENDBRANCH  27  30
ENDBRANCH  23  24
ENDBRANCH   7  23
TORSDOF 11
ENDMDL
MODEL 2
REMARK VINA RESULT:      -8.7      1.321      2.106
REMARK  Name = 
REMARK  12 active torsions:
REMARK  status: ('A' for Active; 'I' for Inactive)
REMARK    1  A    between atoms: C_1  and  C_2
REMARK    2  A    between atoms: C_2  and  C_3
REMARK    3  A    between atoms: C_3  and  C_4
REMARK    4  A    between atoms: C_4  and  C_5
REMARK    5  A    between atoms: C_8  and  C_9
REMARK    6  A    between atoms: N_11  and  C_12
REMARK    7  A    between atoms: C_12  and  C_13
REMARK    8  A    between atoms: N_21  and  C_22
REMARK    9  A    between atoms: C_22  and  C_23
REMARK   10  A    between atoms: C_26  and  C_27
REMARK   11  A    between atoms: C_32  and  C_33
REMARK   12  A    between atoms: C_33  and  O_35
REMARK                            x       y       z     vdW  Elec       q    Type
REMARK                         _______ _______ _______ _____ _____    ______ ____
ROOT
ATOM      1  C   UNL     1       2.399   4.324  18.415  0.00  0.00    +0.000 A 
ATOM      2  C   UNL     1       2.556   3.509  17.353  0.00  0.00    +0.000 A 
ATOM      3  C   UNL     1       3.718   3.562  16.518  0.00  0.00    +0.000 A 
ATOM      4  C   UNL     1       4.725   4.406  16.777  0.00  0.00    +0.000 A 
ATOM      5  C   UNL     1       4.617   5.298  17.970  0.00  0.00    +0.000 A 
ATOM      6  O   UNL     1       5.544   6.070  18.229  0.00  0.00    +0.000 OA
ATOM      7  N   UNL     1       3.429   5.233  18.736  0.00  0.00    +0.000 N 
ENDROOT
BRANCH   4   8
ATOM      8  C   UNL     1       5.877   4.390  15.821  0.00  0.00    +0.000 C 
ATOM      9  O   UNL     1       7.015   4.124  16.200  0.00  0.00    +0.000 OA
ATOM     10  N   UNL     1       5.580   4.678  14.518  0.00  0.00    +0.000 N 
ATOM     11  H   UNL     1       4.617   4.901  14.269  0.00  0.00    +0.000 HD
BRANCH  10  12
ATOM     12  C   UNL     1       6.591   4.750  13.493  0.00  0.00    +0.000 C 
BRANCH  12  13
ATOM     13  C   UNL     1       6.473   3.602  12.526  0.00  0.00    +0.000 A 
ATOM     14  C   UNL     1       7.617   3.050  11.926  0.00  0.00    +0.000 A 
ATOM     15  C   UNL     1       7.506   1.980  11.043  0.00  0.00    +0.000 A 
ATOM     16  C   UNL     1       6.256   1.450  10.735  0.00  0.00    +0.000 A 
ATOM     17  C   UNL     1       5.109   2.000  11.310  0.00  0.00    +0.000 A 
ATOM     18  C   UNL     1       5.214   3.072  12.187  0.00  0.00    +0.000 A 
ENDBRANCH  12  13
ENDBRANCH  10  12
ENDBRANCH   4   8
BRANCH   1  19
ATOM     19  C   UNL     1       1.122   4.167  19.217  0.00  0.00    +0.000 C 
BRANCH  19  20
ATOM     20  C   UNL     1       0.868   2.838  19.937  0.00  0.00    +0.000 C 
BRANCH  20  22
ATOM     21  C   UNL     1       2.771   2.611  21.552  0.00  0.00    +0.000 C 
ATOM     22  C   UNL     1       1.273   2.828  21.411  0.00  0.00    +0.000 C 
ENDBRANCH  20  22
ENDBRANCH  19  20
ENDBRANCH   1  19
BRANCH   7  23
ATOM     23  C   UNL     1       3.343   6.212  19.833  0.00  0.00    +0.000 C 
BRANCH  23  24
ATOM     24  C   UNL     1       2.481   7.418  19.530  0.00  0.00    +0.000 A 
ATOM     25  C   UNL     1       1.664   7.986  20.516  0.00  0.00    +0.000 A 
ATOM     26  C   UNL     1       0.748   8.997  20.198  0.00  0.00    +0.000 A 
ATOM     27  C   UNL     1       0.565   9.409  18.871  0.00  0.00    +0.000 A 
ATOM     28  C   UNL     1       1.500   8.946  17.928  0.00  0.00    +0.000 A 
ATOM     29  C   UNL     1       2.455   7.981  18.255  0.00  0.00    +0.000 A 
BRANCH  27  30
ATOM     30  C   UNL     1      -0.611  10.207  18.436  0.00  0.00    +0.000 A 
ATOM     31  C   UNL     1      -1.371   9.742  17.333  0.00  0.00    +0.000 A 
ATOM     32  C   UNL     1      -2.535  10.384  16.898  0.00  0.00    +0.000 A 
ATOM     33  C   UNL     1      -2.971  11.531  17.538  0.00  0.00    +0.000 A 
ATOM     34  C   UNL     1      -2.246  12.027  18.618  0.00  0.00    +0.000 A 
ATOM     35  C   UNL     1      -1.084  11.377  19.087  0.00  0.00    +0.000 A 
BRANCH  35  36
ATOM     36  C   UNL     1      -0.475  12.051  20.275  0.00  0.00    +0.000 C 
ATOM     37  O   UNL     1      -0.927  11.895  21.402  0.00  0.00    +0.000 OA
BRANCH  36  38
ATOM     38  O   UNL     1       0.658  12.744  20.055  0.00  0.00    +0.000 OA
ATOM     39  H   UNL     1       0.861  13.450  20.694  0.00  0.00    +0.000 HD
ENDBRANCH  36  38
ENDBRANCH  35  36
ENDBRANCH  27  30
ENDBRANCH  23  24
ENDBRANCH   7  23
TORSDOF 11
ENDMDL
MODEL 3
REMARK VINA RESULT:      -8.3      1.360      1.738
REMARK  Name = 
REMARK  12 active torsions:
REMARK  status: ('A' for Active; 'I' for Inactive)
REMARK    1  A    between atoms: C_1  and  C_2
REMARK    2  A    between atoms: C_2  and  C_3
REMARK    3  A    between atoms: C_3  and  C_4
REMARK    4  A    between atoms: C_4  and  C_5
REMARK    5  A    between atoms: C_8  and  C_9
REMARK    6  A    between atoms: N_11  and  C_12
REMARK    7  A    between atoms: C_12  and  C_13
REMARK    8  A    between atoms: N_21  and  C_22
REMARK    9  A    between atoms: C_22  and  C_23
REMARK   10  A    between atoms: C_26  and  C_27
REMARK   11  A    between atoms: C_32  and  C_33
REMARK   12  A    between atoms: C_33  and  O_35
REMARK                            x       y       z     vdW  Elec       q    Type
REMARK                         _______ _______ _______ _____ _____    ______ ____
ROOT
ATOM      1  C   UNL     1       2.550   4.513  18.407  0.00  0.00    +0.000 A 
ATOM      2  C   UNL     1       2.663   3.608  17.415  0.00  0.00    +0.000 A 
ATOM      3  C   UNL     1       3.788   3.585  16.530  0.00  0.00    +0.000 A 
ATOM      4  C   UNL     1       4.804   4.447  16.671  0.00  0.00    +0.000 A 
ATOM      5  C   UNL     1       4.745   5.441  17.785  0.00  0.00    +0.000 A 
ATOM      6  O   UNL     1       5.681   6.231  17.937  0.00  0.00    +0.000 OA
ATOM      7  N   UNL     1       3.590   5.445  18.603  0.00  0.00    +0.000 N 
ENDROOT
BRANCH   4   8
ATOM      8  C   UNL     1       5.915   4.345  15.673  0.00  0.00    +0.000 C 
ATOM      9  O   UNL     1       7.002   3.861  15.978  0.00  0.00    +0.000 OA
ATOM     10  N   UNL     1       5.639   4.812  14.418  0.00  0.00    +0.000 N 
ATOM     11  H   UNL     1       4.720   5.212  14.231  0.00  0.00    +0.000 HD
BRANCH  10  12
ATOM     12  C   UNL     1       6.623   4.826  13.365  0.00  0.00    +0.000 C 
BRANCH  12  13
ATOM     13  C   UNL     1       6.483   3.624  12.468  0.00  0.00    +0.000 A 
ATOM     14  C   UNL     1       5.219   3.076  12.198  0.00  0.00    +0.000 A 
ATOM     15  C   UNL     1       5.092   1.972  11.357  0.00  0.00    +0.000 A 
ATOM     16  C   UNL     1       6.220   1.394  10.783  0.00  0.00    +0.000 A 
ATOM     17  C   UNL     1       7.485   1.919  11.057  0.00  0.00    +0.000 A 
ATOM     18  C   UNL     1       7.617   3.015  11.900  0.00  0.00    +0.000 A 
ENDBRANCH  12  13
ENDBRANCH  10  12
ENDBRANCH   4   8
BRANCH   1  19
ATOM     19  C   UNL     1       1.308   4.430  19.272  0.00  0.00    +0.000 C 
BRANCH  19  20
ATOM     20  C   UNL     1       0.807   3.046  19.704  0.00  0.00    +0.000 C 
BRANCH  20  22
ATOM     21  C   UNL     1       2.125   3.373  21.811  0.00  0.00    +0.000 C 
ATOM     22  C   UNL     1       1.667   2.365  20.769  0.00  0.00    +0.000 C 
ENDBRANCH  20  22
ENDBRANCH  19  20
ENDBRANCH   1  19
BRANCH   7  23
ATOM     23  C   UNL     1       3.549   6.516  19.613  0.00  0.00    +0.000 C 
BRANCH  23  24
ATOM     24  C   UNL     1       2.450   7.535  19.401  0.00  0.00    +0.000 A 
ATOM     25  C   UNL     1       2.232   8.108  18.142  0.00  0.00    +0.000 A 
ATOM     26  C   UNL     1       1.327   9.163  17.977  0.00  0.00    +0.000 A 
ATOM     27  C   UNL     1       0.677   9.731  19.082  0.00  0.00    +0.000 A 
ATOM     28  C   UNL     1       0.785   9.043  20.305  0.00  0.00    +0.000 A 
ATOM     29  C   UNL     1       1.642   7.950  20.458  0.00  0.00    +0.000 A 
BRANCH  27  30
ATOM     30  C   UNL     1      -0.008  11.048  19.018  0.00  0.00    +0.000 A 
ATOM     31  C   UNL     1      -1.408  11.093  19.239  0.00  0.00    +0.000 A 
ATOM     32  C   UNL     1      -2.126  12.292  19.273  0.00  0.00    +0.000 A 
ATOM     33  C   UNL     1      -1.473  13.494  19.064  0.00  0.00    +0.000 A 
ATOM     34  C   UNL     1      -0.100  13.493  18.831  0.00  0.00    +0.000 A 
ATOM     35  C   UNL     1       0.644  12.294  18.821  0.00  0.00    +0.000 A 
BRANCH  35  36
ATOM     36  C   UNL     1       2.106  12.514  18.588  0.00  0.00    +0.000 C 
ATOM     37  O   UNL     1       2.839  12.939  19.471  0.00  0.00    +0.000 OA
BRANCH  36  38
ATOM     38  O   UNL     1       2.588  12.115  17.396  0.00  0.00    +0.000 OA
ATOM     39  H   UNL     1       2.651  11.153  17.259  0.00  0.00    +0.000 HD
ENDBRANCH  36  38
ENDBRANCH  35  36
ENDBRANCH  27  30
ENDBRANCH  23  24
ENDBRANCH   7  23
TORSDOF 11
ENDMDL
MODEL 4
REMARK VINA RESULT:      -8.3      3.712      9.951
REMARK  Name = 
REMARK  12 active torsions:
REMARK  status: ('A' for Active; 'I' for Inactive)
REMARK    1  A    between atoms: C_1  and  C_2
REMARK    2  A    between atoms: C_2  and  C_3
REMARK    3  A    between atoms: C_3  and  C_4
REMARK    4  A    between atoms: C_4  and  C_5
REMARK    5  A    between atoms: C_8  and  C_9
REMARK    6  A    between atoms: N_11  and  C_12
REMARK    7  A    between atoms: C_12  and  C_13
REMARK    8  A    between atoms: N_21  and  C_22
REMARK    9  A    between atoms: C_22  and  C_23
REMARK   10  A    between atoms: C_26  and  C_27
REMARK   11  A    between atoms: C_32  and  C_33
REMARK   12  A    between atoms: C_33  and  O_35
REMARK                            x       y       z     vdW  Elec       q    Type
REMARK                         _______ _______ _______ _____ _____    ______ ____
ROOT
ATOM      1  C   UNL     1      -1.175  11.427  18.689  0.00  0.00    +0.000 A 
ATOM      2  C   UNL     1      -1.264  12.676  18.191  0.00  0.00    +0.000 A 
ATOM      3  C   UNL     1      -0.377  13.723  18.601  0.00  0.00    +0.000 A 
ATOM      4  C   UNL     1       0.610  13.498  19.478  0.00  0.00    +0.000 A 
ATOM      5  C   UNL     1       0.776  12.117  20.024  0.00  0.00    +0.000 A 
ATOM      6  O   UNL     1       1.690  11.891  20.821  0.00  0.00    +0.000 OA
ATOM      7  N   UNL     1      -0.153  11.131  19.616  0.00  0.00    +0.000 N 
ENDROOT
BRANCH   4   8
ATOM      8  C   UNL     1       1.458  14.673  19.851  0.00  0.00    +0.000 C 
ATOM      9  O   UNL     1       1.473  15.108  21.000  0.00  0.00    +0.000 OA
ATOM     10  N   UNL     1       2.206  15.217  18.845  0.00  0.00    +0.000 N 
ATOM     11  H   UNL     1       2.140  14.818  17.909  0.00  0.00    +0.000 HD
BRANCH  10  12
ATOM     12  C   UNL     1       3.032  16.382  19.038  0.00  0.00    +0.000 C 
BRANCH  12  13
ATOM     13  C   UNL     1       4.495  16.041  18.930  0.00  0.00    +0.000 A 
ATOM     14  C   UNL     1       5.436  16.644  19.782  0.00  0.00    +0.000 A 
ATOM     15  C   UNL     1       6.786  16.316  19.687  0.00  0.00    +0.000 A 
ATOM     16  C   UNL     1       7.221  15.394  18.740  0.00  0.00    +0.000 A 
ATOM     17  C   UNL     1       6.298  14.801  17.875  0.00  0.00    +0.000 A 
ATOM     18  C   UNL     1       4.951  15.129  17.961  0.00  0.00    +0.000 A 
ENDBRANCH  12  13
ENDBRANCH  10  12
ENDBRANCH   4   8
BRANCH   1  19
ATOM     19  C   UNL     1      -2.174  10.410  18.172  0.00  0.00    +0.000 C 
BRANCH  19  20
ATOM     20  C   UNL     1      -2.086   9.976  16.704  0.00  0.00    +0.000 C 
BRANCH  20  22
ATOM     21  C   UNL     1      -3.109  10.057  14.417  0.00  0.00    +0.000 C 
ATOM     22  C   UNL     1      -2.979  10.773  15.753  0.00  0.00    +0.000 C 
ENDBRANCH  20  22
ENDBRANCH  19  20
ENDBRANCH   1  19
BRANCH   7  23
ATOM     23  C   UNL     1       0.003   9.821  20.271  0.00  0.00    +0.000 C 
BRANCH  23  24
ATOM     24  C   UNL     1       1.113   8.965  19.701  0.00  0.00    +0.000 A 
ATOM     25  C   UNL     1       1.578   9.163  18.395  0.00  0.00    +0.000 A 
ATOM     26  C   UNL     1       2.489   8.273  17.811  0.00  0.00    +0.000 A 
ATOM     27  C   UNL     1       2.894   7.115  18.487  0.00  0.00    +0.000 A 
ATOM     28  C   UNL     1       2.545   7.018  19.846  0.00  0.00    +0.000 A 
ATOM     29  C   UNL     1       1.685   7.938  20.450  0.00  0.00    +0.000 A 
BRANCH  27  30
ATOM     30  C   UNL     1       3.566   5.981  17.800  0.00  0.00    +0.000 A 
ATOM     31  C   UNL     1       4.890   6.167  17.327  0.00  0.00    +0.000 A 
ATOM     32  C   UNL     1       5.629   5.137  16.736  0.00  0.00    +0.000 A 
ATOM     33  C   UNL     1       5.061   3.885  16.575  0.00  0.00    +0.000 A 
ATOM     34  C   UNL     1       3.759   3.665  17.015  0.00  0.00    +0.000 A 
ATOM     35  C   UNL     1       3.009   4.685  17.638  0.00  0.00    +0.000 A 
BRANCH  35  36
ATOM     36  C   UNL     1       1.649   4.233  18.066  0.00  0.00    +0.000 C 
ATOM     37  O   UNL     1       1.413   3.919  19.226  0.00  0.00    +0.000 OA
BRANCH  36  38
ATOM     38  O   UNL     1       0.677   4.298  17.138  0.00  0.00    +0.000 OA
ATOM     39  H   UNL     1      -0.198   3.965  17.407  0.00  0.00    +0.000 HD
ENDBRANCH  36  38
ENDBRANCH  35  36
ENDBRANCH  27  30
ENDBRANCH  23  24
ENDBRANCH   7  23
TORSDOF 11
ENDMDL
MODEL 5
REMARK VINA RESULT:      -8.2      2.884      5.518
REMARK  Name = 
REMARK  12 active torsions:
REMARK  status: ('A' for Active; 'I' for Inactive)
REMARK    1  A    between atoms: C_1  and  C_2
REMARK    2  A    between atoms: C_2  and  C_3
REMARK    3  A    between atoms: C_3  and  C_4
REMARK    4  A    between atoms: C_4  and  C_5
REMARK    5  A    between atoms: C_8  and  C_9
REMARK    6  A    between atoms: N_11  and  C_12
REMARK    7  A    between atoms: C_12  and  C_13
REMARK    8  A    between atoms: N_21  and  C_22
REMARK    9  A    between atoms: C_22  and  C_23
REMARK   10  A    between atoms: C_26  and  C_27
REMARK   11  A    between atoms: C_32  and  C_33
REMARK   12  A    between atoms: C_33  and  O_35
REMARK                            x       y       z     vdW  Elec       q    Type
REMARK                         _______ _______ _______ _____ _____    ______ ____
ROOT
ATOM      1  C   UNL     1       1.186   9.114  20.642  0.00  0.00    +0.000 A 
ATOM      2  C   UNL     1       1.372   7.910  21.217  0.00  0.00    +0.000 A 
ATOM      3  C   UNL     1       1.847   6.779  20.478  0.00  0.00    +0.000 A 
ATOM      4  C   UNL     1       2.163   6.877  19.180  0.00  0.00    +0.000 A 
ATOM      5  C   UNL     1       2.016   8.203  18.509  0.00  0.00    +0.000 A 
ATOM      6  O   UNL     1       2.318   8.312  17.318  0.00  0.00    +0.000 OA
ATOM      7  N   UNL     1       1.504   9.276  19.277  0.00  0.00    +0.000 N 
ENDROOT
BRANCH   4   8
ATOM      8  C   UNL     1       2.624   5.623  18.505  0.00  0.00    +0.000 C 
ATOM      9  O   UNL     1       1.900   5.022  17.714  0.00  0.00    +0.000 OA
ATOM     10  N   UNL     1       3.887   5.203  18.818  0.00  0.00    +0.000 N 
ATOM     11  H   UNL     1       4.433   5.739  19.490  0.00  0.00    +0.000 HD
BRANCH  10  12
ATOM     12  C   UNL     1       4.450   3.987  18.287  0.00  0.00    +0.000 C 
BRANCH  12  13
ATOM     13  C   UNL     1       5.330   4.265  17.096  0.00  0.00    +0.000 A 
ATOM     14  C   UNL     1       4.816   4.181  15.791  0.00  0.00    +0.000 A 
ATOM     15  C   UNL     1       5.629   4.452  14.693  0.00  0.00    +0.000 A 
ATOM     16  C   UNL     1       6.964   4.798  14.876  0.00  0.00    +0.000 A 
ATOM     17  C   UNL     1       7.492   4.868  16.167  0.00  0.00    +0.000 A 
ATOM     18  C   UNL     1       6.688   4.592  17.265  0.00  0.00    +0.000 A 
ENDBRANCH  12  13
ENDBRANCH  10  12
ENDBRANCH   4   8
BRANCH   1  19
ATOM     19  C   UNL     1       0.679  10.229  21.535  0.00  0.00    +0.000 C 
BRANCH  19  20
ATOM     20  C   UNL     1      -0.251   9.869  22.700  0.00  0.00    +0.000 C 
BRANCH  20  22
ATOM     21  C   UNL     1      -0.811  12.305  22.513  0.00  0.00    +0.000 C 
ATOM     22  C   UNL     1      -1.254  10.962  23.072  0.00  0.00    +0.000 C 
ENDBRANCH  20  22
ENDBRANCH  19  20
ENDBRANCH   1  19
BRANCH   7  23
ATOM     23  C   UNL     1       1.285  10.527  18.530  0.00  0.00    +0.000 C 
BRANCH  23  24
ATOM     24  C   UNL     1      -0.128  11.062  18.605  0.00  0.00    +0.000 A 
ATOM     25  C   UNL     1      -0.373  12.409  18.895  0.00  0.00    +0.000 A 
ATOM     26  C   UNL     1      -1.676  12.872  19.123  0.00  0.00    +0.000 A 
ATOM     27  C   UNL     1      -2.759  11.983  19.149  0.00  0.00    +0.000 A 
ATOM     28  C   UNL     1      -2.516  10.672  18.700  0.00  0.00    +0.000 A 
ATOM     29  C   UNL     1      -1.225  10.223  18.413  0.00  0.00    +0.000 A 
BRANCH  27  30
ATOM     30  C   UNL     1      -4.082  12.349  19.720  0.00  0.00    +0.000 A 
ATOM     31  C   UNL     1      -4.141  12.765  21.075  0.00  0.00    +0.000 A 
ATOM     32  C   UNL     1      -5.325  13.199  21.677  0.00  0.00    +0.000 A 
ATOM     33  C   UNL     1      -6.504  13.212  20.951  0.00  0.00    +0.000 A 
ATOM     34  C   UNL     1      -6.491  12.801  19.622  0.00  0.00    +0.000 A 
ATOM     35  C   UNL     1      -5.299  12.385  18.991  0.00  0.00    +0.000 A 
BRANCH  35  36
ATOM     36  C   UNL     1      -5.495  12.017  17.554  0.00  0.00    +0.000 C 
ATOM     37  O   UNL     1      -5.724  12.864  16.700  0.00  0.00    +0.000 OA
BRANCH  36  38
ATOM     38  O   UNL     1      -5.295  10.724  17.235  0.00  0.00    +0.000 OA
ATOM     39  H   UNL     1      -5.228  10.522  16.284  0.00  0.00    +0.000 HD
ENDBRANCH  36  38
ENDBRANCH  35  36
ENDBRANCH  27  30
ENDBRANCH  23  24
ENDBRANCH   7  23
TORSDOF 11
ENDMDL
MODEL 6
REMARK VINA RESULT:      -8.1      4.347      9.341
REMARK  Name = 
REMARK  12 active torsions:
REMARK  status: ('A' for Active; 'I' for Inactive)
REMARK    1  A    between atoms: C_1  and  C_2
REMARK    2  A    between atoms: C_2  and  C_3
REMARK    3  A    between atoms: C_3  and  C_4
REMARK    4  A    between atoms: C_4  and  C_5
REMARK    5  A    between atoms: C_8  and  C_9
REMARK    6  A    between atoms: N_11  and  C_12
REMARK    7  A    between atoms: C_12  and  C_13
REMARK    8  A    between atoms: N_21  and  C_22
REMARK    9  A    between atoms: C_22  and  C_23
REMARK   10  A    between atoms: C_26  and  C_27
REMARK   11  A    between atoms: C_32  and  C_33
REMARK   12  A    between atoms: C_33  and  O_35
REMARK                            x       y       z     vdW  Elec       q    Type
REMARK                         _______ _______ _______ _____ _____    ______ ____
ROOT
ATOM      1  C   UNL     1       0.525  12.295  20.323  0.00  0.00    +0.000 A 
ATOM      2  C   UNL     1       0.991  13.380  20.971  0.00  0.00    +0.000 A 
ATOM      3  C   UNL     1       2.083  14.157  20.467  0.00  0.00    +0.000 A 
ATOM      4  C   UNL     1       2.673  13.857  19.302  0.00  0.00    +0.000 A 
ATOM      5  C   UNL     1       2.161  12.690  18.525  0.00  0.00    +0.000 A 
ATOM      6  O   UNL     1       2.684  12.412  17.442  0.00  0.00    +0.000 OA
ATOM      7  N   UNL     1       1.106  11.933  19.090  0.00  0.00    +0.000 N 
ENDROOT
BRANCH   4   8
ATOM      8  C   UNL     1       3.821  14.725  18.889  0.00  0.00    +0.000 C 
ATOM      9  O   UNL     1       3.806  15.937  19.087  0.00  0.00    +0.000 OA
ATOM     10  N   UNL     1       4.871  14.086  18.292  0.00  0.00    +0.000 N 
ATOM     11  H   UNL     1       4.818  13.079  18.145  0.00  0.00    +0.000 HD
BRANCH  10  12
ATOM     12  C   UNL     1       6.025  14.793  17.795  0.00  0.00    +0.000 C 
BRANCH  12  13
ATOM     13  C   UNL     1       7.298  14.047  18.098  0.00  0.00    +0.000 A 
ATOM     14  C   UNL     1       8.142  14.464  19.140  0.00  0.00    +0.000 A 
ATOM     15  C   UNL     1       9.311  13.764  19.425  0.00  0.00    +0.000 A 
ATOM     16  C   UNL     1       9.663  12.648  18.673  0.00  0.00    +0.000 A 
ATOM     17  C   UNL     1       8.842  12.232  17.623  0.00  0.00    +0.000 A 
ATOM     18  C   UNL     1       7.678  12.931  17.330  0.00  0.00    +0.000 A 
ENDBRANCH  12  13
ENDBRANCH  10  12
ENDBRANCH   4   8
BRANCH   1  19
ATOM     19  C   UNL     1      -0.636  11.560  20.963  0.00  0.00    +0.000 C 
BRANCH  19  20
ATOM     20  C   UNL     1      -0.934  11.811  22.447  0.00  0.00    +0.000 C 
BRANCH  20  22
ATOM     21  C   UNL     1      -0.110   9.596  23.280  0.00  0.00    +0.000 C 
ATOM     22  C   UNL     1      -1.289  10.556  23.244  0.00  0.00    +0.000 C 
ENDBRANCH  20  22
ENDBRANCH  19  20
ENDBRANCH   1  19
BRANCH   7  23
ATOM     23  C   UNL     1       0.721  10.736  18.323  0.00  0.00    +0.000 C 
BRANCH  23  24
ATOM     24  C   UNL     1       1.395   9.459  18.776  0.00  0.00    +0.000 A 
ATOM     25  C   UNL     1       2.039   8.620  17.859  0.00  0.00    +0.000 A 
ATOM     26  C   UNL     1       2.522   7.364  18.247  0.00  0.00    +0.000 A 
ATOM     27  C   UNL     1       2.300   6.878  19.542  0.00  0.00    +0.000 A 
ATOM     28  C   UNL     1       1.797   7.792  20.486  0.00  0.00    +0.000 A 
ATOM     29  C   UNL     1       1.370   9.069  20.114  0.00  0.00    +0.000 A 
BRANCH  27  30
ATOM     30  C   UNL     1       2.474   5.446  19.901  0.00  0.00    +0.000 A 
ATOM     31  C   UNL     1       1.391   4.769  20.518  0.00  0.00    +0.000 A 
ATOM     32  C   UNL     1       1.435   3.405  20.824  0.00  0.00    +0.000 A 
ATOM     33  C   UNL     1       2.574   2.670  20.544  0.00  0.00    +0.000 A 
ATOM     34  C   UNL     1       3.663   3.301  19.949  0.00  0.00    +0.000 A 
ATOM     35  C   UNL     1       3.626   4.670  19.609  0.00  0.00    +0.000 A 
BRANCH  35  36
ATOM     36  C   UNL     1       4.883   5.144  18.950  0.00  0.00    +0.000 C 
ATOM     37  O   UNL     1       5.850   5.514  19.602  0.00  0.00    +0.000 OA
BRANCH  36  38
ATOM     38  O   UNL     1       4.932   5.033  17.609  0.00  0.00    +0.000 OA
ATOM     39  H   UNL     1       5.759   4.676  17.238  0.00  0.00    +0.000 HD
ENDBRANCH  36  38
ENDBRANCH  35  36
ENDBRANCH  27  30
ENDBRANCH  23  24
ENDBRANCH   7  23
TORSDOF 11
ENDMDL
MODEL 7
REMARK VINA RESULT:      -8.1      3.882      9.856
REMARK  Name = 
REMARK  12 active torsions:
REMARK  status: ('A' for Active; 'I' for Inactive)
REMARK    1  A    between atoms: C_1  and  C_2
REMARK    2  A    between atoms: C_2  and  C_3
REMARK    3  A    between atoms: C_3  and  C_4
REMARK    4  A    between atoms: C_4  and  C_5
REMARK    5  A    between atoms: C_8  and  C_9
REMARK    6  A    between atoms: N_11  and  C_12
REMARK    7  A    between atoms: C_12  and  C_13
REMARK    8  A    between atoms: N_21  and  C_22
REMARK    9  A    between atoms: C_22  and  C_23
REMARK   10  A    between atoms: C_26  and  C_27
REMARK   11  A    between atoms: C_32  and  C_33
REMARK   12  A    between atoms: C_33  and  O_35
REMARK                            x       y       z     vdW  Elec       q    Type
REMARK                         _______ _______ _______ _____ _____    ______ ____
ROOT
ATOM      1  C   UNL     1      -0.665  12.032  19.024  0.00  0.00    +0.000 A 
ATOM      2  C   UNL     1      -0.723  13.229  18.408  0.00  0.00    +0.000 A 
ATOM      3  C   UNL     1       0.255  14.250  18.637  0.00  0.00    +0.000 A 
ATOM      4  C   UNL     1       1.297  14.047  19.454  0.00  0.00    +0.000 A 
ATOM      5  C   UNL     1       1.428  12.719  20.124  0.00  0.00    +0.000 A 
ATOM      6  O   UNL     1       2.392  12.512  20.867  0.00  0.00    +0.000 OA
ATOM      7  N   UNL     1       0.412  11.762  19.894  0.00  0.00    +0.000 N 
ENDROOT
BRANCH   4   8
ATOM      8  C   UNL     1       2.241  15.195  19.635  0.00  0.00    +0.000 C 
ATOM      9  O   UNL     1       1.870  16.248  20.149  0.00  0.00    +0.000 OA
ATOM     10  N   UNL     1       3.522  14.993  19.205  0.00  0.00    +0.000 N 
ATOM     11  H   UNL     1       3.764  14.100  18.777  0.00  0.00    +0.000 HD
BRANCH  10  12
ATOM     12  C   UNL     1       4.530  16.022  19.268  0.00  0.00    +0.000 C 
BRANCH  12  13
ATOM     13  C   UNL     1       5.911  15.430  19.379  0.00  0.00    +0.000 A 
ATOM     14  C   UNL     1       6.420  15.029  20.625  0.00  0.00    +0.000 A 
ATOM     15  C   UNL     1       7.692  14.471  20.722  0.00  0.00    +0.000 A 
ATOM     16  C   UNL     1       8.479  14.313  19.585  0.00  0.00    +0.000 A 
ATOM     17  C   UNL     1       7.992  14.724  18.343  0.00  0.00    +0.000 A 
ATOM     18  C   UNL     1       6.726  15.287  18.241  0.00  0.00    +0.000 A 
ENDBRANCH  12  13
ENDBRANCH  10  12
ENDBRANCH   4   8
BRANCH   1  19
ATOM     19  C   UNL     1      -1.762  11.038  18.695  0.00  0.00    +0.000 C 
BRANCH  19  20
ATOM     20  C   UNL     1      -2.456  11.138  17.331  0.00  0.00    +0.000 C 
BRANCH  20  22
ATOM     21  C   UNL     1      -2.953  10.112  15.098  0.00  0.00    +0.000 C 
ATOM     22  C   UNL     1      -2.371   9.869  16.482  0.00  0.00    +0.000 C 
ENDBRANCH  20  22
ENDBRANCH  19  20
ENDBRANCH   1  19
BRANCH   7  23
ATOM     23  C   UNL     1       0.546  10.515  20.666  0.00  0.00    +0.000 C 
BRANCH  23  24
ATOM     24  C   UNL     1       1.092   9.345  19.877  0.00  0.00    +0.000 A 
ATOM     25  C   UNL     1       1.472   8.159  20.516  0.00  0.00    +0.000 A 
ATOM     26  C   UNL     1       2.124   7.138  19.813  0.00  0.00    +0.000 A 
ATOM     27  C   UNL     1       2.490   7.310  18.471  0.00  0.00    +0.000 A 
ATOM     28  C   UNL     1       1.962   8.433  17.809  0.00  0.00    +0.000 A 
ATOM     29  C   UNL     1       1.257   9.425  18.495  0.00  0.00    +0.000 A 
BRANCH  27  30
ATOM     30  C   UNL     1       3.471   6.427  17.789  0.00  0.00    +0.000 A 
ATOM     31  C   UNL     1       4.669   7.003  17.295  0.00  0.00    +0.000 A 
ATOM     32  C   UNL     1       5.683   6.241  16.707  0.00  0.00    +0.000 A 
ATOM     33  C   UNL     1       5.526   4.873  16.568  0.00  0.00    +0.000 A 
ATOM     34  C   UNL     1       4.359   4.270  17.029  0.00  0.00    +0.000 A 
ATOM     35  C   UNL     1       3.338   5.020  17.650  0.00  0.00    +0.000 A 
BRANCH  35  36
ATOM     36  C   UNL     1       2.186   4.179  18.102  0.00  0.00    +0.000 C 
ATOM     37  O   UNL     1       2.195   3.609  19.185  0.00  0.00    +0.000 OA
BRANCH  36  38
ATOM     38  O   UNL     1       1.099   4.176  17.308  0.00  0.00    +0.000 OA
ATOM     39  H   UNL     1       0.876   3.325  16.889  0.00  0.00    +0.000 HD
ENDBRANCH  36  38
ENDBRANCH  35  36
ENDBRANCH  27  30
ENDBRANCH  23  24
ENDBRANCH   7  23
TORSDOF 11
ENDMDL
MODEL 8
REMARK VINA RESULT:      -8.1      3.768      9.935
REMARK  Name = 
REMARK  12 active torsions:
REMARK  status: ('A' for Active; 'I' for Inactive)
REMARK    1  A    between atoms: C_1  and  C_2
REMARK    2  A    between atoms: C_2  and  C_3
REMARK    3  A    between atoms: C_3  and  C_4
REMARK    4  A    between atoms: C_4  and  C_5
REMARK    5  A    between atoms: C_8  and  C_9
REMARK    6  A    between atoms: N_11  and  C_12
REMARK    7  A    between atoms: C_12  and  C_13
REMARK    8  A    between atoms: N_21  and  C_22
REMARK    9  A    between atoms: C_22  and  C_23
REMARK   10  A    between atoms: C_26  and  C_27
REMARK   11  A    between atoms: C_32  and  C_33
REMARK   12  A    between atoms: C_33  and  O_35
REMARK                            x       y       z     vdW  Elec       q    Type
REMARK                         _______ _______ _______ _____ _____    ______ ____
ROOT
ATOM      1  C   UNL     1      -0.806  11.827  18.962  0.00  0.00    +0.000 A 
ATOM      2  C   UNL     1      -0.982  12.980  18.286  0.00  0.00    +0.000 A 
ATOM      3  C   UNL     1      -0.032  14.049  18.345  0.00  0.00    +0.000 A 
ATOM      4  C   UNL     1       1.100  13.938  19.052  0.00  0.00    +0.000 A 
ATOM      5  C   UNL     1       1.362  12.661  19.781  0.00  0.00    +0.000 A 
ATOM      6  O   UNL     1       2.408  12.538  20.424  0.00  0.00    +0.000 OA
ATOM      7  N   UNL     1       0.369  11.654  19.722  0.00  0.00    +0.000 N 
ENDROOT
BRANCH   4   8
ATOM      8  C   UNL     1       2.006  15.129  19.060  0.00  0.00    +0.000 C 
ATOM      9  O   UNL     1       1.889  16.024  18.226  0.00  0.00    +0.000 OA
ATOM     10  N   UNL     1       2.953  15.158  20.045  0.00  0.00    +0.000 N 
ATOM     11  H   UNL     1       3.007  14.379  20.700  0.00  0.00    +0.000 HD
BRANCH  10  12
ATOM     12  C   UNL     1       3.928  16.214  20.151  0.00  0.00    +0.000 C 
BRANCH  12  13
ATOM     13  C   UNL     1       5.296  15.742  19.733  0.00  0.00    +0.000 A 
ATOM     14  C   UNL     1       5.577  15.466  18.384  0.00  0.00    +0.000 A 
ATOM     15  C   UNL     1       6.847  15.042  18.000  0.00  0.00    +0.000 A 
ATOM     16  C   UNL     1       7.850  14.876  18.950  0.00  0.00    +0.000 A 
ATOM     17  C   UNL     1       7.579  15.129  20.296  0.00  0.00    +0.000 A 
ATOM     18  C   UNL     1       6.312  15.546  20.686  0.00  0.00    +0.000 A 
ENDBRANCH  12  13
ENDBRANCH  10  12
ENDBRANCH   4   8
BRANCH   1  19
ATOM     19  C   UNL     1      -1.887  10.775  18.815  0.00  0.00    +0.000 C 
BRANCH  19  20
ATOM     20  C   UNL     1      -2.014  10.035  17.478  0.00  0.00    +0.000 C 
BRANCH  20  22
ATOM     21  C   UNL     1      -2.972  10.119  15.163  0.00  0.00    +0.000 C 
ATOM     22  C   UNL     1      -3.207  10.468  16.625  0.00  0.00    +0.000 C 
ENDBRANCH  20  22
ENDBRANCH  19  20
ENDBRANCH   1  19
BRANCH   7  23
ATOM     23  C   UNL     1       0.641  10.465  20.548  0.00  0.00    +0.000 C 
BRANCH  23  24
ATOM     24  C   UNL     1       1.182   9.279  19.778  0.00  0.00    +0.000 A 
ATOM     25  C   UNL     1       1.521   8.089  20.434  0.00  0.00    +0.000 A 
ATOM     26  C   UNL     1       2.169   7.050  19.753  0.00  0.00    +0.000 A 
ATOM     27  C   UNL     1       2.570   7.207  18.419  0.00  0.00    +0.000 A 
ATOM     28  C   UNL     1       2.082   8.336  17.738  0.00  0.00    +0.000 A 
ATOM     29  C   UNL     1       1.382   9.347  18.400  0.00  0.00    +0.000 A 
BRANCH  27  30
ATOM     30  C   UNL     1       3.549   6.299  17.766  0.00  0.00    +0.000 A 
ATOM     31  C   UNL     1       4.781   6.843  17.321  0.00  0.00    +0.000 A 
ATOM     32  C   UNL     1       5.793   6.054  16.763  0.00  0.00    +0.000 A 
ATOM     33  C   UNL     1       5.601   4.692  16.609  0.00  0.00    +0.000 A 
ATOM     34  C   UNL     1       4.400   4.122  17.022  0.00  0.00    +0.000 A 
ATOM     35  C   UNL     1       3.380   4.898  17.612  0.00  0.00    +0.000 A 
BRANCH  35  36
ATOM     36  C   UNL     1       2.188   4.089  18.016  0.00  0.00    +0.000 C 
ATOM     37  O   UNL     1       1.187   4.028  17.315  0.00  0.00    +0.000 OA
BRANCH  36  38
ATOM     38  O   UNL     1       2.320   3.345  19.130  0.00  0.00    +0.000 OA
ATOM     39  H   UNL     1       1.567   3.359  19.747  0.00  0.00    +0.000 HD
ENDBRANCH  36  38
ENDBRANCH  35  36
ENDBRANCH  27  30
ENDBRANCH  23  24
ENDBRANCH   7  23
TORSDOF 11
ENDMDL
MODEL 9
REMARK VINA RESULT:      -8.0      3.780     10.077
REMARK  Name = 
REMARK  12 active torsions:
REMARK  status: ('A' for Active; 'I' for Inactive)
REMARK    1  A    between atoms: C_1  and  C_2
REMARK    2  A    between atoms: C_2  and  C_3
REMARK    3  A    between atoms: C_3  and  C_4
REMARK    4  A    between atoms: C_4  and  C_5
REMARK    5  A    between atoms: C_8  and  C_9
REMARK    6  A    between atoms: N_11  and  C_12
REMARK    7  A    between atoms: C_12  and  C_13
REMARK    8  A    between atoms: N_21  and  C_22
REMARK    9  A    between atoms: C_22  and  C_23
REMARK   10  A    between atoms: C_26  and  C_27
REMARK   11  A    between atoms: C_32  and  C_33
REMARK   12  A    between atoms: C_33  and  O_35
REMARK                            x       y       z     vdW  Elec       q    Type
REMARK                         _______ _______ _______ _____ _____    ______ ____
ROOT
ATOM      1  C   UNL     1      -0.803  11.571  18.722  0.00  0.00    +0.000 A 
ATOM      2  C   UNL     1      -0.810  12.750  18.071  0.00  0.00    +0.000 A 
ATOM      3  C   UNL     1       0.074  13.820  18.425  0.00  0.00    +0.000 A 
ATOM      4  C   UNL     1       0.977  13.683  19.405  0.00  0.00    +0.000 A 
ATOM      5  C   UNL     1       1.052  12.378  20.127  0.00  0.00    +0.000 A 
ATOM      6  O   UNL     1       1.889  12.233  21.021  0.00  0.00    +0.000 OA
ATOM      7  N   UNL     1       0.127  11.370  19.763  0.00  0.00    +0.000 N 
ENDROOT
BRANCH   4   8
ATOM      8  C   UNL     1       1.829  14.877  19.703  0.00  0.00    +0.000 C 
ATOM      9  O   UNL     1       1.806  15.416  20.807  0.00  0.00    +0.000 OA
ATOM     10  N   UNL     1       2.626  15.316  18.683  0.00  0.00    +0.000 N 
ATOM     11  H   UNL     1       2.590  14.833  17.786  0.00  0.00    +0.000 HD
BRANCH  10  12
ATOM     12  C   UNL     1       3.463  16.483  18.803  0.00  0.00    +0.000 C 
BRANCH  12  13
ATOM     13  C   UNL     1       4.909  16.149  18.541  0.00  0.00    +0.000 A 
ATOM     14  C   UNL     1       5.266  14.923  17.955  0.00  0.00    +0.000 A 
ATOM     15  C   UNL     1       6.602  14.624  17.702  0.00  0.00    +0.000 A 
ATOM     16  C   UNL     1       7.601  15.533  18.038  0.00  0.00    +0.000 A 
ATOM     17  C   UNL     1       7.262  16.748  18.636  0.00  0.00    +0.000 A 
ATOM     18  C   UNL     1       5.931  17.048  18.897  0.00  0.00    +0.000 A 
ENDBRANCH  12  13
ENDBRANCH  10  12
ENDBRANCH   4   8
BRANCH   1  19
ATOM     19  C   UNL     1      -1.790  10.521  18.250  0.00  0.00    +0.000 C 
BRANCH  19  20
ATOM     20  C   UNL     1      -2.868  10.930  17.239  0.00  0.00    +0.000 C 
BRANCH  20  22
ATOM     21  C   UNL     1      -4.761  11.777  18.647  0.00  0.00    +0.000 C 
ATOM     22  C   UNL     1      -4.302  10.676  17.704  0.00  0.00    +0.000 C 
ENDBRANCH  20  22
ENDBRANCH  19  20
ENDBRANCH   1  19
BRANCH   7  23
ATOM     23  C   UNL     1       0.186  10.148  20.584  0.00  0.00    +0.000 C 
BRANCH  23  24
ATOM     24  C   UNL     1       1.092   9.068  20.035  0.00  0.00    +0.000 A 
ATOM     25  C   UNL     1       1.507   9.087  18.698  0.00  0.00    +0.000 A 
ATOM     26  C   UNL     1       2.211   8.009  18.146  0.00  0.00    +0.000 A 
ATOM     27  C   UNL     1       2.444   6.846  18.893  0.00  0.00    +0.000 A 
ATOM     28  C   UNL     1       2.163   6.909  20.270  0.00  0.00    +0.000 A 
ATOM     29  C   UNL     1       1.516   8.010  20.837  0.00  0.00    +0.000 A 
BRANCH  27  30
ATOM     30  C   UNL     1       2.864   5.564  18.269  0.00  0.00    +0.000 A 
ATOM     31  C   UNL     1       1.877   4.574  18.032  0.00  0.00    +0.000 A 
ATOM     32  C   UNL     1       2.162   3.369  17.382  0.00  0.00    +0.000 A 
ATOM     33  C   UNL     1       3.454   3.098  16.966  0.00  0.00    +0.000 A 
ATOM     34  C   UNL     1       4.455   4.039  17.191  0.00  0.00    +0.000 A 
ATOM     35  C   UNL     1       4.178   5.272  17.820  0.00  0.00    +0.000 A 
BRANCH  35  36
ATOM     36  C   UNL     1       5.382   6.153  17.934  0.00  0.00    +0.000 C 
ATOM     37  O   UNL     1       5.537   7.125  17.207  0.00  0.00    +0.000 OA
BRANCH  36  38
ATOM     38  O   UNL     1       6.224   5.886  18.950  0.00  0.00    +0.000 OA
ATOM     39  H   UNL     1       7.078   5.486  18.707  0.00  0.00    +0.000 HD
ENDBRANCH  36  38
ENDBRANCH  35  36
ENDBRANCH  27  30
ENDBRANCH  23  24
ENDBRANCH   7  23
TORSDOF 11
ENDMDL
