MODEL 1
REMARK VINA RESULT:      -7.7      0.000      0.000
REMARK  Name = 
REMARK  6 active torsions:
REMARK  status: ('A' for Active; 'I' for Inactive)
REMARK    1  A    between atoms: C_1  and  O_2
REMARK    2  A    between atoms: O_2  and  C_3
REMARK    3  A    between atoms: C_6  and  C_7
REMARK    4  A    between atoms: N_9  and  C_10
REMARK    5  A    between atoms: C_23  and  O_24
REMARK    6  A    between atoms: O_24  and  C_25
REMARK                            x       y       z     vdW  Elec       q    Type
REMARK                         _______ _______ _______ _____ _____    ______ ____
ROOT
ATOM      1  C   UNL     1       1.483   9.258  18.694  0.00  0.00    +0.000 C 
ATOM      2  O   UNL     1       1.559   9.452  17.485  0.00  0.00    +0.000 OA
ATOM      3  N   UNL     1       2.019   8.154  19.337  0.00  0.00    +0.000 N 
ATOM      4  H   UNL     1       1.912   8.051  20.342  0.00  0.00    +0.000 HD
ENDROOT
BRANCH   3   5
ATOM      5  C   UNL     1       2.699   7.095  18.741  0.00  0.00    +0.000 A 
ATOM      6  C   UNL     1       3.535   7.199  17.699  0.00  0.00    +0.000 A 
ATOM      7  C   UNL     1       4.193   6.026  17.156  0.00  0.00    +0.000 A 
ATOM      8  C   UNL     1       5.252   6.127  16.251  0.00  0.00    +0.000 A 
ATOM      9  C   UNL     1       5.825   4.966  15.733  0.00  0.00    +0.000 A 
ATOM     10 CL   UNL     1       7.183   5.086  14.683  0.00  0.00    +0.000 Cl
ATOM     11  C   UNL     1       5.318   3.710  16.069  0.00  0.00    +0.000 A 
ATOM     12  C   UNL     1       4.261   3.607  16.976  0.00  0.00    +0.000 A 
ATOM     13  C   UNL     1       3.739   4.768  17.538  0.00  0.00    +0.000 A 
ATOM     14  O   UNL     1       2.794   4.635  18.569  0.00  0.00    +0.000 OA
ATOM     15  C   UNL     1       2.465   5.743  19.343  0.00  0.00    +0.000 A 
ATOM     16  O   UNL     1       1.934   5.636  20.446  0.00  0.00    +0.000 OA
ENDBRANCH   3   5
BRANCH   1  20
ATOM     17  C   UNL     1      -0.865  12.194  20.815  0.00  0.00    +0.000 A 
ATOM     18  C   UNL     1      -0.624  12.289  19.439  0.00  0.00    +0.000 A 
ATOM     19  C   UNL     1       0.150  11.328  18.791  0.00  0.00    +0.000 A 
ATOM     20  C   UNL     1       0.740  10.273  19.502  0.00  0.00    +0.000 A 
ATOM     21  C   UNL     1       0.568  10.229  20.888  0.00  0.00    +0.000 A 
ATOM     22  C   UNL     1      -0.221  11.189  21.554  0.00  0.00    +0.000 A 
BRANCH  17  24
ATOM     23  C   UNL     1      -3.089  12.764  21.402  0.00  0.00    +0.000 C 
ATOM     24  O   UNL     1      -1.697  13.085  21.439  0.00  0.00    +0.000 OA
ENDBRANCH  17  24
BRANCH  22  25
ATOM     25  O   UNL     1      -0.265  10.964  22.905  0.00  0.00    +0.000 OA
ATOM     26  C   UNL     1      -0.174   9.631  23.386  0.00  0.00    +0.000 C 
ENDBRANCH  22  25
ENDBRANCH   1  20
TORSDOF 4
ENDMDL
MODEL 2
REMARK VINA RESULT:      -7.6      0.918      1.895
REMARK  Name = 
REMARK  6 active torsions:
REMARK  status: ('A' for Active; 'I' for Inactive)
REMARK    1  A    between atoms: C_1  and  O_2
REMARK    2  A    between atoms: O_2  and  C_3
REMARK    3  A    between atoms: C_6  and  C_7
REMARK    4  A    between atoms: N_9  and  C_10
REMARK    5  A    between atoms: C_23  and  O_24
REMARK    6  A    between atoms: O_24  and  C_25
REMARK                            x       y       z     vdW  Elec       q    Type
REMARK                         _______ _______ _______ _____ _____    ______ ____
ROOT
ATOM      1  C   UNL     1       1.383   8.812  19.499  0.00  0.00    +0.000 C 
ATOM      2  O   UNL     1       1.477   9.170  18.329  0.00  0.00    +0.000 OA
ATOM      3  N   UNL     1       1.914   7.632  19.994  0.00  0.00    +0.000 N 
ATOM      4  H   UNL     1       1.793   7.393  20.973  0.00  0.00    +0.000 HD
ENDROOT
BRANCH   3   5
ATOM      5  C   UNL     1       2.608   6.666  19.269  0.00  0.00    +0.000 A 
ATOM      6  C   UNL     1       3.324   6.894  18.161  0.00  0.00    +0.000 A 
ATOM      7  C   UNL     1       4.010   5.809  17.484  0.00  0.00    +0.000 A 
ATOM      8  C   UNL     1       4.963   6.045  16.490  0.00  0.00    +0.000 A 
ATOM      9  C   UNL     1       5.565   4.964  15.847  0.00  0.00    +0.000 A 
ATOM     10 CL   UNL     1       6.798   5.251  14.680  0.00  0.00    +0.000 Cl
ATOM     11  C   UNL     1       5.189   3.655  16.150  0.00  0.00    +0.000 A 
ATOM     12  C   UNL     1       4.239   3.417  17.146  0.00  0.00    +0.000 A 
ATOM     13  C   UNL     1       3.692   4.500  17.828  0.00  0.00    +0.000 A 
ATOM     14  O   UNL     1       2.868   4.235  18.934  0.00  0.00    +0.000 OA
ATOM     15  C   UNL     1       2.537   5.268  19.805  0.00  0.00    +0.000 A 
ATOM     16  O   UNL     1       2.129   5.058  20.945  0.00  0.00    +0.000 OA
ENDBRANCH   3   5
BRANCH   1  20
ATOM     17  C   UNL     1      -0.661  11.270  22.399  0.00  0.00    +0.000 A 
ATOM     18  C   UNL     1      -0.449   9.902  22.604  0.00  0.00    +0.000 A 
ATOM     19  C   UNL     1       0.204   9.137  21.638  0.00  0.00    +0.000 A 
ATOM     20  C   UNL     1       0.624   9.706  20.426  0.00  0.00    +0.000 A 
ATOM     21  C   UNL     1       0.333  11.052  20.189  0.00  0.00    +0.000 A 
ATOM     22  C   UNL     1      -0.317  11.838  21.162  0.00  0.00    +0.000 A 
BRANCH  17  24
ATOM     23  C   UNL     1      -2.648  12.137  23.355  0.00  0.00    +0.000 C 
ATOM     24  O   UNL     1      -1.223  12.042  23.381  0.00  0.00    +0.000 OA
ENDBRANCH  17  24
BRANCH  22  25
ATOM     25  O   UNL     1      -0.502  13.127  20.735  0.00  0.00    +0.000 OA
ATOM     26  C   UNL     1      -0.925  13.358  19.398  0.00  0.00    +0.000 C 
ENDBRANCH  22  25
ENDBRANCH   1  20
TORSDOF 4
ENDMDL
MODEL 3
REMARK VINA RESULT:      -7.5      6.638      7.746
REMARK  Name = 
REMARK  6 active torsions:
REMARK  status: ('A' for Active; 'I' for Inactive)
REMARK    1  A    between atoms: C_1  and  O_2
REMARK    2  A    between atoms: O_2  and  C_3
REMARK    3  A    between atoms: C_6  and  C_7
REMARK    4  A    between atoms: N_9  and  C_10
REMARK    5  A    between atoms: C_23  and  O_24
REMARK    6  A    between atoms: O_24  and  C_25
REMARK                            x       y       z     vdW  Elec       q    Type
REMARK                         _______ _______ _______ _____ _____    ______ ____
ROOT
ATOM      1  C   UNL     1       8.456   9.294  18.337  0.00  0.00    +0.000 C 
ATOM      2  O   UNL     1       7.667   9.687  17.484  0.00  0.00    +0.000 OA
ATOM      3  N   UNL     1       8.573   7.971  18.734  0.00  0.00    +0.000 N 
ATOM      4  H   UNL     1       9.243   7.716  19.453  0.00  0.00    +0.000 HD
ENDROOT
BRANCH   3   5
ATOM      5  C   UNL     1       7.825   6.895  18.264  0.00  0.00    +0.000 A 
ATOM      6  C   UNL     1       7.387   6.744  17.008  0.00  0.00    +0.000 A 
ATOM      7  C   UNL     1       6.614   5.578  16.625  0.00  0.00    +0.000 A 
ATOM      8  C   UNL     1       6.364   5.264  15.288  0.00  0.00    +0.000 A 
ATOM      9  C   UNL     1       5.584   4.151  14.978  0.00  0.00    +0.000 A 
ATOM     10 CL   UNL     1       5.344   3.714  13.331  0.00  0.00    +0.000 Cl
ATOM     11  C   UNL     1       5.009   3.380  15.990  0.00  0.00    +0.000 A 
ATOM     12  C   UNL     1       5.260   3.690  17.328  0.00  0.00    +0.000 A 
ATOM     13  C   UNL     1       6.094   4.765  17.626  0.00  0.00    +0.000 A 
ATOM     14  O   UNL     1       6.467   4.957  18.967  0.00  0.00    +0.000 OA
ATOM     15  C   UNL     1       7.509   5.828  19.268  0.00  0.00    +0.000 A 
ATOM     16  O   UNL     1       8.107   5.786  20.341  0.00  0.00    +0.000 OA
ENDBRANCH   3   5
BRANCH   1  20
ATOM     17  C   UNL     1      10.945  12.413  19.983  0.00  0.00    +0.000 A 
ATOM     18  C   UNL     1      11.170  11.879  18.709  0.00  0.00    +0.000 A 
ATOM     19  C   UNL     1      10.352  10.863  18.216  0.00  0.00    +0.000 A 
ATOM     20  C   UNL     1       9.318  10.323  18.995  0.00  0.00    +0.000 A 
ATOM     21  C   UNL     1       9.152  10.799  20.298  0.00  0.00    +0.000 A 
ATOM     22  C   UNL     1       9.965  11.833  20.805  0.00  0.00    +0.000 A 
BRANCH  17  24
ATOM     23  C   UNL     1      11.873  14.540  19.507  0.00  0.00    +0.000 C 
ATOM     24  O   UNL     1      11.688  13.470  20.436  0.00  0.00    +0.000 OA
ENDBRANCH  17  24
BRANCH  22  25
ATOM     25  O   UNL     1       9.636  12.154  22.095  0.00  0.00    +0.000 OA
ATOM     26  C   UNL     1       8.344  11.819  22.582  0.00  0.00    +0.000 C 
ENDBRANCH  22  25
ENDBRANCH   1  20
TORSDOF 4
ENDMDL
MODEL 4
REMARK VINA RESULT:      -7.4      3.497      8.684
REMARK  Name = 
REMARK  6 active torsions:
REMARK  status: ('A' for Active; 'I' for Inactive)
REMARK    1  A    between atoms: C_1  and  O_2
REMARK    2  A    between atoms: O_2  and  C_3
REMARK    3  A    between atoms: C_6  and  C_7
REMARK    4  A    between atoms: N_9  and  C_10
REMARK    5  A    between atoms: C_23  and  O_24
REMARK    6  A    between atoms: O_24  and  C_25
REMARK                            x       y       z     vdW  Elec       q    Type
REMARK                         _______ _______ _______ _____ _____    ______ ____
ROOT
ATOM      1  C   UNL     1       2.528   6.981  18.218  0.00  0.00    +0.000 C 
ATOM      2  O   UNL     1       1.676   6.231  18.685  0.00  0.00    +0.000 OA
ATOM      3  N   UNL     1       2.392   8.358  18.147  0.00  0.00    +0.000 N 
ATOM      4  H   UNL     1       3.134   8.920  17.740  0.00  0.00    +0.000 HD
ENDROOT
BRANCH   3   5
ATOM      5  C   UNL     1       1.293   9.106  18.561  0.00  0.00    +0.000 A 
ATOM      6  C   UNL     1       0.343   9.599  17.757  0.00  0.00    +0.000 A 
ATOM      7  C   UNL     1      -0.763  10.367  18.298  0.00  0.00    +0.000 A 
ATOM      8  C   UNL     1      -1.891  10.673  17.534  0.00  0.00    +0.000 A 
ATOM      9  C   UNL     1      -2.910  11.445  18.093  0.00  0.00    +0.000 A 
ATOM     10 CL   UNL     1      -4.337  11.754  17.183  0.00  0.00    +0.000 Cl
ATOM     11  C   UNL     1      -2.788  11.956  19.386  0.00  0.00    +0.000 A 
ATOM     12  C   UNL     1      -1.662  11.648  20.152  0.00  0.00    +0.000 A 
ATOM     13  C   UNL     1      -0.681  10.823  19.609  0.00  0.00    +0.000 A 
ATOM     14  O   UNL     1       0.357  10.391  20.450  0.00  0.00    +0.000 OA
ATOM     15  C   UNL     1       1.186   9.353  20.036  0.00  0.00    +0.000 A 
ATOM     16  O   UNL     1       1.867   8.704  20.827  0.00  0.00    +0.000 OA
ENDBRANCH   3   5
BRANCH   1  20
ATOM     17  C   UNL     1       5.940   4.998  16.471  0.00  0.00    +0.000 A 
ATOM     18  C   UNL     1       4.785   4.300  16.839  0.00  0.00    +0.000 A 
ATOM     19  C   UNL     1       3.707   4.973  17.413  0.00  0.00    +0.000 A 
ATOM     20  C   UNL     1       3.769   6.349  17.675  0.00  0.00    +0.000 A 
ATOM     21  C   UNL     1       4.956   7.027  17.386  0.00  0.00    +0.000 A 
ATOM     22  C   UNL     1       6.049   6.360  16.795  0.00  0.00    +0.000 A 
BRANCH  17  24
ATOM     23  C   UNL     1       6.908   4.376  14.400  0.00  0.00    +0.000 C 
ATOM     24  O   UNL     1       6.965   4.357  15.827  0.00  0.00    +0.000 OA
ENDBRANCH  17  24
BRANCH  22  25
ATOM     25  O   UNL     1       7.110   7.203  16.590  0.00  0.00    +0.000 OA
ATOM     26  C   UNL     1       7.753   7.789  17.713  0.00  0.00    +0.000 C 
ENDBRANCH  22  25
ENDBRANCH   1  20
TORSDOF 4
ENDMDL
MODEL 5
REMARK VINA RESULT:      -7.3      1.149      1.405
REMARK  Name = 
REMARK  6 active torsions:
REMARK  status: ('A' for Active; 'I' for Inactive)
REMARK    1  A    between atoms: C_1  and  O_2
REMARK    2  A    between atoms: O_2  and  C_3
REMARK    3  A    between atoms: C_6  and  C_7
REMARK    4  A    between atoms: N_9  and  C_10
REMARK    5  A    between atoms: C_23  and  O_24
REMARK    6  A    between atoms: O_24  and  C_25
REMARK                            x       y       z     vdW  Elec       q    Type
REMARK                         _______ _______ _______ _____ _____    ______ ____
ROOT
ATOM      1  C   UNL     1       1.499   9.467  18.607  0.00  0.00    +0.000 C 
ATOM      2  O   UNL     1       1.785   9.686  17.434  0.00  0.00    +0.000 OA
ATOM      3  N   UNL     1       1.853   8.314  19.290  0.00  0.00    +0.000 N 
ATOM      4  H   UNL     1       1.576   8.194  20.259  0.00  0.00    +0.000 HD
ENDROOT
BRANCH   3   5
ATOM      5  C   UNL     1       2.556   7.228  18.775  0.00  0.00    +0.000 A 
ATOM      6  C   UNL     1       3.389   7.270  17.727  0.00  0.00    +0.000 A 
ATOM      7  C   UNL     1       4.073   6.073  17.274  0.00  0.00    +0.000 A 
ATOM      8  C   UNL     1       5.130   6.128  16.363  0.00  0.00    +0.000 A 
ATOM      9  C   UNL     1       5.728   4.943  15.934  0.00  0.00    +0.000 A 
ATOM     10 CL   UNL     1       7.083   5.011  14.875  0.00  0.00    +0.000 Cl
ATOM     11  C   UNL     1       5.248   3.706  16.366  0.00  0.00    +0.000 A 
ATOM     12  C   UNL     1       4.193   3.650  17.280  0.00  0.00    +0.000 A 
ATOM     13  C   UNL     1       3.646   4.839  17.752  0.00  0.00    +0.000 A 
ATOM     14  O   UNL     1       2.705   4.765  18.791  0.00  0.00    +0.000 OA
ATOM     15  C   UNL     1       2.352   5.921  19.479  0.00  0.00    +0.000 A 
ATOM     16  O   UNL     1       1.823   5.888  20.588  0.00  0.00    +0.000 OA
ENDBRANCH   3   5
BRANCH   1  20
ATOM     17  C   UNL     1      -1.018  12.267  20.717  0.00  0.00    +0.000 A 
ATOM     18  C   UNL     1      -1.539  11.347  19.800  0.00  0.00    +0.000 A 
ATOM     19  C   UNL     1      -0.693  10.466  19.128  0.00  0.00    +0.000 A 
ATOM     20  C   UNL     1       0.697  10.509  19.318  0.00  0.00    +0.000 A 
ATOM     21  C   UNL     1       1.220  11.486  20.169  0.00  0.00    +0.000 A 
ATOM     22  C   UNL     1       0.374  12.376  20.863  0.00  0.00    +0.000 A 
BRANCH  17  24
ATOM     23  C   UNL     1      -2.680  12.406  22.400  0.00  0.00    +0.000 C 
ATOM     24  O   UNL     1      -1.854  13.073  21.445  0.00  0.00    +0.000 OA
ENDBRANCH  17  24
BRANCH  22  25
ATOM     25  O   UNL     1       1.084  13.248  21.645  0.00  0.00    +0.000 OA
ATOM     26  C   UNL     1       2.085  14.057  21.043  0.00  0.00    +0.000 C 
ENDBRANCH  22  25
ENDBRANCH   1  20
TORSDOF 4
ENDMDL
MODEL 6
REMARK VINA RESULT:      -7.2      1.059      1.876
REMARK  Name = 
REMARK  6 active torsions:
REMARK  status: ('A' for Active; 'I' for Inactive)
REMARK    1  A    between atoms: C_1  and  O_2
REMARK    2  A    between atoms: O_2  and  C_3
REMARK    3  A    between atoms: C_6  and  C_7
REMARK    4  A    between atoms: N_9  and  C_10
REMARK    5  A    between atoms: C_23  and  O_24
REMARK    6  A    between atoms: O_24  and  C_25
REMARK                            x       y       z     vdW  Elec       q    Type
REMARK                         _______ _______ _______ _____ _____    ______ ____
ROOT
ATOM      1  C   UNL     1       1.391   9.272  18.638  0.00  0.00    +0.000 C 
ATOM      2  O   UNL     1       1.638   9.521  17.463  0.00  0.00    +0.000 OA
ATOM      3  N   UNL     1       1.824   8.132  19.298  0.00  0.00    +0.000 N 
ATOM      4  H   UNL     1       1.575   7.985  20.271  0.00  0.00    +0.000 HD
ENDROOT
BRANCH   3   5
ATOM      5  C   UNL     1       2.574   7.094  18.753  0.00  0.00    +0.000 A 
ATOM      6  C   UNL     1       3.402   7.202  17.705  0.00  0.00    +0.000 A 
ATOM      7  C   UNL     1       4.139   6.050  17.220  0.00  0.00    +0.000 A 
ATOM      8  C   UNL     1       5.190   6.178  16.308  0.00  0.00    +0.000 A 
ATOM      9  C   UNL     1       5.840   5.033  15.847  0.00  0.00    +0.000 A 
ATOM     10 CL   UNL     1       7.188   5.192  14.789  0.00  0.00    +0.000 Cl
ATOM     11  C   UNL     1       5.419   3.764  16.247  0.00  0.00    +0.000 A 
ATOM     12  C   UNL     1       4.371   3.635  17.161  0.00  0.00    +0.000 A 
ATOM     13  C   UNL     1       3.771   4.786  17.665  0.00  0.00    +0.000 A 
ATOM     14  O   UNL     1       2.837   4.640  18.704  0.00  0.00    +0.000 OA
ATOM     15  C   UNL     1       2.432   5.761  19.423  0.00  0.00    +0.000 A 
ATOM     16  O   UNL     1       1.909   5.673  20.531  0.00  0.00    +0.000 OA
ENDBRANCH   3   5
BRANCH   1  20
ATOM     17  C   UNL     1      -0.800  12.273  20.836  0.00  0.00    +0.000 A 
ATOM     18  C   UNL     1       0.423  11.765  21.290  0.00  0.00    +0.000 A 
ATOM     19  C   UNL     1       1.095  10.787  20.560  0.00  0.00    +0.000 A 
ATOM     20  C   UNL     1       0.548  10.258  19.381  0.00  0.00    +0.000 A 
ATOM     21  C   UNL     1      -0.713  10.705  18.977  0.00  0.00    +0.000 A 
ATOM     22  C   UNL     1      -1.398  11.702  19.701  0.00  0.00    +0.000 A 
BRANCH  17  24
ATOM     23  C   UNL     1      -1.296  13.272  22.926  0.00  0.00    +0.000 C 
ATOM     24  O   UNL     1      -1.420  13.296  21.503  0.00  0.00    +0.000 OA
ENDBRANCH  17  24
BRANCH  22  25
ATOM     25  O   UNL     1      -2.610  12.000  19.136  0.00  0.00    +0.000 OA
ATOM     26  C   UNL     1      -2.947  11.425  17.881  0.00  0.00    +0.000 C 
ENDBRANCH  22  25
ENDBRANCH   1  20
TORSDOF 4
ENDMDL
MODEL 7
REMARK VINA RESULT:      -7.2      2.157      3.354
REMARK  Name = 
REMARK  6 active torsions:
REMARK  status: ('A' for Active; 'I' for Inactive)
REMARK    1  A    between atoms: C_1  and  O_2
REMARK    2  A    between atoms: O_2  and  C_3
REMARK    3  A    between atoms: C_6  and  C_7
REMARK    4  A    between atoms: N_9  and  C_10
REMARK    5  A    between atoms: C_23  and  O_24
REMARK    6  A    between atoms: O_24  and  C_25
REMARK                            x       y       z     vdW  Elec       q    Type
REMARK                         _______ _______ _______ _____ _____    ______ ____
ROOT
ATOM      1  C   UNL     1       0.914   9.296  21.108  0.00  0.00    +0.000 C 
ATOM      2  O   UNL     1       1.525   8.795  22.046  0.00  0.00    +0.000 OA
ATOM      3  N   UNL     1       1.077   8.918  19.785  0.00  0.00    +0.000 N 
ATOM      4  H   UNL     1       0.544   9.381  19.055  0.00  0.00    +0.000 HD
ENDROOT
BRANCH   3   5
ATOM      5  C   UNL     1       1.949   7.946  19.302  0.00  0.00    +0.000 A 
ATOM      6  C   UNL     1       2.256   6.800  19.924  0.00  0.00    +0.000 A 
ATOM      7  C   UNL     1       3.181   5.855  19.327  0.00  0.00    +0.000 A 
ATOM      8  C   UNL     1       3.324   4.555  19.815  0.00  0.00    +0.000 A 
ATOM      9  C   UNL     1       4.254   3.699  19.225  0.00  0.00    +0.000 A 
ATOM     10 CL   UNL     1       4.375   2.071  19.770  0.00  0.00    +0.000 Cl
ATOM     11  C   UNL     1       5.076   4.145  18.189  0.00  0.00    +0.000 A 
ATOM     12  C   UNL     1       4.931   5.444  17.697  0.00  0.00    +0.000 A 
ATOM     13  C   UNL     1       3.955   6.270  18.249  0.00  0.00    +0.000 A 
ATOM     14  O   UNL     1       3.714   7.508  17.632  0.00  0.00    +0.000 OA
ATOM     15  C   UNL     1       2.572   8.229  17.968  0.00  0.00    +0.000 A 
ATOM     16  O   UNL     1       2.123   9.116  17.246  0.00  0.00    +0.000 OA
ENDBRANCH   3   5
BRANCH   1  20
ATOM     17  C   UNL     1      -1.727  12.494  22.303  0.00  0.00    +0.000 A 
ATOM     18  C   UNL     1      -1.458  11.403  23.137  0.00  0.00    +0.000 A 
ATOM     19  C   UNL     1      -0.610  10.383  22.712  0.00  0.00    +0.000 A 
ATOM     20  C   UNL     1      -0.042  10.400  21.429  0.00  0.00    +0.000 A 
ATOM     21  C   UNL     1      -0.382  11.447  20.568  0.00  0.00    +0.000 A 
ATOM     22  C   UNL     1      -1.230  12.491  20.990  0.00  0.00    +0.000 A 
BRANCH  17  24
ATOM     23  C   UNL     1      -1.936  14.291  23.834  0.00  0.00    +0.000 C 
ATOM     24  O   UNL     1      -2.489  13.541  22.750  0.00  0.00    +0.000 OA
ENDBRANCH  17  24
BRANCH  22  25
ATOM     25  O   UNL     1      -1.431  13.416  20.000  0.00  0.00    +0.000 OA
ATOM     26  C   UNL     1      -0.598  13.389  18.850  0.00  0.00    +0.000 C 
ENDBRANCH  22  25
ENDBRANCH   1  20
TORSDOF 4
ENDMDL
MODEL 8
REMARK VINA RESULT:      -7.2      3.496      8.230
REMARK  Name = 
REMARK  6 active torsions:
REMARK  status: ('A' for Active; 'I' for Inactive)
REMARK    1  A    between atoms: C_1  and  O_2
REMARK    2  A    between atoms: O_2  and  C_3
REMARK    3  A    between atoms: C_6  and  C_7
REMARK    4  A    between atoms: N_9  and  C_10
REMARK    5  A    between atoms: C_23  and  O_24
REMARK    6  A    between atoms: O_24  and  C_25
REMARK                            x       y       z     vdW  Elec       q    Type
REMARK                         _______ _______ _______ _____ _____    ______ ____
ROOT
ATOM      1  C   UNL     1       1.722   8.365  19.687  0.00  0.00    +0.000 C 
ATOM      2  O   UNL     1       1.494   8.697  20.846  0.00  0.00    +0.000 OA
ATOM      3  N   UNL     1       1.589   9.212  18.598  0.00  0.00    +0.000 N 
ATOM      4  H   UNL     1       1.785   8.869  17.663  0.00  0.00    +0.000 HD
ENDROOT
BRANCH   3   5
ATOM      5  C   UNL     1       1.168  10.539  18.626  0.00  0.00    +0.000 A 
ATOM      6  C   UNL     1       1.974  11.607  18.693  0.00  0.00    +0.000 A 
ATOM      7  C   UNL     1       1.427  12.951  18.715  0.00  0.00    +0.000 A 
ATOM      8  C   UNL     1       2.230  14.077  18.527  0.00  0.00    +0.000 A 
ATOM      9  C   UNL     1       1.658  15.347  18.594  0.00  0.00    +0.000 A 
ATOM     10 CL   UNL     1       2.628  16.733  18.281  0.00  0.00    +0.000 Cl
ATOM     11  C   UNL     1       0.304  15.503  18.897  0.00  0.00    +0.000 A 
ATOM     12  C   UNL     1      -0.501  14.377  19.082  0.00  0.00    +0.000 A 
ATOM     13  C   UNL     1       0.066  13.113  18.949  0.00  0.00    +0.000 A 
ATOM     14  O   UNL     1      -0.791  12.000  18.973  0.00  0.00    +0.000 OA
ATOM     15  C   UNL     1      -0.313  10.760  18.562  0.00  0.00    +0.000 A 
ATOM     16  O   UNL     1      -1.065   9.846  18.231  0.00  0.00    +0.000 OA
ENDBRANCH   3   5
BRANCH   1  20
ATOM     17  C   UNL     1       3.166   4.382  18.865  0.00  0.00    +0.000 A 
ATOM     18  C   UNL     1       3.160   5.385  17.889  0.00  0.00    +0.000 A 
ATOM     19  C   UNL     1       2.673   6.657  18.188  0.00  0.00    +0.000 A 
ATOM     20  C   UNL     1       2.141   6.950  19.453  0.00  0.00    +0.000 A 
ATOM     21  C   UNL     1       2.070   5.922  20.397  0.00  0.00    +0.000 A 
ATOM     22  C   UNL     1       2.568   4.635  20.110  0.00  0.00    +0.000 A 
BRANCH  17  24
ATOM     23  C   UNL     1       2.893   2.240  17.890  0.00  0.00    +0.000 C 
ATOM     24  O   UNL     1       3.724   3.159  18.602  0.00  0.00    +0.000 OA
ENDBRANCH  17  24
BRANCH  22  25
ATOM     25  O   UNL     1       2.407   3.779  21.168  0.00  0.00    +0.000 OA
ATOM     26  C   UNL     1       1.281   2.913  21.191  0.00  0.00    +0.000 C 
ENDBRANCH  22  25
ENDBRANCH   1  20
TORSDOF 4
ENDMDL
MODEL 9
REMARK VINA RESULT:      -7.1      3.446      8.905
REMARK  Name = 
REMARK  6 active torsions:
REMARK  status: ('A' for Active; 'I' for Inactive)
REMARK    1  A    between atoms: C_1  and  O_2
REMARK    2  A    between atoms: O_2  and  C_3
REMARK    3  A    between atoms: C_6  and  C_7
REMARK    4  A    between atoms: N_9  and  C_10
REMARK    5  A    between atoms: C_23  and  O_24
REMARK    6  A    between atoms: O_24  and  C_25
REMARK                            x       y       z     vdW  Elec       q    Type
REMARK                         _______ _______ _______ _____ _____    ______ ____
ROOT
ATOM      1  C   UNL     1       2.292   7.690  18.963  0.00  0.00    +0.000 C 
ATOM      2  O   UNL     1       2.116   7.464  20.156  0.00  0.00    +0.000 OA
ATOM      3  N   UNL     1       1.890   8.854  18.327  0.00  0.00    +0.000 N 
ATOM      4  H   UNL     1       2.060   8.973  17.333  0.00  0.00    +0.000 HD
ENDROOT
BRANCH   3   5
ATOM      5  C   UNL     1       1.219   9.927  18.908  0.00  0.00    +0.000 A 
ATOM      6  C   UNL     1       0.261   9.831  19.839  0.00  0.00    +0.000 A 
ATOM      7  C   UNL     1      -0.373  11.020  20.378  0.00  0.00    +0.000 A 
ATOM      8  C   UNL     1      -1.180  10.973  21.517  0.00  0.00    +0.000 A 
ATOM      9  C   UNL     1      -1.793  12.140  21.971  0.00  0.00    +0.000 A 
ATOM     10 CL   UNL     1      -2.721  12.103  23.420  0.00  0.00    +0.000 Cl
ATOM     11  C   UNL     1      -1.650  13.340  21.271  0.00  0.00    +0.000 A 
ATOM     12  C   UNL     1      -0.840  13.388  20.134  0.00  0.00    +0.000 A 
ATOM     13  C   UNL     1      -0.180  12.233  19.726  0.00  0.00    +0.000 A 
ATOM     14  O   UNL     1       0.756  12.341  18.685  0.00  0.00    +0.000 OA
ATOM     15  C   UNL     1       1.634  11.290  18.442  0.00  0.00    +0.000 A 
ATOM     16  O   UNL     1       2.675  11.440  17.806  0.00  0.00    +0.000 OA
ENDBRANCH   3   5
BRANCH   1  20
ATOM     17  C   UNL     1       4.478   4.717  16.725  0.00  0.00    +0.000 A 
ATOM     18  C   UNL     1       4.854   6.065  16.732  0.00  0.00    +0.000 A 
ATOM     19  C   UNL     1       4.116   6.999  17.456  0.00  0.00    +0.000 A 
ATOM     20  C   UNL     1       2.960   6.623  18.157  0.00  0.00    +0.000 A 
ATOM     21  C   UNL     1       2.540   5.293  18.078  0.00  0.00    +0.000 A 
ATOM     22  C   UNL     1       3.284   4.336  17.357  0.00  0.00    +0.000 A 
BRANCH  17  24
ATOM     23  C   UNL     1       6.410   4.286  15.423  0.00  0.00    +0.000 C 
ATOM     24  O   UNL     1       5.250   3.782  16.088  0.00  0.00    +0.000 OA
ENDBRANCH  17  24
BRANCH  22  25
ATOM     25  O   UNL     1       2.705   3.096  17.409  0.00  0.00    +0.000 OA
ATOM     26  C   UNL     1       3.134   2.174  18.402  0.00  0.00    +0.000 C 
ENDBRANCH  22  25
ENDBRANCH   1  20
TORSDOF 4
ENDMDL
