MODEL 1
REMARK VINA RESULT:      -8.6      0.000      0.000
REMARK  Name = 
REMARK  5 active torsions:
REMARK  status: ('A' for Active; 'I' for Inactive)
REMARK    1  A    between atoms: C_1  and  C_2
REMARK    2  A    between atoms: C_7  and  N_8
REMARK    3  A    between atoms: C_9  and  C_11
REMARK    4  A    between atoms: C_11  and  C_12
REMARK    5  A    between atoms: C_12  and  N_13
REMARK                            x       y       z     vdW  Elec       q    Type
REMARK                         _______ _______ _______ _____ _____    ______ ____
ROOT
ATOM      1  C   UNL     1       5.055   5.421  19.377  0.00  0.00    +0.000 C 
ENDROOT
BRANCH   1   2
ATOM      2  N   UNL     1       5.386   5.950  18.048  0.00  0.00    +0.000 NA
ATOM      3  C   UNL     1       6.820   5.873  17.681  0.00  0.00    +0.000 C 
ATOM      4  C   UNL     1       7.333   4.591  16.992  0.00  0.00    +0.000 C 
ATOM      5  N   UNL     1       6.407   4.062  15.984  0.00  0.00    +0.000 N 
ATOM      6  C   UNL     1       6.677   4.336  14.642  0.00  0.00    +0.000 A 
ATOM      7  C   UNL     1       6.111   3.534  13.646  0.00  0.00    +0.000 A 
ATOM      8  C   UNL     1       6.469   3.703  12.309  0.00  0.00    +0.000 A 
ATOM      9  C   UNL     1       7.387   4.687  11.977  0.00  0.00    +0.000 A 
ATOM     10  C   UNL     1       7.895   5.456  13.008  0.00  0.00    +0.000 A 
ATOM     11  N   UNL     1       7.564   5.302  14.317  0.00  0.00    +0.000 NA
ATOM     12  C   UNL     1       5.008   4.009  16.415  0.00  0.00    +0.000 C 
ATOM     13  C   UNL     1       4.544   5.368  16.980  0.00  0.00    +0.000 C 
ENDBRANCH   1   2
BRANCH   1  14
ATOM     14  C   UNL     1       3.754   4.612  19.380  0.00  0.00    +0.000 C 
BRANCH  14  16
ATOM     15  N   UNL     1       2.774   6.813  19.765  0.00  0.00    +0.000 N 
ATOM     16  C   UNL     1       2.511   5.459  19.650  0.00  0.00    +0.000 C 
ATOM     17  O   UNL     1       1.421   4.903  19.770  0.00  0.00    +0.000 OA
ATOM     18  H   UNL     1       3.679   7.100  19.397  0.00  0.00    +0.000 HD
BRANCH  15  25
ATOM     19  C   UNL     1       2.116   8.878  17.736  0.00  0.00    +0.000 C 
ATOM     20  C   UNL     1       1.510   8.819  19.113  0.00  0.00    +0.000 A 
ATOM     21  C   UNL     1       0.560   9.809  19.441  0.00  0.00    +0.000 A 
ATOM     22  C   UNL     1      -0.040   9.844  20.697  0.00  0.00    +0.000 A 
ATOM     23  C   UNL     1       0.320   8.906  21.652  0.00  0.00    +0.000 A 
ATOM     24  C   UNL     1       1.264   7.925  21.348  0.00  0.00    +0.000 A 
ATOM     25  C   UNL     1       1.853   7.844  20.079  0.00  0.00    +0.000 A 
ENDBRANCH  15  25
ENDBRANCH  14  16
ENDBRANCH   1  14
TORSDOF 4
ENDMDL
MODEL 2
REMARK VINA RESULT:      -8.0      5.129      7.173
REMARK  Name = 
REMARK  5 active torsions:
REMARK  status: ('A' for Active; 'I' for Inactive)
REMARK    1  A    between atoms: C_1  and  C_2
REMARK    2  A    between atoms: C_7  and  N_8
REMARK    3  A    between atoms: C_9  and  C_11
REMARK    4  A    between atoms: C_11  and  C_12
REMARK    5  A    between atoms: C_12  and  N_13
REMARK                            x       y       z     vdW  Elec       q    Type
REMARK                         _______ _______ _______ _____ _____    ______ ____
ROOT
ATOM      1  C   UNL     1       7.528   7.712  17.257  0.00  0.00    +0.000 C 
ENDROOT
BRANCH   1   2
ATOM      2  N   UNL     1       7.109   6.304  17.241  0.00  0.00    +0.000 NA
ATOM      3  C   UNL     1       6.976   5.673  18.576  0.00  0.00    +0.000 C 
ATOM      4  C   UNL     1       5.620   5.778  19.305  0.00  0.00    +0.000 C 
ATOM      5  N   UNL     1       4.466   5.597  18.416  0.00  0.00    +0.000 N 
ATOM      6  C   UNL     1       3.839   4.350  18.408  0.00  0.00    +0.000 A 
ATOM      7  C   UNL     1       2.527   4.239  17.936  0.00  0.00    +0.000 A 
ATOM      8  C   UNL     1       1.834   3.033  18.040  0.00  0.00    +0.000 A 
ATOM      9  C   UNL     1       2.468   1.939  18.607  0.00  0.00    +0.000 A 
ATOM     10  C   UNL     1       3.771   2.111  19.036  0.00  0.00    +0.000 A 
ATOM     11  N   UNL     1       4.461   3.280  18.951  0.00  0.00    +0.000 NA
ATOM     12  C   UNL     1       4.546   6.343  17.158  0.00  0.00    +0.000 C 
ATOM     13  C   UNL     1       5.886   6.085  16.438  0.00  0.00    +0.000 C 
ENDBRANCH   1   2
BRANCH   1  14
ATOM     14  C   UNL     1       8.426   8.043  18.453  0.00  0.00    +0.000 C 
BRANCH  14  16
ATOM     15  N   UNL     1       9.394   9.852  19.773  0.00  0.00    +0.000 N 
ATOM     16  C   UNL     1       8.642   9.542  18.654  0.00  0.00    +0.000 C 
ATOM     17  O   UNL     1       8.132  10.333  17.863  0.00  0.00    +0.000 OA
ATOM     18  H   UNL     1       9.923   9.071  20.156  0.00  0.00    +0.000 HD
BRANCH  15  25
ATOM     19  C   UNL     1      11.600  11.412  18.543  0.00  0.00    +0.000 C 
ATOM     20  C   UNL     1      10.739  11.908  19.674  0.00  0.00    +0.000 A 
ATOM     21  C   UNL     1      11.003  13.205  20.162  0.00  0.00    +0.000 A 
ATOM     22  C   UNL     1      10.270  13.741  21.217  0.00  0.00    +0.000 A 
ATOM     23  C   UNL     1       9.280  12.978  21.818  0.00  0.00    +0.000 A 
ATOM     24  C   UNL     1       9.012  11.689  21.354  0.00  0.00    +0.000 A 
ATOM     25  C   UNL     1       9.709  11.143  20.268  0.00  0.00    +0.000 A 
ENDBRANCH  15  25
ENDBRANCH  14  16
ENDBRANCH   1  14
TORSDOF 4
ENDMDL
MODEL 3
REMARK VINA RESULT:      -7.8      5.093      7.326
REMARK  Name = 
REMARK  5 active torsions:
REMARK  status: ('A' for Active; 'I' for Inactive)
REMARK    1  A    between atoms: C_1  and  C_2
REMARK    2  A    between atoms: C_7  and  N_8
REMARK    3  A    between atoms: C_9  and  C_11
REMARK    4  A    between atoms: C_11  and  C_12
REMARK    5  A    between atoms: C_12  and  N_13
REMARK                            x       y       z     vdW  Elec       q    Type
REMARK                         _______ _______ _______ _____ _____    ______ ____
ROOT
ATOM      1  C   UNL     1       7.566   7.511  17.208  0.00  0.00    +0.000 C 
ENDROOT
BRANCH   1   2
ATOM      2  N   UNL     1       7.158   6.102  17.284  0.00  0.00    +0.000 NA
ATOM      3  C   UNL     1       6.936   5.587  18.656  0.00  0.00    +0.000 C 
ATOM      4  C   UNL     1       5.531   5.737  19.278  0.00  0.00    +0.000 C 
ATOM      5  N   UNL     1       4.444   5.467  18.330  0.00  0.00    +0.000 N 
ATOM      6  C   UNL     1       3.827   4.215  18.386  0.00  0.00    +0.000 A 
ATOM      7  C   UNL     1       2.552   4.049  17.836  0.00  0.00    +0.000 A 
ATOM      8  C   UNL     1       1.861   2.848  17.995  0.00  0.00    +0.000 A 
ATOM      9  C   UNL     1       2.460   1.814  18.697  0.00  0.00    +0.000 A 
ATOM     10  C   UNL     1       3.729   2.039  19.199  0.00  0.00    +0.000 A 
ATOM     11  N   UNL     1       4.416   3.204  19.061  0.00  0.00    +0.000 NA
ATOM     12  C   UNL     1       4.607   6.103  17.021  0.00  0.00    +0.000 C 
ATOM     13  C   UNL     1       5.996   5.801  16.420  0.00  0.00    +0.000 C 
ENDBRANCH   1   2
BRANCH   1  14
ATOM     14  C   UNL     1       8.231   8.001  18.498  0.00  0.00    +0.000 C 
BRANCH  14  16
ATOM     15  N   UNL     1       9.556   9.839  19.403  0.00  0.00    +0.000 N 
ATOM     16  C   UNL     1       8.602   9.483  18.466  0.00  0.00    +0.000 C 
ATOM     17  O   UNL     1       8.035  10.226  17.668  0.00  0.00    +0.000 OA
ATOM     18  H   UNL     1      10.075   9.056  19.797  0.00  0.00    +0.000 HD
BRANCH  15  25
ATOM     19  C   UNL     1       8.632  11.317  21.806  0.00  0.00    +0.000 C 
ATOM     20  C   UNL     1       9.647  11.842  20.826  0.00  0.00    +0.000 A 
ATOM     21  C   UNL     1      10.195  13.116  21.087  0.00  0.00    +0.000 A 
ATOM     22  C   UNL     1      11.127  13.690  20.227  0.00  0.00    +0.000 A 
ATOM     23  C   UNL     1      11.506  13.010  19.079  0.00  0.00    +0.000 A 
ATOM     24  C   UNL     1      10.968  11.753  18.801  0.00  0.00    +0.000 A 
ATOM     25  C   UNL     1      10.058  11.138  19.671  0.00  0.00    +0.000 A 
ENDBRANCH  15  25
ENDBRANCH  14  16
ENDBRANCH   1  14
TORSDOF 4
ENDMDL
MODEL 4
REMARK VINA RESULT:      -7.7      1.635      2.797
REMARK  Name = 
REMARK  5 active torsions:
REMARK  status: ('A' for Active; 'I' for Inactive)
REMARK    1  A    between atoms: C_1  and  C_2
REMARK    2  A    between atoms: C_7  and  N_8
REMARK    3  A    between atoms: C_9  and  C_11
REMARK    4  A    between atoms: C_11  and  C_12
REMARK    5  A    between atoms: C_12  and  N_13
REMARK                            x       y       z     vdW  Elec       q    Type
REMARK                         _______ _______ _______ _____ _____    ______ ____
ROOT
ATOM      1  C   UNL     1       2.325   2.678  20.499  0.00  0.00    +0.000 C 
ENDROOT
BRANCH   1   2
ATOM      2  N   UNL     1       3.238   2.375  19.389  0.00  0.00    +0.000 NA
ATOM      3  C   UNL     1       2.719   2.710  18.041  0.00  0.00    +0.000 C 
ATOM      4  C   UNL     1       2.969   4.131  17.492  0.00  0.00    +0.000 C 
ATOM      5  N   UNL     1       4.315   4.639  17.782  0.00  0.00    +0.000 N 
ATOM      6  C   UNL     1       5.268   4.578  16.763  0.00  0.00    +0.000 A 
ATOM      7  C   UNL     1       6.394   5.406  16.822  0.00  0.00    +0.000 A 
ATOM      8  C   UNL     1       7.291   5.461  15.755  0.00  0.00    +0.000 A 
ATOM      9  C   UNL     1       7.058   4.675  14.638  0.00  0.00    +0.000 A 
ATOM     10  C   UNL     1       5.936   3.867  14.652  0.00  0.00    +0.000 A 
ATOM     11  N   UNL     1       5.046   3.804  15.679  0.00  0.00    +0.000 NA
ATOM     12  C   UNL     1       4.759   4.427  19.162  0.00  0.00    +0.000 C 
ATOM     13  C   UNL     1       4.584   2.954  19.587  0.00  0.00    +0.000 C 
ENDBRANCH   1   2
BRANCH   1  14
ATOM     14  C   UNL     1       2.630   4.026  21.160  0.00  0.00    +0.000 C 
BRANCH  14  16
ATOM     15  N   UNL     1       2.296   6.394  20.675  0.00  0.00    +0.000 N 
ATOM     16  C   UNL     1       1.695   5.148  20.711  0.00  0.00    +0.000 C 
ATOM     17  O   UNL     1       0.522   4.884  20.454  0.00  0.00    +0.000 OA
ATOM     18  H   UNL     1       3.314   6.372  20.684  0.00  0.00    +0.000 HD
BRANCH  15  25
ATOM     19  C   UNL     1       2.828   7.703  18.064  0.00  0.00    +0.000 C 
ATOM     20  C   UNL     1       1.907   8.257  19.119  0.00  0.00    +0.000 A 
ATOM     21  C   UNL     1       1.253   9.473  18.827  0.00  0.00    +0.000 A 
ATOM     22  C   UNL     1       0.397  10.069  19.749  0.00  0.00    +0.000 A 
ATOM     23  C   UNL     1       0.204   9.474  20.986  0.00  0.00    +0.000 A 
ATOM     24  C   UNL     1       0.850   8.276  21.295  0.00  0.00    +0.000 A 
ATOM     25  C   UNL     1       1.685   7.636  20.370  0.00  0.00    +0.000 A 
ENDBRANCH  15  25
ENDBRANCH  14  16
ENDBRANCH   1  14
TORSDOF 4
ENDMDL
MODEL 5
REMARK VINA RESULT:      -7.7      5.180      7.387
REMARK  Name = 
REMARK  5 active torsions:
REMARK  status: ('A' for Active; 'I' for Inactive)
REMARK    1  A    between atoms: C_1  and  C_2
REMARK    2  A    between atoms: C_7  and  N_8
REMARK    3  A    between atoms: C_9  and  C_11
REMARK    4  A    between atoms: C_11  and  C_12
REMARK    5  A    between atoms: C_12  and  N_13
REMARK                            x       y       z     vdW  Elec       q    Type
REMARK                         _______ _______ _______ _____ _____    ______ ____
ROOT
ATOM      1  C   UNL     1       7.472   8.216  17.405  0.00  0.00    +0.000 C 
ENDROOT
BRANCH   1   2
ATOM      2  N   UNL     1       6.995   6.870  17.063  0.00  0.00    +0.000 NA
ATOM      3  C   UNL     1       7.043   5.887  18.171  0.00  0.00    +0.000 C 
ATOM      4  C   UNL     1       5.821   5.778  19.108  0.00  0.00    +0.000 C 
ATOM      5  N   UNL     1       4.537   5.853  18.402  0.00  0.00    +0.000 N 
ATOM      6  C   UNL     1       3.863   4.657  18.145  0.00  0.00    +0.000 A 
ATOM      7  C   UNL     1       2.491   4.682  17.878  0.00  0.00    +0.000 A 
ATOM      8  C   UNL     1       1.770   3.495  17.750  0.00  0.00    +0.000 A 
ATOM      9  C   UNL     1       2.436   2.286  17.878  0.00  0.00    +0.000 A 
ATOM     10  C   UNL     1       3.796   2.333  18.124  0.00  0.00    +0.000 A 
ATOM     11  N   UNL     1       4.514   3.479  18.259  0.00  0.00    +0.000 NA
ATOM     12  C   UNL     1       4.454   6.925  17.407  0.00  0.00    +0.000 C 
ATOM     13  C   UNL     1       5.654   6.885  16.438  0.00  0.00    +0.000 C 
ENDBRANCH   1   2
BRANCH   1  14
ATOM     14  C   UNL     1       8.449   8.211  18.585  0.00  0.00    +0.000 C 
BRANCH  14  16
ATOM     15  N   UNL     1       9.412  10.327  17.845  0.00  0.00    +0.000 N 
ATOM     16  C   UNL     1       8.981   9.599  18.940  0.00  0.00    +0.000 C 
ATOM     17  O   UNL     1       9.016   9.944  20.119  0.00  0.00    +0.000 OA
ATOM     18  H   UNL     1       9.081   9.977  16.948  0.00  0.00    +0.000 HD
BRANCH  15  25
ATOM     19  C   UNL     1       7.776  12.736  17.268  0.00  0.00    +0.000 C 
ATOM     20  C   UNL     1       9.244  12.768  17.602  0.00  0.00    +0.000 A 
ATOM     21  C   UNL     1       9.865  14.034  17.652  0.00  0.00    +0.000 A 
ATOM     22  C   UNL     1      11.222  14.160  17.937  0.00  0.00    +0.000 A 
ATOM     23  C   UNL     1      11.984  13.021  18.148  0.00  0.00    +0.000 A 
ATOM     24  C   UNL     1      11.388  11.761  18.093  0.00  0.00    +0.000 A 
ATOM     25  C   UNL     1      10.016  11.609  17.848  0.00  0.00    +0.000 A 
ENDBRANCH  15  25
ENDBRANCH  14  16
ENDBRANCH   1  14
TORSDOF 4
ENDMDL
MODEL 6
REMARK VINA RESULT:      -7.6      4.864      7.249
REMARK  Name = 
REMARK  5 active torsions:
REMARK  status: ('A' for Active; 'I' for Inactive)
REMARK    1  A    between atoms: C_1  and  C_2
REMARK    2  A    between atoms: C_7  and  N_8
REMARK    3  A    between atoms: C_9  and  C_11
REMARK    4  A    between atoms: C_11  and  C_12
REMARK    5  A    between atoms: C_12  and  N_13
REMARK                            x       y       z     vdW  Elec       q    Type
REMARK                         _______ _______ _______ _____ _____    ______ ____
ROOT
ATOM      1  C   UNL     1       7.356   6.889  17.443  0.00  0.00    +0.000 C 
ENDROOT
BRANCH   1   2
ATOM      2  N   UNL     1       5.960   6.706  17.859  0.00  0.00    +0.000 NA
ATOM      3  C   UNL     1       5.023   6.340  16.770  0.00  0.00    +0.000 C 
ATOM      4  C   UNL     1       4.829   4.843  16.442  0.00  0.00    +0.000 C 
ATOM      5  N   UNL     1       4.757   3.991  17.634  0.00  0.00    +0.000 N 
ATOM      6  C   UNL     1       3.495   3.583  18.069  0.00  0.00    +0.000 A 
ATOM      7  C   UNL     1       3.379   2.464  18.899  0.00  0.00    +0.000 A 
ATOM      8  C   UNL     1       2.124   1.958  19.238  0.00  0.00    +0.000 A 
ATOM      9  C   UNL     1       0.990   2.587  18.751  0.00  0.00    +0.000 A 
ATOM     10  C   UNL     1       1.175   3.699  17.950  0.00  0.00    +0.000 A 
ATOM     11  N   UNL     1       2.389   4.203  17.602  0.00  0.00    +0.000 NA
ATOM     12  C   UNL     1       5.783   4.271  18.643  0.00  0.00    +0.000 C 
ATOM     13  C   UNL     1       5.825   5.772  18.998  0.00  0.00    +0.000 C 
ENDBRANCH   1   2
BRANCH   1  14
ATOM     14  C   UNL     1       8.214   7.537  18.534  0.00  0.00    +0.000 C 
BRANCH  14  16
ATOM     15  N   UNL     1       9.418   9.572  19.136  0.00  0.00    +0.000 N 
ATOM     16  C   UNL     1       8.434   9.035  18.325  0.00  0.00    +0.000 C 
ATOM     17  O   UNL     1       7.737   9.635  17.510  0.00  0.00    +0.000 OA
ATOM     18  H   UNL     1      10.040   8.885  19.558  0.00  0.00    +0.000 HD
BRANCH  15  25
ATOM     19  C   UNL     1       8.871  11.101  21.622  0.00  0.00    +0.000 C 
ATOM     20  C   UNL     1       9.579  11.664  20.419  0.00  0.00    +0.000 A 
ATOM     21  C   UNL     1      10.016  13.003  20.497  0.00  0.00    +0.000 A 
ATOM     22  C   UNL     1      10.664  13.614  19.427  0.00  0.00    +0.000 A 
ATOM     23  C   UNL     1      10.861  12.904  18.253  0.00  0.00    +0.000 A 
ATOM     24  C   UNL     1      10.428  11.581  18.154  0.00  0.00    +0.000 A 
ATOM     25  C   UNL     1       9.808  10.932  19.230  0.00  0.00    +0.000 A 
ENDBRANCH  15  25
ENDBRANCH  14  16
ENDBRANCH   1  14
TORSDOF 4
ENDMDL
MODEL 7
REMARK VINA RESULT:      -7.4      6.753      9.050
REMARK  Name = 
REMARK  5 active torsions:
REMARK  status: ('A' for Active; 'I' for Inactive)
REMARK    1  A    between atoms: C_1  and  C_2
REMARK    2  A    between atoms: C_7  and  N_8
REMARK    3  A    between atoms: C_9  and  C_11
REMARK    4  A    between atoms: C_11  and  C_12
REMARK    5  A    between atoms: C_12  and  N_13
REMARK                            x       y       z     vdW  Elec       q    Type
REMARK                         _______ _______ _______ _____ _____    ______ ____
ROOT
ATOM      1  C   UNL     1       8.977   9.335  18.721  0.00  0.00    +0.000 C 
ENDROOT
BRANCH   1   2
ATOM      2  N   UNL     1       8.839  10.750  19.089  0.00  0.00    +0.000 NA
ATOM      3  C   UNL     1       9.464  11.127  20.379  0.00  0.00    +0.000 C 
ATOM      4  C   UNL     1      10.946  11.561  20.376  0.00  0.00    +0.000 C 
ATOM      5  N   UNL     1      11.298  12.423  19.241  0.00  0.00    +0.000 N 
ATOM      6  C   UNL     1      11.376  13.798  19.467  0.00  0.00    +0.000 A 
ATOM      7  C   UNL     1      12.100  14.602  18.581  0.00  0.00    +0.000 A 
ATOM      8  C   UNL     1      12.305  15.955  18.855  0.00  0.00    +0.000 A 
ATOM      9  C   UNL     1      11.769  16.496  20.013  0.00  0.00    +0.000 A 
ATOM     10  C   UNL     1      11.049  15.649  20.835  0.00  0.00    +0.000 A 
ATOM     11  N   UNL     1      10.845  14.328  20.590  0.00  0.00    +0.000 NA
ATOM     12  C   UNL     1      10.792  11.958  17.947  0.00  0.00    +0.000 C 
ATOM     13  C   UNL     1       9.278  11.662  18.011  0.00  0.00    +0.000 C 
ENDBRANCH   1   2
BRANCH   1  14
ATOM     14  C   UNL     1       8.016   8.923  17.601  0.00  0.00    +0.000 C 
BRANCH  14  16
ATOM     15  N   UNL     1       6.285   7.300  17.033  0.00  0.00    +0.000 N 
ATOM     16  C   UNL     1       7.415   7.532  17.797  0.00  0.00    +0.000 C 
ATOM     17  O   UNL     1       7.934   6.762  18.603  0.00  0.00    +0.000 OA
ATOM     18  H   UNL     1       6.156   7.952  16.261  0.00  0.00    +0.000 HD
BRANCH  15  25
ATOM     19  C   UNL     1       6.855   5.069  15.159  0.00  0.00    +0.000 C 
ATOM     20  C   UNL     1       5.740   5.063  16.171  0.00  0.00    +0.000 A 
ATOM     21  C   UNL     1       4.930   3.909  16.228  0.00  0.00    +0.000 A 
ATOM     22  C   UNL     1       3.865   3.820  17.120  0.00  0.00    +0.000 A 
ATOM     23  C   UNL     1       3.577   4.894  17.949  0.00  0.00    +0.000 A 
ATOM     24  C   UNL     1       4.362   6.046  17.899  0.00  0.00    +0.000 A 
ATOM     25  C   UNL     1       5.464   6.145  17.039  0.00  0.00    +0.000 A 
ENDBRANCH  15  25
ENDBRANCH  14  16
ENDBRANCH   1  14
TORSDOF 4
ENDMDL
MODEL 8
REMARK VINA RESULT:      -7.4      0.905      1.615
REMARK  Name = 
REMARK  5 active torsions:
REMARK  status: ('A' for Active; 'I' for Inactive)
REMARK    1  A    between atoms: C_1  and  C_2
REMARK    2  A    between atoms: C_7  and  N_8
REMARK    3  A    between atoms: C_9  and  C_11
REMARK    4  A    between atoms: C_11  and  C_12
REMARK    5  A    between atoms: C_12  and  N_13
REMARK                            x       y       z     vdW  Elec       q    Type
REMARK                         _______ _______ _______ _____ _____    ______ ____
ROOT
ATOM      1  C   UNL     1       5.139   5.047  19.382  0.00  0.00    +0.000 C 
ENDROOT
BRANCH   1   2
ATOM      2  N   UNL     1       5.491   4.207  18.230  0.00  0.00    +0.000 NA
ATOM      3  C   UNL     1       4.489   4.189  17.138  0.00  0.00    +0.000 C 
ATOM      4  C   UNL     1       4.590   5.262  16.032  0.00  0.00    +0.000 C 
ATOM      5  N   UNL     1       5.968   5.529  15.605  0.00  0.00    +0.000 N 
ATOM      6  C   UNL     1       6.411   4.934  14.422  0.00  0.00    +0.000 A 
ATOM      7  C   UNL     1       7.516   5.468  13.753  0.00  0.00    +0.000 A 
ATOM      8  C   UNL     1       7.897   4.974  12.505  0.00  0.00    +0.000 A 
ATOM      9  C   UNL     1       7.171   3.938  11.940  0.00  0.00    +0.000 A 
ATOM     10  C   UNL     1       6.101   3.444  12.663  0.00  0.00    +0.000 A 
ATOM     11  N   UNL     1       5.710   3.916  13.877  0.00  0.00    +0.000 NA
ATOM     12  C   UNL     1       6.924   5.688  16.704  0.00  0.00    +0.000 C 
ATOM     13  C   UNL     1       6.837   4.511  17.697  0.00  0.00    +0.000 C 
ENDBRANCH   1   2
BRANCH   1  14
ATOM     14  C   UNL     1       3.864   4.573  20.088  0.00  0.00    +0.000 C 
BRANCH  14  16
ATOM     15  N   UNL     1       2.839   6.785  20.172  0.00  0.00    +0.000 N 
ATOM     16  C   UNL     1       2.652   5.461  19.815  0.00  0.00    +0.000 C 
ATOM     17  O   UNL     1       1.633   4.957  19.347  0.00  0.00    +0.000 OA
ATOM     18  H   UNL     1       3.811   7.052  20.310  0.00  0.00    +0.000 HD
BRANCH  15  25
ATOM     19  C   UNL     1       2.610   8.429  17.711  0.00  0.00    +0.000 C 
ATOM     20  C   UNL     1       1.750   8.609  18.934  0.00  0.00    +0.000 A 
ATOM     21  C   UNL     1       0.769   9.621  18.887  0.00  0.00    +0.000 A 
ATOM     22  C   UNL     1      -0.061   9.872  19.976  0.00  0.00    +0.000 A 
ATOM     23  C   UNL     1       0.097   9.132  21.139  0.00  0.00    +0.000 A 
ATOM     24  C   UNL     1       1.068   8.133  21.206  0.00  0.00    +0.000 A 
ATOM     25  C   UNL     1       1.889   7.836  20.110  0.00  0.00    +0.000 A 
ENDBRANCH  15  25
ENDBRANCH  14  16
ENDBRANCH   1  14
TORSDOF 4
ENDMDL
MODEL 9
REMARK VINA RESULT:      -7.3      7.042      9.499
REMARK  Name = 
REMARK  5 active torsions:
REMARK  status: ('A' for Active; 'I' for Inactive)
REMARK    1  A    between atoms: C_1  and  C_2
REMARK    2  A    between atoms: C_7  and  N_8
REMARK    3  A    between atoms: C_9  and  C_11
REMARK    4  A    between atoms: C_11  and  C_12
REMARK    5  A    between atoms: C_12  and  N_13
REMARK                            x       y       z     vdW  Elec       q    Type
REMARK                         _______ _______ _______ _____ _____    ______ ____
ROOT
ATOM      1  C   UNL     1       8.947   9.765  19.003  0.00  0.00    +0.000 C 
ENDROOT
BRANCH   1   2
ATOM      2  N   UNL     1       9.919  10.827  18.712  0.00  0.00    +0.000 NA
ATOM      3  C   UNL     1       9.384  11.972  17.939  0.00  0.00    +0.000 C 
ATOM      4  C   UNL     1       8.752  13.148  18.713  0.00  0.00    +0.000 C 
ATOM      5  N   UNL     1       9.492  13.512  19.927  0.00  0.00    +0.000 N 
ATOM      6  C   UNL     1      10.343  14.616  19.865  0.00  0.00    +0.000 A 
ATOM      7  C   UNL     1      10.728  15.257  21.047  0.00  0.00    +0.000 A 
ATOM      8  C   UNL     1      11.468  16.439  21.005  0.00  0.00    +0.000 A 
ATOM      9  C   UNL     1      11.828  16.966  19.774  0.00  0.00    +0.000 A 
ATOM     10  C   UNL     1      11.429  16.272  18.646  0.00  0.00    +0.000 A 
ATOM     11  N   UNL     1      10.702  15.124  18.666  0.00  0.00    +0.000 NA
ATOM     12  C   UNL     1       9.890  12.373  20.758  0.00  0.00    +0.000 C 
ATOM     13  C   UNL     1      10.622  11.300  19.925  0.00  0.00    +0.000 C 
ENDBRANCH   1   2
BRANCH   1  14
ATOM     14  C   UNL     1       8.177   9.316  17.757  0.00  0.00    +0.000 C 
BRANCH  14  16
ATOM     15  N   UNL     1       6.855   7.496  16.812  0.00  0.00    +0.000 N 
ATOM     16  C   UNL     1       7.771   7.844  17.790  0.00  0.00    +0.000 C 
ATOM     17  O   UNL     1       8.240   7.112  18.659  0.00  0.00    +0.000 OA
ATOM     18  H   UNL     1       6.776   8.166  16.050  0.00  0.00    +0.000 HD
BRANCH  15  25
ATOM     19  C   UNL     1       4.052   7.077  17.695  0.00  0.00    +0.000 C 
ATOM     20  C   UNL     1       4.892   6.030  17.013  0.00  0.00    +0.000 A 
ATOM     21  C   UNL     1       4.289   4.777  16.775  0.00  0.00    +0.000 A 
ATOM     22  C   UNL     1       4.994   3.742  16.165  0.00  0.00    +0.000 A 
ATOM     23  C   UNL     1       6.320   3.936  15.811  0.00  0.00    +0.000 A 
ATOM     24  C   UNL     1       6.935   5.166  16.047  0.00  0.00    +0.000 A 
ATOM     25  C   UNL     1       6.235   6.235  16.623  0.00  0.00    +0.000 A 
ENDBRANCH  15  25
ENDBRANCH  14  16
ENDBRANCH   1  14
TORSDOF 4
ENDMDL
