MODEL 1
REMARK VINA RESULT:      -8.3      0.000      0.000
REMARK  Name = 
REMARK  5 active torsions:
REMARK  status: ('A' for Active; 'I' for Inactive)
REMARK    1  A    between atoms: C_1  and  C_2
REMARK    2  A    between atoms: C_2  and  C_3
REMARK    3  A    between atoms: C_10  and  S_11
REMARK    4  A    between atoms: S_11  and  N_14
REMARK    5  A    between atoms: N_17  and  C_18
REMARK                            x       y       z     vdW  Elec       q    Type
REMARK                         _______ _______ _______ _____ _____    ______ ____
ROOT
ATOM      1  S   UNL     1       1.794   3.438  18.611  0.00  0.00    +0.000 S 
ATOM      2  O   UNL     1       0.927   2.805  19.590  0.00  0.00    +0.000 OA
ATOM      3  O   UNL     1       1.455   3.426  17.206  0.00  0.00    +0.000 OA
ENDROOT
BRANCH   1  11
ATOM      4  C   UNL     1       1.261   9.877  21.219  0.00  0.00    +0.000 C 
ATOM      5  O   UNL     1       1.278   9.349  22.331  0.00  0.00    +0.000 OA
ATOM      6  N   UNL     1       1.625   9.234  20.044  0.00  0.00    +0.000 N 
ATOM      7  C   UNL     1       1.908   9.872  18.747  0.00  0.00    +0.000 C 
ATOM      8  C   UNL     1       2.097   8.746  17.714  0.00  0.00    +0.000 C 
ATOM      9  C   UNL     1       2.051   7.509  18.564  0.00  0.00    +0.000 A 
ATOM     10  C   UNL     1       2.145   6.179  18.154  0.00  0.00    +0.000 A 
ATOM     11  C   UNL     1       1.903   5.167  19.102  0.00  0.00    +0.000 A 
ATOM     12  C   UNL     1       1.517   5.516  20.407  0.00  0.00    +0.000 A 
ATOM     13  C   UNL     1       1.497   6.850  20.820  0.00  0.00    +0.000 A 
ATOM     14  C   UNL     1       1.752   7.844  19.890  0.00  0.00    +0.000 A 
BRANCH   4  16
ATOM     15  C   UNL     1      -0.746  11.412  21.099  0.00  0.00    +0.000 C 
ATOM     16  C   UNL     1       0.773  11.310  21.051  0.00  0.00    +0.000 C 
ENDBRANCH   4  16
ENDBRANCH   1  11
BRANCH   1  17
ATOM     17  N   UNL     1       3.322   2.714  18.771  0.00  0.00    +0.000 NA
ATOM     18  C   UNL     1       4.162   2.489  17.575  0.00  0.00    +0.000 C 
ATOM     19  C   UNL     1       4.926   3.763  17.225  0.00  0.00    +0.000 C 
ATOM     20  N   UNL     1       5.684   4.353  18.350  0.00  0.00    +0.000 N 
ATOM     21  C   UNL     1       5.037   4.278  19.700  0.00  0.00    +0.000 C 
ATOM     22  C   UNL     1       4.183   3.017  19.929  0.00  0.00    +0.000 C 
BRANCH  20  23
ATOM     23  C   UNL     1       6.375   5.578  18.124  0.00  0.00    +0.000 A 
ATOM     24  C   UNL     1       7.492   5.845  18.950  0.00  0.00    +0.000 A 
ATOM     25  C   UNL     1       8.257   7.017  18.860  0.00  0.00    +0.000 A 
ATOM     26  C   UNL     1       7.942   7.976  17.916  0.00  0.00    +0.000 A 
ATOM     27  C   UNL     1       6.876   7.745  17.058  0.00  0.00    +0.000 A 
ATOM     28  C   UNL     1       6.105   6.572  17.140  0.00  0.00    +0.000 A 
ATOM     29 CL   UNL     1       4.847   6.539  15.944  0.00  0.00    +0.000 Cl
ENDBRANCH  20  23
ENDBRANCH   1  17
TORSDOF 4
ENDMDL
MODEL 2
REMARK VINA RESULT:      -8.1      1.099      1.405
REMARK  Name = 
REMARK  5 active torsions:
REMARK  status: ('A' for Active; 'I' for Inactive)
REMARK    1  A    between atoms: C_1  and  C_2
REMARK    2  A    between atoms: C_2  and  C_3
REMARK    3  A    between atoms: C_10  and  S_11
REMARK    4  A    between atoms: S_11  and  N_14
REMARK    5  A    between atoms: N_17  and  C_18
REMARK                            x       y       z     vdW  Elec       q    Type
REMARK                         _______ _______ _______ _____ _____    ______ ____
ROOT
ATOM      1  S   UNL     1       1.904   3.210  18.628  0.00  0.00    +0.000 S 
ATOM      2  O   UNL     1       1.085   2.536  19.620  0.00  0.00    +0.000 OA
ATOM      3  O   UNL     1       1.530   3.201  17.231  0.00  0.00    +0.000 OA
ENDROOT
BRANCH   1  11
ATOM      4  C   UNL     1       1.182   9.610  21.283  0.00  0.00    +0.000 C 
ATOM      5  O   UNL     1       1.191   9.073  22.391  0.00  0.00    +0.000 OA
ATOM      6  N   UNL     1       1.582   8.987  20.109  0.00  0.00    +0.000 N 
ATOM      7  C   UNL     1       1.874   9.643  18.823  0.00  0.00    +0.000 C 
ATOM      8  C   UNL     1       2.107   8.531  17.784  0.00  0.00    +0.000 C 
ATOM      9  C   UNL     1       2.073   7.286  18.622  0.00  0.00    +0.000 A 
ATOM     10  C   UNL     1       2.203   5.961  18.202  0.00  0.00    +0.000 A 
ATOM     11  C   UNL     1       1.966   4.935  19.136  0.00  0.00    +0.000 A 
ATOM     12  C   UNL     1       1.549   5.264  20.436  0.00  0.00    +0.000 A 
ATOM     13  C   UNL     1       1.492   6.593  20.861  0.00  0.00    +0.000 A 
ATOM     14  C   UNL     1       1.742   7.601  19.945  0.00  0.00    +0.000 A 
BRANCH   4  16
ATOM     15  C   UNL     1      -0.472  11.350  22.081  0.00  0.00    +0.000 C 
ATOM     16  C   UNL     1       0.666  11.034  21.119  0.00  0.00    +0.000 C 
ENDBRANCH   4  16
ENDBRANCH   1  11
BRANCH   1  17
ATOM     17  N   UNL     1       3.459   2.537  18.741  0.00  0.00    +0.000 NA
ATOM     18  C   UNL     1       4.288   2.381  17.526  0.00  0.00    +0.000 C 
ATOM     19  C   UNL     1       5.000   3.693  17.207  0.00  0.00    +0.000 C 
ATOM     20  N   UNL     1       5.754   4.274  18.340  0.00  0.00    +0.000 N 
ATOM     21  C   UNL     1       5.132   4.132  19.696  0.00  0.00    +0.000 C 
ATOM     22  C   UNL     1       4.327   2.834  19.896  0.00  0.00    +0.000 C 
BRANCH  20  23
ATOM     23  C   UNL     1       6.397   5.530  18.143  0.00  0.00    +0.000 A 
ATOM     24  C   UNL     1       5.800   6.416  17.216  0.00  0.00    +0.000 A 
ATOM     25  C   UNL     1       6.329   7.676  16.902  0.00  0.00    +0.000 A 
ATOM     26  C   UNL     1       7.483   8.116  17.523  0.00  0.00    +0.000 A 
ATOM     27  C   UNL     1       8.087   7.297  18.467  0.00  0.00    +0.000 A 
ATOM     28  C   UNL     1       7.563   6.032  18.789  0.00  0.00    +0.000 A 
ATOM     29 CL   UNL     1       8.508   5.230  20.004  0.00  0.00    +0.000 Cl
ENDBRANCH  20  23
ENDBRANCH   1  17
TORSDOF 4
ENDMDL
MODEL 3
REMARK VINA RESULT:      -7.7      2.879      4.042
REMARK  Name = 
REMARK  5 active torsions:
REMARK  status: ('A' for Active; 'I' for Inactive)
REMARK    1  A    between atoms: C_1  and  C_2
REMARK    2  A    between atoms: C_2  and  C_3
REMARK    3  A    between atoms: C_10  and  S_11
REMARK    4  A    between atoms: S_11  and  N_14
REMARK    5  A    between atoms: N_17  and  C_18
REMARK                            x       y       z     vdW  Elec       q    Type
REMARK                         _______ _______ _______ _____ _____    ______ ____
ROOT
ATOM      1  S   UNL     1       3.831   5.334  18.488  0.00  0.00    +0.000 S 
ATOM      2  O   UNL     1       3.985   4.547  19.700  0.00  0.00    +0.000 OA
ATOM      3  O   UNL     1       3.293   4.741  17.285  0.00  0.00    +0.000 OA
ENDROOT
BRANCH   1  11
ATOM      4  C   UNL     1       0.350  11.281  19.514  0.00  0.00    +0.000 C 
ATOM      5  O   UNL     1       0.342  11.403  18.288  0.00  0.00    +0.000 OA
ATOM      6  N   UNL     1       0.657  10.103  20.180  0.00  0.00    +0.000 N 
ATOM      7  C   UNL     1       0.405   9.806  21.600  0.00  0.00    +0.000 C 
ATOM      8  C   UNL     1       1.071   8.454  21.911  0.00  0.00    +0.000 C 
ATOM      9  C   UNL     1       1.542   8.001  20.560  0.00  0.00    +0.000 A 
ATOM     10  C   UNL     1       2.244   6.838  20.238  0.00  0.00    +0.000 A 
ATOM     11  C   UNL     1       2.738   6.695  18.927  0.00  0.00    +0.000 A 
ATOM     12  C   UNL     1       2.568   7.740  18.004  0.00  0.00    +0.000 A 
ATOM     13  C   UNL     1       1.803   8.864  18.320  0.00  0.00    +0.000 A 
ATOM     14  C   UNL     1       1.303   8.995  19.605  0.00  0.00    +0.000 A 
BRANCH   4  16
ATOM     15  C   UNL     1       1.311  13.284  20.724  0.00  0.00    +0.000 C 
ATOM     16  C   UNL     1       0.057  12.477  20.411  0.00  0.00    +0.000 C 
ENDBRANCH   4  16
ENDBRANCH   1  11
BRANCH   1  17
ATOM     17  N   UNL     1       5.368   5.950  18.108  0.00  0.00    +0.000 NA
ATOM     18  C   UNL     1       6.535   5.043  18.056  0.00  0.00    +0.000 C 
ATOM     19  C   UNL     1       6.600   4.351  16.697  0.00  0.00    +0.000 C 
ATOM     20  N   UNL     1       6.537   5.267  15.537  0.00  0.00    +0.000 N 
ATOM     21  C   UNL     1       5.628   6.450  15.671  0.00  0.00    +0.000 C 
ATOM     22  C   UNL     1       5.524   7.015  17.100  0.00  0.00    +0.000 C 
BRANCH  20  23
ATOM     23  C   UNL     1       6.529   4.695  14.231  0.00  0.00    +0.000 A 
ATOM     24  C   UNL     1       5.451   3.835  13.916  0.00  0.00    +0.000 A 
ATOM     25  C   UNL     1       5.318   3.184  12.682  0.00  0.00    +0.000 A 
ATOM     26  C   UNL     1       6.263   3.380  11.692  0.00  0.00    +0.000 A 
ATOM     27  C   UNL     1       7.322   4.242  11.941  0.00  0.00    +0.000 A 
ATOM     28  C   UNL     1       7.462   4.901  13.176  0.00  0.00    +0.000 A 
ATOM     29 CL   UNL     1       8.865   5.923  13.209  0.00  0.00    +0.000 Cl
ENDBRANCH  20  23
ENDBRANCH   1  17
TORSDOF 4
ENDMDL
MODEL 4
REMARK VINA RESULT:      -7.5      4.058      9.446
REMARK  Name = 
REMARK  5 active torsions:
REMARK  status: ('A' for Active; 'I' for Inactive)
REMARK    1  A    between atoms: C_1  and  C_2
REMARK    2  A    between atoms: C_2  and  C_3
REMARK    3  A    between atoms: C_10  and  S_11
REMARK    4  A    between atoms: S_11  and  N_14
REMARK    5  A    between atoms: N_17  and  C_18
REMARK                            x       y       z     vdW  Elec       q    Type
REMARK                         _______ _______ _______ _____ _____    ______ ____
ROOT
ATOM      1  S   UNL     1       0.439  10.054  19.955  0.00  0.00    +0.000 S 
ATOM      2  O   UNL     1      -0.675   9.286  20.484  0.00  0.00    +0.000 OA
ATOM      3  O   UNL     1       1.156  10.988  20.793  0.00  0.00    +0.000 OA
ENDROOT
BRANCH   1  11
ATOM      4  C   UNL     1       4.670   5.616  16.647  0.00  0.00    +0.000 C 
ATOM      5  O   UNL     1       4.989   6.567  15.933  0.00  0.00    +0.000 OA
ATOM      6  N   UNL     1       3.991   5.737  17.852  0.00  0.00    +0.000 N 
ATOM      7  C   UNL     1       3.840   4.697  18.883  0.00  0.00    +0.000 C 
ATOM      8  C   UNL     1       2.870   5.241  19.946  0.00  0.00    +0.000 C 
ATOM      9  C   UNL     1       2.651   6.657  19.496  0.00  0.00    +0.000 A 
ATOM     10  C   UNL     1       1.832   7.627  20.075  0.00  0.00    +0.000 A 
ATOM     11  C   UNL     1       1.641   8.841  19.387  0.00  0.00    +0.000 A 
ATOM     12  C   UNL     1       2.223   9.019  18.122  0.00  0.00    +0.000 A 
ATOM     13  C   UNL     1       3.097   8.069  17.589  0.00  0.00    +0.000 A 
ATOM     14  C   UNL     1       3.296   6.883  18.275  0.00  0.00    +0.000 A 
BRANCH   4  16
ATOM     15  C   UNL     1       5.639   4.128  14.846  0.00  0.00    +0.000 C 
ATOM     16  C   UNL     1       4.970   4.187  16.213  0.00  0.00    +0.000 C 
ENDBRANCH   4  16
ENDBRANCH   1  11
BRANCH   1  17
ATOM     17  N   UNL     1      -0.155  10.921  18.621  0.00  0.00    +0.000 NA
ATOM     18  C   UNL     1      -1.208  10.331  17.766  0.00  0.00    +0.000 C 
ATOM     19  C   UNL     1      -2.581  10.568  18.389  0.00  0.00    +0.000 C 
ATOM     20  N   UNL     1      -2.859  11.977  18.746  0.00  0.00    +0.000 N 
ATOM     21  C   UNL     1      -1.706  12.767  19.285  0.00  0.00    +0.000 C 
ATOM     22  C   UNL     1      -0.337  12.382  18.692  0.00  0.00    +0.000 C 
BRANCH  20  23
ATOM     23  C   UNL     1      -4.096  12.273  19.390  0.00  0.00    +0.000 A 
ATOM     24  C   UNL     1      -4.046  12.538  20.779  0.00  0.00    +0.000 A 
ATOM     25  C   UNL     1      -5.181  12.824  21.552  0.00  0.00    +0.000 A 
ATOM     26  C   UNL     1      -6.427  12.873  20.956  0.00  0.00    +0.000 A 
ATOM     27  C   UNL     1      -6.523  12.655  19.589  0.00  0.00    +0.000 A 
ATOM     28  C   UNL     1      -5.391  12.369  18.806  0.00  0.00    +0.000 A 
ATOM     29 CL   UNL     1      -5.798  12.151  17.133  0.00  0.00    +0.000 Cl
ENDBRANCH  20  23
ENDBRANCH   1  17
TORSDOF 4
ENDMDL
MODEL 5
REMARK VINA RESULT:      -7.4      3.960      9.561
REMARK  Name = 
REMARK  5 active torsions:
REMARK  status: ('A' for Active; 'I' for Inactive)
REMARK    1  A    between atoms: C_1  and  C_2
REMARK    2  A    between atoms: C_2  and  C_3
REMARK    3  A    between atoms: C_10  and  S_11
REMARK    4  A    between atoms: S_11  and  N_14
REMARK    5  A    between atoms: N_17  and  C_18
REMARK                            x       y       z     vdW  Elec       q    Type
REMARK                         _______ _______ _______ _____ _____    ______ ____
ROOT
ATOM      1  S   UNL     1       0.223  10.787  19.567  0.00  0.00    +0.000 S 
ATOM      2  O   UNL     1       0.707  11.777  18.620  0.00  0.00    +0.000 OA
ATOM      3  O   UNL     1      -1.141  10.312  19.506  0.00  0.00    +0.000 OA
ENDROOT
BRANCH   1  11
ATOM      4  C   UNL     1       3.976   5.265  17.577  0.00  0.00    +0.000 C 
ATOM      5  O   UNL     1       4.436   5.988  16.692  0.00  0.00    +0.000 OA
ATOM      6  N   UNL     1       3.278   5.731  18.682  0.00  0.00    +0.000 N 
ATOM      7  C   UNL     1       2.963   4.974  19.905  0.00  0.00    +0.000 C 
ATOM      8  C   UNL     1       2.032   5.851  20.761  0.00  0.00    +0.000 C 
ATOM      9  C   UNL     1       2.007   7.144  19.999  0.00  0.00    +0.000 A 
ATOM     10  C   UNL     1       1.297   8.307  20.300  0.00  0.00    +0.000 A 
ATOM     11  C   UNL     1       1.283   9.348  19.353  0.00  0.00    +0.000 A 
ATOM     12  C   UNL     1       1.926   9.170  18.117  0.00  0.00    +0.000 A 
ATOM     13  C   UNL     1       2.691   8.031  17.860  0.00  0.00    +0.000 A 
ATOM     14  C   UNL     1       2.717   7.014  18.800  0.00  0.00    +0.000 A 
BRANCH   4  16
ATOM     15  C   UNL     1       2.778   3.069  17.203  0.00  0.00    +0.000 C 
ATOM     16  C   UNL     1       4.110   3.751  17.485  0.00  0.00    +0.000 C 
ENDBRANCH   4  16
ENDBRANCH   1  11
BRANCH   1  17
ATOM     17  N   UNL     1       0.466  11.436  21.117  0.00  0.00    +0.000 NA
ATOM     18  C   UNL     1       0.278  12.884  21.351  0.00  0.00    +0.000 C 
ATOM     19  C   UNL     1      -1.200  13.190  21.576  0.00  0.00    +0.000 C 
ATOM     20  N   UNL     1      -1.849  12.358  22.612  0.00  0.00    +0.000 N 
ATOM     21  C   UNL     1      -1.418  10.924  22.681  0.00  0.00    +0.000 C 
ATOM     22  C   UNL     1       0.060  10.685  22.321  0.00  0.00    +0.000 C 
BRANCH  20  23
ATOM     23  C   UNL     1      -3.245  12.538  22.841  0.00  0.00    +0.000 A 
ATOM     24  C   UNL     1      -3.684  12.492  24.185  0.00  0.00    +0.000 A 
ATOM     25  C   UNL     1      -5.027  12.632  24.563  0.00  0.00    +0.000 A 
ATOM     26  C   UNL     1      -5.998  12.841  23.601  0.00  0.00    +0.000 A 
ATOM     27  C   UNL     1      -5.611  12.928  22.271  0.00  0.00    +0.000 A 
ATOM     28  C   UNL     1      -4.266  12.792  21.882  0.00  0.00    +0.000 A 
ATOM     29 CL   UNL     1      -4.068  12.955  20.165  0.00  0.00    +0.000 Cl
ENDBRANCH  20  23
ENDBRANCH   1  17
TORSDOF 4
ENDMDL
MODEL 6
REMARK VINA RESULT:      -7.4      2.715      3.686
REMARK  Name = 
REMARK  5 active torsions:
REMARK  status: ('A' for Active; 'I' for Inactive)
REMARK    1  A    between atoms: C_1  and  C_2
REMARK    2  A    between atoms: C_2  and  C_3
REMARK    3  A    between atoms: C_10  and  S_11
REMARK    4  A    between atoms: S_11  and  N_14
REMARK    5  A    between atoms: N_17  and  C_18
REMARK                            x       y       z     vdW  Elec       q    Type
REMARK                         _______ _______ _______ _____ _____    ______ ____
ROOT
ATOM      1  S   UNL     1       3.720   5.352  18.486  0.00  0.00    +0.000 S 
ATOM      2  O   UNL     1       3.715   4.386  19.570  0.00  0.00    +0.000 OA
ATOM      3  O   UNL     1       3.115   5.037  17.212  0.00  0.00    +0.000 OA
ENDROOT
BRANCH   1  11
ATOM      4  C   UNL     1      -0.270  10.165  21.561  0.00  0.00    +0.000 C 
ATOM      5  O   UNL     1       0.016   9.616  22.626  0.00  0.00    +0.000 OA
ATOM      6  N   UNL     1       0.403   9.950  20.366  0.00  0.00    +0.000 N 
ATOM      7  C   UNL     1       0.313  10.772  19.148  0.00  0.00    +0.000 C 
ATOM      8  C   UNL     1       1.100  10.044  18.044  0.00  0.00    +0.000 C 
ATOM      9  C   UNL     1       1.721   8.896  18.786  0.00  0.00    +0.000 A 
ATOM     10  C   UNL     1       2.531   7.879  18.277  0.00  0.00    +0.000 A 
ATOM     11  C   UNL     1       2.864   6.803  19.121  0.00  0.00    +0.000 A 
ATOM     12  C   UNL     1       2.330   6.748  20.419  0.00  0.00    +0.000 A 
ATOM     13  C   UNL     1       1.581   7.807  20.936  0.00  0.00    +0.000 A 
ATOM     14  C   UNL     1       1.269   8.873  20.110  0.00  0.00    +0.000 A 
BRANCH   4  16
ATOM     15  C   UNL     1      -1.720  11.830  22.795  0.00  0.00    +0.000 C 
ATOM     16  C   UNL     1      -1.456  11.117  21.475  0.00  0.00    +0.000 C 
ENDBRANCH   4  16
ENDBRANCH   1  11
BRANCH   1  17
ATOM     17  N   UNL     1       5.346   5.747  18.192  0.00  0.00    +0.000 NA
ATOM     18  C   UNL     1       6.362   4.676  18.106  0.00  0.00    +0.000 C 
ATOM     19  C   UNL     1       6.371   4.074  16.703  0.00  0.00    +0.000 C 
ATOM     20  N   UNL     1       6.493   5.064  15.611  0.00  0.00    +0.000 N 
ATOM     21  C   UNL     1       5.771   6.362  15.805  0.00  0.00    +0.000 C 
ATOM     22  C   UNL     1       5.701   6.840  17.267  0.00  0.00    +0.000 C 
BRANCH  20  23
ATOM     23  C   UNL     1       6.446   4.588  14.268  0.00  0.00    +0.000 A 
ATOM     24  C   UNL     1       5.344   3.774  13.915  0.00  0.00    +0.000 A 
ATOM     25  C   UNL     1       5.173   3.217  12.640  0.00  0.00    +0.000 A 
ATOM     26  C   UNL     1       6.102   3.467  11.646  0.00  0.00    +0.000 A 
ATOM     27  C   UNL     1       7.182   4.288  11.934  0.00  0.00    +0.000 A 
ATOM     28  C   UNL     1       7.361   4.853  13.209  0.00  0.00    +0.000 A 
ATOM     29 CL   UNL     1       8.786   5.842  13.286  0.00  0.00    +0.000 Cl
ENDBRANCH  20  23
ENDBRANCH   1  17
TORSDOF 4
ENDMDL
MODEL 7
REMARK VINA RESULT:      -7.4      3.344      8.654
REMARK  Name = 
REMARK  5 active torsions:
REMARK  status: ('A' for Active; 'I' for Inactive)
REMARK    1  A    between atoms: C_1  and  C_2
REMARK    2  A    between atoms: C_2  and  C_3
REMARK    3  A    between atoms: C_10  and  S_11
REMARK    4  A    between atoms: S_11  and  N_14
REMARK    5  A    between atoms: N_17  and  C_18
REMARK                            x       y       z     vdW  Elec       q    Type
REMARK                         _______ _______ _______ _____ _____    ______ ____
ROOT
ATOM      1  S   UNL     1       0.876   9.347  20.923  0.00  0.00    +0.000 S 
ATOM      2  O   UNL     1      -0.551   9.127  21.076  0.00  0.00    +0.000 OA
ATOM      3  O   UNL     1       1.675   9.815  22.033  0.00  0.00    +0.000 OA
ENDROOT
BRANCH   1  11
ATOM      4  C   UNL     1       3.313   3.584  17.858  0.00  0.00    +0.000 C 
ATOM      5  O   UNL     1       4.012   4.332  17.173  0.00  0.00    +0.000 OA
ATOM      6  N   UNL     1       2.657   3.974  19.018  0.00  0.00    +0.000 N 
ATOM      7  C   UNL     1       2.059   3.085  20.028  0.00  0.00    +0.000 C 
ATOM      8  C   UNL     1       1.303   3.974  21.031  0.00  0.00    +0.000 C 
ATOM      9  C   UNL     1       1.664   5.359  20.580  0.00  0.00    +0.000 A 
ATOM     10  C   UNL     1       1.238   6.577  21.113  0.00  0.00    +0.000 A 
ATOM     11  C   UNL     1       1.564   7.760  20.424  0.00  0.00    +0.000 A 
ATOM     12  C   UNL     1       2.248   7.685  19.200  0.00  0.00    +0.000 A 
ATOM     13  C   UNL     1       2.729   6.466  18.716  0.00  0.00    +0.000 A 
ATOM     14  C   UNL     1       2.422   5.304  19.405  0.00  0.00    +0.000 A 
BRANCH   4  16
ATOM     15  C   UNL     1       3.982   1.166  18.174  0.00  0.00    +0.000 C 
ATOM     16  C   UNL     1       3.077   2.141  17.432  0.00  0.00    +0.000 C 
ENDBRANCH   4  16
ENDBRANCH   1  11
BRANCH   1  17
ATOM     17  N   UNL     1       1.065  10.463  19.656  0.00  0.00    +0.000 NA
ATOM     18  C   UNL     1       0.807  10.047  18.261  0.00  0.00    +0.000 C 
ATOM     19  C   UNL     1      -0.687  10.126  17.959  0.00  0.00    +0.000 C 
ATOM     20  N   UNL     1      -1.313  11.425  18.291  0.00  0.00    +0.000 N 
ATOM     21  C   UNL     1      -0.817  12.105  19.531  0.00  0.00    +0.000 C 
ATOM     22  C   UNL     1       0.676  11.875  19.831  0.00  0.00    +0.000 C 
BRANCH  20  23
ATOM     23  C   UNL     1      -2.718  11.561  18.097  0.00  0.00    +0.000 A 
ATOM     24  C   UNL     1      -3.477  12.005  19.206  0.00  0.00    +0.000 A 
ATOM     25  C   UNL     1      -4.869  12.166  19.173  0.00  0.00    +0.000 A 
ATOM     26  C   UNL     1      -5.569  11.901  18.010  0.00  0.00    +0.000 A 
ATOM     27  C   UNL     1      -4.864  11.496  16.885  0.00  0.00    +0.000 A 
ATOM     28  C   UNL     1      -3.468  11.334  16.908  0.00  0.00    +0.000 A 
ATOM     29 CL   UNL     1      -2.849  10.832  15.366  0.00  0.00    +0.000 Cl
ENDBRANCH  20  23
ENDBRANCH   1  17
TORSDOF 4
ENDMDL
MODEL 8
REMARK VINA RESULT:      -7.4      4.566      9.020
REMARK  Name = 
REMARK  5 active torsions:
REMARK  status: ('A' for Active; 'I' for Inactive)
REMARK    1  A    between atoms: C_1  and  C_2
REMARK    2  A    between atoms: C_2  and  C_3
REMARK    3  A    between atoms: C_10  and  S_11
REMARK    4  A    between atoms: S_11  and  N_14
REMARK    5  A    between atoms: N_17  and  C_18
REMARK                            x       y       z     vdW  Elec       q    Type
REMARK                         _______ _______ _______ _____ _____    ______ ____
ROOT
ATOM      1  S   UNL     1       0.102  11.184  19.515  0.00  0.00    +0.000 S 
ATOM      2  O   UNL     1       0.048  11.797  18.199  0.00  0.00    +0.000 OA
ATOM      3  O   UNL     1      -1.107  10.745  20.176  0.00  0.00    +0.000 OA
ENDROOT
BRANCH   1  11
ATOM      4  C   UNL     1       3.842   5.612  17.642  0.00  0.00    +0.000 C 
ATOM      5  O   UNL     1       4.335   6.328  16.769  0.00  0.00    +0.000 OA
ATOM      6  N   UNL     1       3.118   6.089  18.726  0.00  0.00    +0.000 N 
ATOM      7  C   UNL     1       2.759   5.338  19.941  0.00  0.00    +0.000 C 
ATOM      8  C   UNL     1       1.816   6.229  20.769  0.00  0.00    +0.000 C 
ATOM      9  C   UNL     1       1.828   7.521  20.005  0.00  0.00    +0.000 A 
ATOM     10  C   UNL     1       1.124   8.693  20.283  0.00  0.00    +0.000 A 
ATOM     11  C   UNL     1       1.149   9.732  19.334  0.00  0.00    +0.000 A 
ATOM     12  C   UNL     1       1.825   9.543  18.117  0.00  0.00    +0.000 A 
ATOM     13  C   UNL     1       2.583   8.394  17.884  0.00  0.00    +0.000 A 
ATOM     14  C   UNL     1       2.570   7.379  18.826  0.00  0.00    +0.000 A 
BRANCH   4  16
ATOM     15  C   UNL     1       2.685   3.447  17.033  0.00  0.00    +0.000 C 
ATOM     16  C   UNL     1       3.960   4.096  17.557  0.00  0.00    +0.000 C 
ENDBRANCH   4  16
ENDBRANCH   1  11
BRANCH   1  17
ATOM     17  N   UNL     1       0.865  12.300  20.543  0.00  0.00    +0.000 NA
ATOM     18  C   UNL     1       2.216  12.803  20.215  0.00  0.00    +0.000 C 
ATOM     19  C   UNL     1       2.118  13.956  19.220  0.00  0.00    +0.000 C 
ATOM     20  N   UNL     1       1.190  15.037  19.621  0.00  0.00    +0.000 N 
ATOM     21  C   UNL     1      -0.067  14.610  20.318  0.00  0.00    +0.000 C 
ATOM     22  C   UNL     1       0.090  13.364  21.209  0.00  0.00    +0.000 C 
BRANCH  20  23
ATOM     23  C   UNL     1       0.993  16.122  18.718  0.00  0.00    +0.000 A 
ATOM     24  C   UNL     1      -0.341  16.541  18.503  0.00  0.00    +0.000 A 
ATOM     25  C   UNL     1      -0.692  17.579  17.629  0.00  0.00    +0.000 A 
ATOM     26  C   UNL     1       0.291  18.260  16.935  0.00  0.00    +0.000 A 
ATOM     27  C   UNL     1       1.617  17.908  17.138  0.00  0.00    +0.000 A 
ATOM     28  C   UNL     1       1.979  16.870  18.015  0.00  0.00    +0.000 A 
ATOM     29 CL   UNL     1       3.700  16.651  18.085  0.00  0.00    +0.000 Cl
ENDBRANCH  20  23
ENDBRANCH   1  17
TORSDOF 4
ENDMDL
MODEL 9
REMARK VINA RESULT:      -7.3      4.153      9.669
REMARK  Name = 
REMARK  5 active torsions:
REMARK  status: ('A' for Active; 'I' for Inactive)
REMARK    1  A    between atoms: C_1  and  C_2
REMARK    2  A    between atoms: C_2  and  C_3
REMARK    3  A    between atoms: C_10  and  S_11
REMARK    4  A    between atoms: S_11  and  N_14
REMARK    5  A    between atoms: N_17  and  C_18
REMARK                            x       y       z     vdW  Elec       q    Type
REMARK                         _______ _______ _______ _____ _____    ______ ____
ROOT
ATOM      1  S   UNL     1       0.265  10.485  19.736  0.00  0.00    +0.000 S 
ATOM      2  O   UNL     1       0.498  11.532  18.757  0.00  0.00    +0.000 OA
ATOM      3  O   UNL     1      -1.036   9.868  19.863  0.00  0.00    +0.000 OA
ENDROOT
BRANCH   1  11
ATOM      4  C   UNL     1       4.389   5.575  17.010  0.00  0.00    +0.000 C 
ATOM      5  O   UNL     1       4.788   6.444  16.235  0.00  0.00    +0.000 OA
ATOM      6  N   UNL     1       3.668   5.833  18.168  0.00  0.00    +0.000 N 
ATOM      7  C   UNL     1       3.417   4.893  19.274  0.00  0.00    +0.000 C 
ATOM      8  C   UNL     1       2.434   5.574  20.241  0.00  0.00    +0.000 C 
ATOM      9  C   UNL     1       2.310   6.955  19.666  0.00  0.00    +0.000 A 
ATOM     10  C   UNL     1       1.520   8.011  20.123  0.00  0.00    +0.000 A 
ATOM     11  C   UNL     1       1.424   9.169  19.328  0.00  0.00    +0.000 A 
ATOM     12  C   UNL     1       2.068   9.210  18.080  0.00  0.00    +0.000 A 
ATOM     13  C   UNL     1       2.911   8.175  17.670  0.00  0.00    +0.000 A 
ATOM     14  C   UNL     1       3.017   7.043  18.461  0.00  0.00    +0.000 A 
BRANCH   4  16
ATOM     15  C   UNL     1       5.698   3.897  15.643  0.00  0.00    +0.000 C 
ATOM     16  C   UNL     1       4.630   4.101  16.711  0.00  0.00    +0.000 C 
ENDBRANCH   4  16
ENDBRANCH   1  11
BRANCH   1  17
ATOM     17  N   UNL     1       0.669  11.135  21.253  0.00  0.00    +0.000 NA
ATOM     18  C   UNL     1       0.822  12.597  21.413  0.00  0.00    +0.000 C 
ATOM     19  C   UNL     1      -0.543  13.247  21.622  0.00  0.00    +0.000 C 
ATOM     20  N   UNL     1      -1.354  12.638  22.699  0.00  0.00    +0.000 N 
ATOM     21  C   UNL     1      -1.264  11.149  22.840  0.00  0.00    +0.000 C 
ATOM     22  C   UNL     1       0.115  10.558  22.492  0.00  0.00    +0.000 C 
BRANCH  20  23
ATOM     23  C   UNL     1      -2.668  13.146  22.918  0.00  0.00    +0.000 A 
ATOM     24  C   UNL     1      -3.708  12.587  22.139  0.00  0.00    +0.000 A 
ATOM     25  C   UNL     1      -5.045  12.999  22.227  0.00  0.00    +0.000 A 
ATOM     26  C   UNL     1      -5.406  13.990  23.121  0.00  0.00    +0.000 A 
ATOM     27  C   UNL     1      -4.426  14.545  23.933  0.00  0.00    +0.000 A 
ATOM     28  C   UNL     1      -3.083  14.137  23.853  0.00  0.00    +0.000 A 
ATOM     29 CL   UNL     1      -2.079  14.987  24.986  0.00  0.00    +0.000 Cl
ENDBRANCH  20  23
ENDBRANCH   1  17
TORSDOF 4
ENDMDL
