MODEL 1
REMARK VINA RESULT:      -7.4      0.000      0.000
REMARK  Name = 
REMARK  2 active torsions:
REMARK  status: ('A' for Active; 'I' for Inactive)
REMARK    1  A    between atoms: C_1  and  N_2
REMARK    2  A    between atoms: C_3  and  C_4
REMARK                            x       y       z     vdW  Elec       q    Type
REMARK                         _______ _______ _______ _____ _____    ______ ____
ROOT
ATOM      1  C   UNL     1       5.338   5.172  19.434  0.00  0.00    +0.000 C 
ATOM      2  N   UNL     1       4.995   4.673  18.124  0.00  0.00    +0.000 N 
ATOM      3  C   UNL     1       3.904   3.924  17.756  0.00  0.00    +0.000 A 
ATOM      4  N   UNL     1       4.007   3.544  16.494  0.00  0.00    +0.000 NA
ATOM      5  C   UNL     1       5.163   4.144  16.005  0.00  0.00    +0.000 A 
ATOM      6  C   UNL     1       5.757   4.144  14.708  0.00  0.00    +0.000 A 
ATOM      7  C   UNL     1       5.173   3.466  13.620  0.00  0.00    +0.000 A 
ATOM      8  C   UNL     1       5.782   3.498  12.361  0.00  0.00    +0.000 A 
ATOM      9  C   UNL     1       6.969   4.202  12.168  0.00  0.00    +0.000 A 
ATOM     10  C   UNL     1       7.559   4.876  13.239  0.00  0.00    +0.000 A 
ATOM     11  C   UNL     1       6.968   4.860  14.510  0.00  0.00    +0.000 A 
ATOM     12  C   UNL     1       7.562   5.547  15.573  0.00  0.00    +0.000 A 
ATOM     13  C   UNL     1       6.990   5.557  16.845  0.00  0.00    +0.000 A 
ATOM     14  C   UNL     1       5.796   4.853  17.021  0.00  0.00    +0.000 A 
ENDROOT
BRANCH   3  15
ATOM     15  C   UNL     1       2.822   3.564  18.621  0.00  0.00    +0.000 A 
ATOM     16  C   UNL     1       1.545   4.083  18.745  0.00  0.00    +0.000 A 
ATOM     17  C   UNL     1       0.922   3.455  19.849  0.00  0.00    +0.000 A 
ATOM     18  C   UNL     1       1.803   2.513  20.328  0.00  0.00    +0.000 A 
ATOM     19  N   UNL     1       2.928   2.545  19.540  0.00  0.00    +0.000 N 
ATOM     20  H   UNL     1       3.743   1.954  19.641  0.00  0.00    +0.000 HD
ENDBRANCH   3  15
TORSDOF 1
ENDMDL
MODEL 2
REMARK VINA RESULT:      -7.4      3.267      4.405
REMARK  Name = 
REMARK  2 active torsions:
REMARK  status: ('A' for Active; 'I' for Inactive)
REMARK    1  A    between atoms: C_1  and  N_2
REMARK    2  A    between atoms: C_3  and  C_4
REMARK                            x       y       z     vdW  Elec       q    Type
REMARK                         _______ _______ _______ _____ _____    ______ ____
ROOT
ATOM      1  C   UNL     1       1.372   4.951  20.696  0.00  0.00    +0.000 C 
ATOM      2  N   UNL     1       2.212   5.594  19.715  0.00  0.00    +0.000 N 
ATOM      3  C   UNL     1       2.354   6.936  19.463  0.00  0.00    +0.000 A 
ATOM      4  N   UNL     1       3.112   7.131  18.397  0.00  0.00    +0.000 NA
ATOM      5  C   UNL     1       3.547   5.871  18.001  0.00  0.00    +0.000 A 
ATOM      6  C   UNL     1       4.425   5.455  16.955  0.00  0.00    +0.000 A 
ATOM      7  C   UNL     1       5.049   6.378  16.093  0.00  0.00    +0.000 A 
ATOM      8  C   UNL     1       5.910   5.931  15.086  0.00  0.00    +0.000 A 
ATOM      9  C   UNL     1       6.162   4.570  14.926  0.00  0.00    +0.000 A 
ATOM     10  C   UNL     1       5.549   3.644  15.772  0.00  0.00    +0.000 A 
ATOM     11  C   UNL     1       4.682   4.067  16.789  0.00  0.00    +0.000 A 
ATOM     12  C   UNL     1       4.080   3.133  17.637  0.00  0.00    +0.000 A 
ATOM     13  C   UNL     1       3.223   3.527  18.664  0.00  0.00    +0.000 A 
ATOM     14  C   UNL     1       2.985   4.896  18.818  0.00  0.00    +0.000 A 
ENDROOT
BRANCH   3  15
ATOM     15  C   UNL     1       1.737   7.986  20.216  0.00  0.00    +0.000 A 
ATOM     16  C   UNL     1       1.023   9.099  19.809  0.00  0.00    +0.000 A 
ATOM     17  C   UNL     1       0.755   9.890  20.951  0.00  0.00    +0.000 A 
ATOM     18  C   UNL     1       1.245   9.206  22.039  0.00  0.00    +0.000 A 
ATOM     19  N   UNL     1       1.786   8.026  21.590  0.00  0.00    +0.000 N 
ATOM     20  H   UNL     1       2.210   7.308  22.165  0.00  0.00    +0.000 HD
ENDBRANCH   3  15
TORSDOF 1
ENDMDL
MODEL 3
REMARK VINA RESULT:      -7.3      1.403      6.154
REMARK  Name = 
REMARK  2 active torsions:
REMARK  status: ('A' for Active; 'I' for Inactive)
REMARK    1  A    between atoms: C_1  and  N_2
REMARK    2  A    between atoms: C_3  and  C_4
REMARK                            x       y       z     vdW  Elec       q    Type
REMARK                         _______ _______ _______ _____ _____    ______ ____
ROOT
ATOM      1  C   UNL     1       7.135   6.171  16.946  0.00  0.00    +0.000 C 
ATOM      2  N   UNL     1       6.004   5.283  16.830  0.00  0.00    +0.000 N 
ATOM      3  C   UNL     1       5.574   4.590  15.724  0.00  0.00    +0.000 A 
ATOM      4  N   UNL     1       4.422   3.989  15.973  0.00  0.00    +0.000 NA
ATOM      5  C   UNL     1       4.145   4.230  17.314  0.00  0.00    +0.000 A 
ATOM      6  C   UNL     1       3.077   3.796  18.156  0.00  0.00    +0.000 A 
ATOM      7  C   UNL     1       2.050   2.955  17.684  0.00  0.00    +0.000 A 
ATOM      8  C   UNL     1       1.026   2.544  18.544  0.00  0.00    +0.000 A 
ATOM      9  C   UNL     1       1.012   2.958  19.875  0.00  0.00    +0.000 A 
ATOM     10  C   UNL     1       2.023   3.793  20.354  0.00  0.00    +0.000 A 
ATOM     11  C   UNL     1       3.060   4.218  19.513  0.00  0.00    +0.000 A 
ATOM     12  C   UNL     1       4.074   5.047  20.005  0.00  0.00    +0.000 A 
ATOM     13  C   UNL     1       5.124   5.476  19.194  0.00  0.00    +0.000 A 
ATOM     14  C   UNL     1       5.129   5.046  17.863  0.00  0.00    +0.000 A 
ENDROOT
BRANCH   3  15
ATOM     15  C   UNL     1       6.248   4.551  14.462  0.00  0.00    +0.000 A 
ATOM     16  C   UNL     1       6.025   3.780  13.336  0.00  0.00    +0.000 A 
ATOM     17  C   UNL     1       7.067   4.039  12.414  0.00  0.00    +0.000 A 
ATOM     18  C   UNL     1       7.859   5.018  12.965  0.00  0.00    +0.000 A 
ATOM     19  N   UNL     1       7.321   5.365  14.181  0.00  0.00    +0.000 N 
ATOM     20  H   UNL     1       7.680   6.071  14.812  0.00  0.00    +0.000 HD
ENDBRANCH   3  15
TORSDOF 1
ENDMDL
MODEL 4
REMARK VINA RESULT:      -7.3      2.156      6.439
REMARK  Name = 
REMARK  2 active torsions:
REMARK  status: ('A' for Active; 'I' for Inactive)
REMARK    1  A    between atoms: C_1  and  N_2
REMARK    2  A    between atoms: C_3  and  C_4
REMARK                            x       y       z     vdW  Elec       q    Type
REMARK                         _______ _______ _______ _____ _____    ______ ____
ROOT
ATOM      1  C   UNL     1       6.601   4.395  15.998  0.00  0.00    +0.000 C 
ATOM      2  N   UNL     1       5.708   4.727  17.082  0.00  0.00    +0.000 N 
ATOM      3  C   UNL     1       5.832   5.731  18.011  0.00  0.00    +0.000 A 
ATOM      4  N   UNL     1       4.885   5.634  18.929  0.00  0.00    +0.000 NA
ATOM      5  C   UNL     1       4.068   4.583  18.527  0.00  0.00    +0.000 A 
ATOM      6  C   UNL     1       2.868   4.047  19.082  0.00  0.00    +0.000 A 
ATOM      7  C   UNL     1       2.276   4.587  20.241  0.00  0.00    +0.000 A 
ATOM      8  C   UNL     1       1.094   4.039  20.750  0.00  0.00    +0.000 A 
ATOM      9  C   UNL     1       0.487   2.957  20.114  0.00  0.00    +0.000 A 
ATOM     10  C   UNL     1       1.064   2.412  18.966  0.00  0.00    +0.000 A 
ATOM     11  C   UNL     1       2.248   2.943  18.437  0.00  0.00    +0.000 A 
ATOM     12  C   UNL     1       2.813   2.395  17.281  0.00  0.00    +0.000 A 
ATOM     13  C   UNL     1       3.983   2.911  16.726  0.00  0.00    +0.000 A 
ATOM     14  C   UNL     1       4.577   4.001  17.370  0.00  0.00    +0.000 A 
ENDROOT
BRANCH   3  15
ATOM     15  C   UNL     1       6.864   6.724  18.019  0.00  0.00    +0.000 A 
ATOM     16  C   UNL     1       8.026   6.823  18.762  0.00  0.00    +0.000 A 
ATOM     17  C   UNL     1       8.622   8.074  18.481  0.00  0.00    +0.000 A 
ATOM     18  C   UNL     1       7.852   8.680  17.516  0.00  0.00    +0.000 A 
ATOM     19  N   UNL     1       6.822   7.828  17.199  0.00  0.00    +0.000 N 
ATOM     20  H   UNL     1       6.100   7.997  16.509  0.00  0.00    +0.000 HD
ENDBRANCH   3  15
TORSDOF 1
ENDMDL
MODEL 5
REMARK VINA RESULT:      -7.3      3.314      6.686
REMARK  Name = 
REMARK  2 active torsions:
REMARK  status: ('A' for Active; 'I' for Inactive)
REMARK    1  A    between atoms: C_1  and  N_2
REMARK    2  A    between atoms: C_3  and  C_4
REMARK                            x       y       z     vdW  Elec       q    Type
REMARK                         _______ _______ _______ _____ _____    ______ ____
ROOT
ATOM      1  C   UNL     1       4.848   3.775  18.433  0.00  0.00    +0.000 C 
ATOM      2  N   UNL     1       4.324   5.047  17.996  0.00  0.00    +0.000 N 
ATOM      3  C   UNL     1       4.602   5.731  16.838  0.00  0.00    +0.000 A 
ATOM      4  N   UNL     1       4.035   6.926  16.857  0.00  0.00    +0.000 NA
ATOM      5  C   UNL     1       3.292   6.979  18.031  0.00  0.00    +0.000 A 
ATOM      6  C   UNL     1       2.433   7.985  18.566  0.00  0.00    +0.000 A 
ATOM      7  C   UNL     1       2.186   9.194  17.886  0.00  0.00    +0.000 A 
ATOM      8  C   UNL     1       1.330  10.152  18.440  0.00  0.00    +0.000 A 
ATOM      9  C   UNL     1       0.710   9.920  19.667  0.00  0.00    +0.000 A 
ATOM     10  C   UNL     1       0.948   8.727  20.351  0.00  0.00    +0.000 A 
ATOM     11  C   UNL     1       1.802   7.752  19.818  0.00  0.00    +0.000 A 
ATOM     12  C   UNL     1       2.026   6.556  20.507  0.00  0.00    +0.000 A 
ATOM     13  C   UNL     1       2.861   5.564  19.994  0.00  0.00    +0.000 A 
ATOM     14  C   UNL     1       3.469   5.807  18.759  0.00  0.00    +0.000 A 
ENDROOT
BRANCH   3  15
ATOM     15  C   UNL     1       5.423   5.245  15.770  0.00  0.00    +0.000 A 
ATOM     16  C   UNL     1       5.161   4.333  14.764  0.00  0.00    +0.000 A 
ATOM     17  C   UNL     1       6.363   4.105  14.054  0.00  0.00    +0.000 A 
ATOM     18  C   UNL     1       7.314   4.940  14.593  0.00  0.00    +0.000 A 
ATOM     19  N   UNL     1       6.719   5.670  15.594  0.00  0.00    +0.000 N 
ATOM     20  H   UNL     1       7.168   6.377  16.162  0.00  0.00    +0.000 HD
ENDBRANCH   3  15
TORSDOF 1
ENDMDL
MODEL 6
REMARK VINA RESULT:      -7.2      1.645      6.343
REMARK  Name = 
REMARK  2 active torsions:
REMARK  status: ('A' for Active; 'I' for Inactive)
REMARK    1  A    between atoms: C_1  and  N_2
REMARK    2  A    between atoms: C_3  and  C_4
REMARK                            x       y       z     vdW  Elec       q    Type
REMARK                         _______ _______ _______ _____ _____    ______ ____
ROOT
ATOM      1  C   UNL     1       4.999   7.353  16.283  0.00  0.00    +0.000 C 
ATOM      2  N   UNL     1       4.579   6.032  16.684  0.00  0.00    +0.000 N 
ATOM      3  C   UNL     1       4.831   4.832  16.064  0.00  0.00    +0.000 A 
ATOM      4  N   UNL     1       4.165   3.855  16.656  0.00  0.00    +0.000 NA
ATOM      5  C   UNL     1       3.531   4.431  17.751  0.00  0.00    +0.000 A 
ATOM      6  C   UNL     1       2.720   3.870  18.783  0.00  0.00    +0.000 A 
ATOM      7  C   UNL     1       2.434   2.492  18.840  0.00  0.00    +0.000 A 
ATOM      8  C   UNL     1       1.642   1.979  19.873  0.00  0.00    +0.000 A 
ATOM      9  C   UNL     1       1.132   2.823  20.858  0.00  0.00    +0.000 A 
ATOM     10  C   UNL     1       1.407   4.191  20.811  0.00  0.00    +0.000 A 
ATOM     11  C   UNL     1       2.197   4.729  19.787  0.00  0.00    +0.000 A 
ATOM     12  C   UNL     1       2.475   6.100  19.755  0.00  0.00    +0.000 A 
ATOM     13  C   UNL     1       3.268   6.660  18.754  0.00  0.00    +0.000 A 
ATOM     14  C   UNL     1       3.779   5.800  17.778  0.00  0.00    +0.000 A 
ENDROOT
BRANCH   3  15
ATOM     15  C   UNL     1       5.663   4.658  14.913  0.00  0.00    +0.000 A 
ATOM     16  C   UNL     1       5.488   3.899  13.770  0.00  0.00    +0.000 A 
ATOM     17  C   UNL     1       6.676   3.973  13.007  0.00  0.00    +0.000 A 
ATOM     18  C   UNL     1       7.523   4.837  13.662  0.00  0.00    +0.000 A 
ATOM     19  N   UNL     1       6.877   5.293  14.785  0.00  0.00    +0.000 N 
ATOM     20  H   UNL     1       7.247   5.954  15.458  0.00  0.00    +0.000 HD
ENDBRANCH   3  15
TORSDOF 1
ENDMDL
MODEL 7
REMARK VINA RESULT:      -6.7      4.683      6.884
REMARK  Name = 
REMARK  2 active torsions:
REMARK  status: ('A' for Active; 'I' for Inactive)
REMARK    1  A    between atoms: C_1  and  N_2
REMARK    2  A    between atoms: C_3  and  C_4
REMARK                            x       y       z     vdW  Elec       q    Type
REMARK                         _______ _______ _______ _____ _____    ______ ____
ROOT
ATOM      1  C   UNL     1       2.253   9.489  17.887  0.00  0.00    +0.000 C 
ATOM      2  N   UNL     1       1.994   8.448  18.852  0.00  0.00    +0.000 N 
ATOM      3  C   UNL     1       1.245   8.519  20.002  0.00  0.00    +0.000 A 
ATOM      4  N   UNL     1       1.354   7.399  20.697  0.00  0.00    +0.000 NA
ATOM      5  C   UNL     1       2.131   6.542  19.924  0.00  0.00    +0.000 A 
ATOM      6  C   UNL     1       2.540   5.190  20.125  0.00  0.00    +0.000 A 
ATOM      7  C   UNL     1       2.152   4.455  21.263  0.00  0.00    +0.000 A 
ATOM      8  C   UNL     1       2.567   3.128  21.420  0.00  0.00    +0.000 A 
ATOM      9  C   UNL     1       3.363   2.519  20.452  0.00  0.00    +0.000 A 
ATOM     10  C   UNL     1       3.755   3.236  19.321  0.00  0.00    +0.000 A 
ATOM     11  C   UNL     1       3.353   4.567  19.141  0.00  0.00    +0.000 A 
ATOM     12  C   UNL     1       3.743   5.274  17.999  0.00  0.00    +0.000 A 
ATOM     13  C   UNL     1       3.348   6.595  17.789  0.00  0.00    +0.000 A 
ATOM     14  C   UNL     1       2.543   7.191  18.764  0.00  0.00    +0.000 A 
ENDROOT
BRANCH   3  15
ATOM     15  C   UNL     1       0.482   9.656  20.420  0.00  0.00    +0.000 A 
ATOM     16  C   UNL     1      -0.657  10.233  19.888  0.00  0.00    +0.000 A 
ATOM     17  C   UNL     1      -0.922  11.423  20.605  0.00  0.00    +0.000 A 
ATOM     18  C   UNL     1       0.016  11.507  21.608  0.00  0.00    +0.000 A 
ATOM     19  N   UNL     1       0.826  10.401  21.524  0.00  0.00    +0.000 N 
ATOM     20  H   UNL     1       1.599  10.181  22.140  0.00  0.00    +0.000 HD
ENDBRANCH   3  15
TORSDOF 1
ENDMDL
MODEL 8
REMARK VINA RESULT:      -6.7      4.576      5.743
REMARK  Name = 
REMARK  2 active torsions:
REMARK  status: ('A' for Active; 'I' for Inactive)
REMARK    1  A    between atoms: C_1  and  N_2
REMARK    2  A    between atoms: C_3  and  C_4
REMARK                            x       y       z     vdW  Elec       q    Type
REMARK                         _______ _______ _______ _____ _____    ______ ____
ROOT
ATOM      1  C   UNL     1       1.111   7.949  20.768  0.00  0.00    +0.000 C 
ATOM      2  N   UNL     1       1.887   7.940  19.552  0.00  0.00    +0.000 N 
ATOM      3  C   UNL     1       1.857   8.841  18.515  0.00  0.00    +0.000 A 
ATOM      4  N   UNL     1       2.614   8.422  17.515  0.00  0.00    +0.000 NA
ATOM      5  C   UNL     1       3.224   7.253  17.958  0.00  0.00    +0.000 A 
ATOM      6  C   UNL     1       4.179   6.388  17.344  0.00  0.00    +0.000 A 
ATOM      7  C   UNL     1       4.700   6.645  16.060  0.00  0.00    +0.000 A 
ATOM      8  C   UNL     1       5.642   5.777  15.497  0.00  0.00    +0.000 A 
ATOM      9  C   UNL     1       6.077   4.655  16.198  0.00  0.00    +0.000 A 
ATOM     10  C   UNL     1       5.566   4.388  17.470  0.00  0.00    +0.000 A 
ATOM     11  C   UNL     1       4.622   5.242  18.057  0.00  0.00    +0.000 A 
ATOM     12  C   UNL     1       4.124   4.972  19.335  0.00  0.00    +0.000 A 
ATOM     13  C   UNL     1       3.193   5.810  19.947  0.00  0.00    +0.000 A 
ATOM     14  C   UNL     1       2.772   6.937  19.235  0.00  0.00    +0.000 A 
ENDROOT
BRANCH   3  15
ATOM     15  C   UNL     1       1.086  10.046  18.492  0.00  0.00    +0.000 A 
ATOM     16  C   UNL     1       1.373  11.319  18.953  0.00  0.00    +0.000 A 
ATOM     17  C   UNL     1       0.209  12.110  18.809  0.00  0.00    +0.000 A 
ATOM     18  C   UNL     1      -0.738  11.326  18.193  0.00  0.00    +0.000 A 
ATOM     19  N   UNL     1      -0.178  10.095  17.951  0.00  0.00    +0.000 N 
ATOM     20  H   UNL     1      -0.632   9.314  17.495  0.00  0.00    +0.000 HD
ENDBRANCH   3  15
TORSDOF 1
ENDMDL
MODEL 9
REMARK VINA RESULT:      -6.6      5.371      8.390
REMARK  Name = 
REMARK  2 active torsions:
REMARK  status: ('A' for Active; 'I' for Inactive)
REMARK    1  A    between atoms: C_1  and  N_2
REMARK    2  A    between atoms: C_3  and  C_4
REMARK                            x       y       z     vdW  Elec       q    Type
REMARK                         _______ _______ _______ _____ _____    ______ ____
ROOT
ATOM      1  C   UNL     1       2.889   7.740  17.453  0.00  0.00    +0.000 C 
ATOM      2  N   UNL     1       2.319   7.818  18.776  0.00  0.00    +0.000 N 
ATOM      3  C   UNL     1       2.312   6.859  19.760  0.00  0.00    +0.000 A 
ATOM      4  N   UNL     1       1.575   7.251  20.785  0.00  0.00    +0.000 NA
ATOM      5  C   UNL     1       1.164   8.546  20.490  0.00  0.00    +0.000 A 
ATOM      6  C   UNL     1       0.399   9.493  21.234  0.00  0.00    +0.000 A 
ATOM      7  C   UNL     1      -0.088   9.209  22.526  0.00  0.00    +0.000 A 
ATOM      8  C   UNL     1      -0.827  10.167  23.227  0.00  0.00    +0.000 A 
ATOM      9  C   UNL     1      -1.087  11.413  22.659  0.00  0.00    +0.000 A 
ATOM     10  C   UNL     1      -0.613  11.706  21.379  0.00  0.00    +0.000 A 
ATOM     11  C   UNL     1       0.131  10.763  20.656  0.00  0.00    +0.000 A 
ATOM     12  C   UNL     1       0.610  11.070  19.379  0.00  0.00    +0.000 A 
ATOM     13  C   UNL     1       1.361  10.156  18.642  0.00  0.00    +0.000 A 
ATOM     14  C   UNL     1       1.621   8.913  19.228  0.00  0.00    +0.000 A 
ENDROOT
BRANCH   3  15
ATOM     15  C   UNL     1       2.973   5.591  19.679  0.00  0.00    +0.000 A 
ATOM     16  C   UNL     1       4.311   5.270  19.537  0.00  0.00    +0.000 A 
ATOM     17  C   UNL     1       4.410   3.869  19.371  0.00  0.00    +0.000 A 
ATOM     18  C   UNL     1       3.139   3.357  19.492  0.00  0.00    +0.000 A 
ATOM     19  N   UNL     1       2.283   4.403  19.738  0.00  0.00    +0.000 N 
ATOM     20  H   UNL     1       1.283   4.332  19.887  0.00  0.00    +0.000 HD
ENDBRANCH   3  15
TORSDOF 1
ENDMDL
