MODEL 1
REMARK VINA RESULT:      -8.6      0.000      0.000
REMARK  Name = 
REMARK  8 active torsions:
REMARK  status: ('A' for Active; 'I' for Inactive)
REMARK    1  A    between atoms: C_1  and  C_2
REMARK    2  A    between atoms: C_7  and  N_8
REMARK    3  A    between atoms: C_9  and  C_11
REMARK    4  A    between atoms: C_11  and  C_12
REMARK    5  A    between atoms: C_12  and  C_13
REMARK    6  A    between atoms: C_13  and  C_14
REMARK    7  A    between atoms: C_14  and  C_15
REMARK    8  A    between atoms: C_15  and  N_16
REMARK                            x       y       z     vdW  Elec       q    Type
REMARK                         _______ _______ _______ _____ _____    ______ ____
ROOT
ATOM      1  C   UNL     1       7.787   5.610  17.983  0.00  0.00    +0.000 C 
ENDROOT
BRANCH   1   2
ATOM      2  N   UNL     1       6.517   5.079  17.533  0.00  0.00    +0.000 N 
ATOM      3  C   UNL     1       5.928   5.457  16.358  0.00  0.00    +0.000 C 
ATOM      4  O   UNL     1       6.470   6.018  15.416  0.00  0.00    +0.000 OA
ATOM      5  C   UNL     1       4.440   5.215  16.513  0.00  0.00    +0.000 C 
ATOM      6  C   UNL     1       3.777   6.423  17.226  0.00  0.00    +0.000 C 
ATOM      7  C   UNL     1       2.931   6.057  18.443  0.00  0.00    +0.000 A 
ATOM      8  C   UNL     1       2.504   7.045  19.338  0.00  0.00    +0.000 A 
ATOM      9  C   UNL     1       1.766   6.699  20.476  0.00  0.00    +0.000 A 
ATOM     10  C   UNL     1       1.406   5.373  20.709  0.00  0.00    +0.000 A 
ATOM     11  C   UNL     1       1.829   4.378  19.836  0.00  0.00    +0.000 A 
ATOM     12  C   UNL     1       2.634   4.707  18.740  0.00  0.00    +0.000 A 
ATOM     13  C   UNL     1       3.266   3.602  17.936  0.00  0.00    +0.000 C 
ATOM     14  N   UNL     1       4.528   4.092  17.420  0.00  0.00    +0.000 N 
ATOM     15  C   UNL     1       5.665   4.263  18.231  0.00  0.00    +0.000 C 
ATOM     16  O   UNL     1       5.827   3.820  19.356  0.00  0.00    +0.000 OA
ENDBRANCH   1   2
BRANCH   1  17
ATOM     17  C   UNL     1       7.620   7.042  18.525  0.00  0.00    +0.000 C 
BRANCH  17  18
ATOM     18  C   UNL     1       8.165   8.120  17.591  0.00  0.00    +0.000 C 
BRANCH  18  19
ATOM     19  C   UNL     1       8.226   9.528  18.191  0.00  0.00    +0.000 C 
BRANCH  19  20
ATOM     20  C   UNL     1       9.244   9.687  19.322  0.00  0.00    +0.000 C 
BRANCH  20  22
ATOM     21  N   UNL     1       9.737  11.730  18.075  0.00  0.00    +0.000 N 
ATOM     22  C   UNL     1       9.815  11.091  19.307  0.00  0.00    +0.000 C 
ATOM     23  O   UNL     1      10.322  11.541  20.333  0.00  0.00    +0.000 OA
ATOM     24  H   UNL     1       9.067  11.365  17.407  0.00  0.00    +0.000 HD
BRANCH  21  31
ATOM     25  C   UNL     1       8.297  14.310  18.426  0.00  0.00    +0.000 C 
ATOM     26  C   UNL     1       9.704  14.189  17.910  0.00  0.00    +0.000 A 
ATOM     27  C   UNL     1      10.380  15.384  17.583  0.00  0.00    +0.000 A 
ATOM     28  C   UNL     1      11.686  15.368  17.094  0.00  0.00    +0.000 A 
ATOM     29  C   UNL     1      12.329  14.154  16.904  0.00  0.00    +0.000 A 
ATOM     30  C   UNL     1      11.672  12.965  17.224  0.00  0.00    +0.000 A 
ATOM     31  C   UNL     1      10.372  12.957  17.747  0.00  0.00    +0.000 A 
ENDBRANCH  21  31
ENDBRANCH  20  22
ENDBRANCH  19  20
ENDBRANCH  18  19
ENDBRANCH  17  18
ENDBRANCH   1  17
TORSDOF 7
ENDMDL
MODEL 2
REMARK VINA RESULT:      -8.5      5.741      8.161
REMARK  Name = 
REMARK  8 active torsions:
REMARK  status: ('A' for Active; 'I' for Inactive)
REMARK    1  A    between atoms: C_1  and  C_2
REMARK    2  A    between atoms: C_7  and  N_8
REMARK    3  A    between atoms: C_9  and  C_11
REMARK    4  A    between atoms: C_11  and  C_12
REMARK    5  A    between atoms: C_12  and  C_13
REMARK    6  A    between atoms: C_13  and  C_14
REMARK    7  A    between atoms: C_14  and  C_15
REMARK    8  A    between atoms: C_15  and  N_16
REMARK                            x       y       z     vdW  Elec       q    Type
REMARK                         _______ _______ _______ _____ _____    ______ ____
ROOT
ATOM      1  C   UNL     1       0.970   3.847  20.356  0.00  0.00    +0.000 C 
ENDROOT
BRANCH   1   2
ATOM      2  N   UNL     1       2.089   3.196  19.706  0.00  0.00    +0.000 N 
ATOM      3  C   UNL     1       3.169   2.714  20.393  0.00  0.00    +0.000 C 
ATOM      4  O   UNL     1       3.228   2.484  21.593  0.00  0.00    +0.000 OA
ATOM      5  C   UNL     1       4.333   2.689  19.423  0.00  0.00    +0.000 C 
ATOM      6  C   UNL     1       5.004   4.086  19.363  0.00  0.00    +0.000 C 
ATOM      7  C   UNL     1       5.162   4.656  17.955  0.00  0.00    +0.000 A 
ATOM      8  C   UNL     1       5.491   6.003  17.764  0.00  0.00    +0.000 A 
ATOM      9  C   UNL     1       5.591   6.531  16.471  0.00  0.00    +0.000 A 
ATOM     10  C   UNL     1       5.413   5.712  15.357  0.00  0.00    +0.000 A 
ATOM     11  C   UNL     1       5.077   4.375  15.529  0.00  0.00    +0.000 A 
ATOM     12  C   UNL     1       4.898   3.860  16.818  0.00  0.00    +0.000 A 
ATOM     13  C   UNL     1       4.319   2.479  16.982  0.00  0.00    +0.000 C 
ATOM     14  N   UNL     1       3.567   2.455  18.219  0.00  0.00    +0.000 N 
ATOM     15  C   UNL     1       2.315   3.084  18.359  0.00  0.00    +0.000 C 
ATOM     16  O   UNL     1       1.607   3.500  17.457  0.00  0.00    +0.000 OA
ENDBRANCH   1   2
BRANCH   1  17
ATOM     17  C   UNL     1       1.306   5.314  20.682  0.00  0.00    +0.000 C 
BRANCH  17  18
ATOM     18  C   UNL     1       2.072   6.030  19.572  0.00  0.00    +0.000 C 
BRANCH  18  19
ATOM     19  C   UNL     1       2.208   7.546  19.753  0.00  0.00    +0.000 C 
BRANCH  19  20
ATOM     20  C   UNL     1       2.198   8.338  18.443  0.00  0.00    +0.000 C 
BRANCH  20  22
ATOM     21  N   UNL     1       0.252   9.509  19.343  0.00  0.00    +0.000 N 
ATOM     22  C   UNL     1       1.439   9.636  18.634  0.00  0.00    +0.000 C 
ATOM     23  O   UNL     1       1.887  10.669  18.137  0.00  0.00    +0.000 OA
ATOM     24  H   UNL     1       0.142   8.680  19.917  0.00  0.00    +0.000 HD
BRANCH  21  31
ATOM     25  C   UNL     1      -1.813   9.901  17.237  0.00  0.00    +0.000 C 
ATOM     26  C   UNL     1      -1.719  10.722  18.494  0.00  0.00    +0.000 A 
ATOM     27  C   UNL     1      -2.685  11.734  18.682  0.00  0.00    +0.000 A 
ATOM     28  C   UNL     1      -2.673  12.546  19.815  0.00  0.00    +0.000 A 
ATOM     29  C   UNL     1      -1.682  12.371  20.770  0.00  0.00    +0.000 A 
ATOM     30  C   UNL     1      -0.722  11.373  20.598  0.00  0.00    +0.000 A 
ATOM     31  C   UNL     1      -0.732  10.524  19.483  0.00  0.00    +0.000 A 
ENDBRANCH  21  31
ENDBRANCH  20  22
ENDBRANCH  19  20
ENDBRANCH  18  19
ENDBRANCH  17  18
ENDBRANCH   1  17
TORSDOF 7
ENDMDL
MODEL 3
REMARK VINA RESULT:      -8.5      1.271      1.777
REMARK  Name = 
REMARK  8 active torsions:
REMARK  status: ('A' for Active; 'I' for Inactive)
REMARK    1  A    between atoms: C_1  and  C_2
REMARK    2  A    between atoms: C_7  and  N_8
REMARK    3  A    between atoms: C_9  and  C_11
REMARK    4  A    between atoms: C_11  and  C_12
REMARK    5  A    between atoms: C_12  and  C_13
REMARK    6  A    between atoms: C_13  and  C_14
REMARK    7  A    between atoms: C_14  and  C_15
REMARK    8  A    between atoms: C_15  and  N_16
REMARK                            x       y       z     vdW  Elec       q    Type
REMARK                         _______ _______ _______ _____ _____    ______ ____
ROOT
ATOM      1  C   UNL     1       7.541   5.164  17.663  0.00  0.00    +0.000 C 
ENDROOT
BRANCH   1   2
ATOM      2  N   UNL     1       6.244   4.537  17.811  0.00  0.00    +0.000 N 
ATOM      3  C   UNL     1       5.484   4.139  16.746  0.00  0.00    +0.000 C 
ATOM      4  O   UNL     1       5.869   3.968  15.597  0.00  0.00    +0.000 OA
ATOM      5  C   UNL     1       4.043   4.123  17.213  0.00  0.00    +0.000 C 
ATOM      6  C   UNL     1       3.435   5.547  17.105  0.00  0.00    +0.000 C 
ATOM      7  C   UNL     1       2.780   6.057  18.387  0.00  0.00    +0.000 A 
ATOM      8  C   UNL     1       2.440   7.408  18.524  0.00  0.00    +0.000 A 
ATOM      9  C   UNL     1       1.879   7.879  19.718  0.00  0.00    +0.000 A 
ATOM     10  C   UNL     1       1.609   7.002  20.767  0.00  0.00    +0.000 A 
ATOM     11  C   UNL     1       1.948   5.659  20.650  0.00  0.00    +0.000 A 
ATOM     12  C   UNL     1       2.581   5.197  19.491  0.00  0.00    +0.000 A 
ATOM     13  C   UNL     1       3.142   3.800  19.469  0.00  0.00    +0.000 C 
ATOM     14  N   UNL     1       4.299   3.798  18.598  0.00  0.00    +0.000 N 
ATOM     15  C   UNL     1       5.529   4.372  18.970  0.00  0.00    +0.000 C 
ATOM     16  O   UNL     1       5.862   4.712  20.093  0.00  0.00    +0.000 OA
ENDBRANCH   1   2
BRANCH   1  17
ATOM     17  C   UNL     1       7.390   6.663  17.345  0.00  0.00    +0.000 C 
BRANCH  17  18
ATOM     18  C   UNL     1       8.142   7.574  18.312  0.00  0.00    +0.000 C 
BRANCH  18  19
ATOM     19  C   UNL     1       8.163   9.056  17.924  0.00  0.00    +0.000 C 
BRANCH  19  20
ATOM     20  C   UNL     1       9.040   9.930  18.823  0.00  0.00    +0.000 C 
BRANCH  20  22
ATOM     21  N   UNL     1      10.063  12.149  18.833  0.00  0.00    +0.000 N 
ATOM     22  C   UNL     1       9.057  11.352  18.300  0.00  0.00    +0.000 C 
ATOM     23  O   UNL     1       8.192  11.705  17.499  0.00  0.00    +0.000 OA
ATOM     24  H   UNL     1      10.852  11.675  19.257  0.00  0.00    +0.000 HD
BRANCH  21  31
ATOM     25  C   UNL     1      11.651  13.274  16.582  0.00  0.00    +0.000 C 
ATOM     26  C   UNL     1      10.919  14.105  17.600  0.00  0.00    +0.000 A 
ATOM     27  C   UNL     1      10.986  15.508  17.464  0.00  0.00    +0.000 A 
ATOM     28  C   UNL     1      10.342  16.356  18.363  0.00  0.00    +0.000 A 
ATOM     29  C   UNL     1       9.634  15.814  19.425  0.00  0.00    +0.000 A 
ATOM     30  C   UNL     1       9.558  14.428  19.571  0.00  0.00    +0.000 A 
ATOM     31  C   UNL     1      10.171  13.554  18.663  0.00  0.00    +0.000 A 
ENDBRANCH  21  31
ENDBRANCH  20  22
ENDBRANCH  19  20
ENDBRANCH  18  19
ENDBRANCH  17  18
ENDBRANCH   1  17
TORSDOF 7
ENDMDL
MODEL 4
REMARK VINA RESULT:      -8.4      5.237      7.308
REMARK  Name = 
REMARK  8 active torsions:
REMARK  status: ('A' for Active; 'I' for Inactive)
REMARK    1  A    between atoms: C_1  and  C_2
REMARK    2  A    between atoms: C_7  and  N_8
REMARK    3  A    between atoms: C_9  and  C_11
REMARK    4  A    between atoms: C_11  and  C_12
REMARK    5  A    between atoms: C_12  and  C_13
REMARK    6  A    between atoms: C_13  and  C_14
REMARK    7  A    between atoms: C_14  and  C_15
REMARK    8  A    between atoms: C_15  and  N_16
REMARK                            x       y       z     vdW  Elec       q    Type
REMARK                         _______ _______ _______ _____ _____    ______ ____
ROOT
ATOM      1  C   UNL     1       5.714   6.724  17.040  0.00  0.00    +0.000 C 
ENDROOT
BRANCH   1   2
ATOM      2  N   UNL     1       5.497   5.328  17.358  0.00  0.00    +0.000 N 
ATOM      3  C   UNL     1       5.155   4.396  16.418  0.00  0.00    +0.000 C 
ATOM      4  O   UNL     1       5.272   4.505  15.204  0.00  0.00    +0.000 OA
ATOM      5  C   UNL     1       4.438   3.277  17.146  0.00  0.00    +0.000 C 
ATOM      6  C   UNL     1       2.939   3.636  17.324  0.00  0.00    +0.000 C 
ATOM      7  C   UNL     1       2.426   3.526  18.758  0.00  0.00    +0.000 A 
ATOM      8  C   UNL     1       1.189   4.075  19.117  0.00  0.00    +0.000 A 
ATOM      9  C   UNL     1       0.743   4.010  20.442  0.00  0.00    +0.000 A 
ATOM     10  C   UNL     1       1.501   3.356  21.412  0.00  0.00    +0.000 A 
ATOM     11  C   UNL     1       2.735   2.814  21.076  0.00  0.00    +0.000 A 
ATOM     12  C   UNL     1       3.223   2.944  19.771  0.00  0.00    +0.000 A 
ATOM     13  C   UNL     1       4.647   2.553  19.477  0.00  0.00    +0.000 C 
ATOM     14  N   UNL     1       5.131   3.402  18.408  0.00  0.00    +0.000 N 
ATOM     15  C   UNL     1       5.459   4.757  18.604  0.00  0.00    +0.000 C 
ATOM     16  O   UNL     1       5.615   5.318  19.675  0.00  0.00    +0.000 OA
ENDBRANCH   1   2
BRANCH   1  17
ATOM     17  C   UNL     1       4.635   7.607  17.694  0.00  0.00    +0.000 C 
BRANCH  17  18
ATOM     18  C   UNL     1       3.216   7.290  17.228  0.00  0.00    +0.000 C 
BRANCH  18  19
ATOM     19  C   UNL     1       2.101   7.949  18.046  0.00  0.00    +0.000 C 
BRANCH  19  20
ATOM     20  C   UNL     1       2.035   9.471  17.908  0.00  0.00    +0.000 C 
BRANCH  20  22
ATOM     21  N   UNL     1       1.204  10.592  19.914  0.00  0.00    +0.000 N 
ATOM     22  C   UNL     1       0.860  10.009  18.701  0.00  0.00    +0.000 C 
ATOM     23  O   UNL     1      -0.277   9.868  18.254  0.00  0.00    +0.000 OA
ATOM     24  H   UNL     1       2.168  10.884  20.030  0.00  0.00    +0.000 HD
BRANCH  21  31
ATOM     25  C   UNL     1       0.570   8.758  22.169  0.00  0.00    +0.000 C 
ATOM     26  C   UNL     1      -0.024  10.130  22.000  0.00  0.00    +0.000 A 
ATOM     27  C   UNL     1      -0.932  10.569  22.987  0.00  0.00    +0.000 A 
ATOM     28  C   UNL     1      -1.536  11.824  22.910  0.00  0.00    +0.000 A 
ATOM     29  C   UNL     1      -1.255  12.652  21.833  0.00  0.00    +0.000 A 
ATOM     30  C   UNL     1      -0.357  12.230  20.851  0.00  0.00    +0.000 A 
ATOM     31  C   UNL     1       0.286  10.987  20.923  0.00  0.00    +0.000 A 
ENDBRANCH  21  31
ENDBRANCH  20  22
ENDBRANCH  19  20
ENDBRANCH  18  19
ENDBRANCH  17  18
ENDBRANCH   1  17
TORSDOF 7
ENDMDL
MODEL 5
REMARK VINA RESULT:      -8.4      1.703     10.606
REMARK  Name = 
REMARK  8 active torsions:
REMARK  status: ('A' for Active; 'I' for Inactive)
REMARK    1  A    between atoms: C_1  and  C_2
REMARK    2  A    between atoms: C_7  and  N_8
REMARK    3  A    between atoms: C_9  and  C_11
REMARK    4  A    between atoms: C_11  and  C_12
REMARK    5  A    between atoms: C_12  and  C_13
REMARK    6  A    between atoms: C_13  and  C_14
REMARK    7  A    between atoms: C_14  and  C_15
REMARK    8  A    between atoms: C_15  and  N_16
REMARK                            x       y       z     vdW  Elec       q    Type
REMARK                         _______ _______ _______ _____ _____    ______ ____
ROOT
ATOM      1  C   UNL     1       9.346  11.212  19.793  0.00  0.00    +0.000 C 
ENDROOT
BRANCH   1   2
ATOM      2  N   UNL     1      10.293  12.037  19.074  0.00  0.00    +0.000 N 
ATOM      3  C   UNL     1      11.603  12.163  19.447  0.00  0.00    +0.000 C 
ATOM      4  O   UNL     1      12.224  11.421  20.196  0.00  0.00    +0.000 OA
ATOM      5  C   UNL     1      12.090  13.492  18.904  0.00  0.00    +0.000 C 
ATOM      6  C   UNL     1      11.710  14.635  19.881  0.00  0.00    +0.000 C 
ATOM      7  C   UNL     1      10.964  15.801  19.235  0.00  0.00    +0.000 A 
ATOM      8  C   UNL     1      10.321  16.761  20.025  0.00  0.00    +0.000 A 
ATOM      9  C   UNL     1       9.602  17.804  19.428  0.00  0.00    +0.000 A 
ATOM     10  C   UNL     1       9.556  17.926  18.041  0.00  0.00    +0.000 A 
ATOM     11  C   UNL     1      10.181  16.977  17.241  0.00  0.00    +0.000 A 
ATOM     12  C   UNL     1      10.834  15.889  17.831  0.00  0.00    +0.000 A 
ATOM     13  C   UNL     1      11.309  14.758  16.957  0.00  0.00    +0.000 C 
ATOM     14  N   UNL     1      11.242  13.537  17.734  0.00  0.00    +0.000 N 
ATOM     15  C   UNL     1      10.027  12.897  18.040  0.00  0.00    +0.000 C 
ATOM     16  O   UNL     1       8.942  13.115  17.526  0.00  0.00    +0.000 OA
ENDBRANCH   1   2
BRANCH   1  17
ATOM     17  C   UNL     1       9.262   9.806  19.170  0.00  0.00    +0.000 C 
BRANCH  17  18
ATOM     18  C   UNL     1       8.430   9.751  17.891  0.00  0.00    +0.000 C 
BRANCH  18  19
ATOM     19  C   UNL     1       7.745   8.407  17.620  0.00  0.00    +0.000 C 
BRANCH  19  20
ATOM     20  C   UNL     1       8.197   7.273  18.543  0.00  0.00    +0.000 C 
BRANCH  20  22
ATOM     21  N   UNL     1       6.075   6.396  17.712  0.00  0.00    +0.000 N 
ATOM     22  C   UNL     1       7.154   6.174  18.557  0.00  0.00    +0.000 C 
ATOM     23  O   UNL     1       7.307   5.214  19.311  0.00  0.00    +0.000 OA
ATOM     24  H   UNL     1       6.203   7.068  16.964  0.00  0.00    +0.000 HD
BRANCH  21  31
ATOM     25  C   UNL     1       5.881   3.968  16.002  0.00  0.00    +0.000 C 
ATOM     26  C   UNL     1       4.773   4.472  16.886  0.00  0.00    +0.000 A 
ATOM     27  C   UNL     1       3.571   3.732  16.906  0.00  0.00    +0.000 A 
ATOM     28  C   UNL     1       2.489   4.127  17.691  0.00  0.00    +0.000 A 
ATOM     29  C   UNL     1       2.585   5.280  18.455  0.00  0.00    +0.000 A 
ATOM     30  C   UNL     1       3.768   6.021  18.446  0.00  0.00    +0.000 A 
ATOM     31  C   UNL     1       4.881   5.627  17.689  0.00  0.00    +0.000 A 
ENDBRANCH  21  31
ENDBRANCH  20  22
ENDBRANCH  19  20
ENDBRANCH  18  19
ENDBRANCH  17  18
ENDBRANCH   1  17
TORSDOF 7
ENDMDL
MODEL 6
REMARK VINA RESULT:      -8.4      5.788      8.138
REMARK  Name = 
REMARK  8 active torsions:
REMARK  status: ('A' for Active; 'I' for Inactive)
REMARK    1  A    between atoms: C_1  and  C_2
REMARK    2  A    between atoms: C_7  and  N_8
REMARK    3  A    between atoms: C_9  and  C_11
REMARK    4  A    between atoms: C_11  and  C_12
REMARK    5  A    between atoms: C_12  and  C_13
REMARK    6  A    between atoms: C_13  and  C_14
REMARK    7  A    between atoms: C_14  and  C_15
REMARK    8  A    between atoms: C_15  and  N_16
REMARK                            x       y       z     vdW  Elec       q    Type
REMARK                         _______ _______ _______ _____ _____    ______ ____
ROOT
ATOM      1  C   UNL     1       0.953   3.999  20.336  0.00  0.00    +0.000 C 
ENDROOT
BRANCH   1   2
ATOM      2  N   UNL     1       2.050   3.323  19.674  0.00  0.00    +0.000 N 
ATOM      3  C   UNL     1       3.114   2.794  20.351  0.00  0.00    +0.000 C 
ATOM      4  O   UNL     1       3.166   2.541  21.548  0.00  0.00    +0.000 OA
ATOM      5  C   UNL     1       4.275   2.746  19.380  0.00  0.00    +0.000 C 
ATOM      6  C   UNL     1       4.993   4.121  19.343  0.00  0.00    +0.000 C 
ATOM      7  C   UNL     1       5.168   4.708  17.944  0.00  0.00    +0.000 A 
ATOM      8  C   UNL     1       5.541   6.047  17.775  0.00  0.00    +0.000 A 
ATOM      9  C   UNL     1       5.659   6.592  16.491  0.00  0.00    +0.000 A 
ATOM     10  C   UNL     1       5.453   5.799  15.364  0.00  0.00    +0.000 A 
ATOM     11  C   UNL     1       5.073   4.470  15.514  0.00  0.00    +0.000 A 
ATOM     12  C   UNL     1       4.877   3.940  16.794  0.00  0.00    +0.000 A 
ATOM     13  C   UNL     1       4.254   2.577  16.935  0.00  0.00    +0.000 C 
ATOM     14  N   UNL     1       3.501   2.558  18.173  0.00  0.00    +0.000 N 
ATOM     15  C   UNL     1       2.272   3.225  18.325  0.00  0.00    +0.000 C 
ATOM     16  O   UNL     1       1.577   3.679  17.431  0.00  0.00    +0.000 OA
ENDBRANCH   1   2
BRANCH   1  17
ATOM     17  C   UNL     1       1.405   5.366  20.882  0.00  0.00    +0.000 C 
BRANCH  17  18
ATOM     18  C   UNL     1       2.004   6.284  19.819  0.00  0.00    +0.000 C 
BRANCH  18  19
ATOM     19  C   UNL     1       1.968   7.778  20.157  0.00  0.00    +0.000 C 
BRANCH  19  20
ATOM     20  C   UNL     1       1.679   8.688  18.961  0.00  0.00    +0.000 C 
BRANCH  20  22
ATOM     21  N   UNL     1       0.961  10.389  20.560  0.00  0.00    +0.000 N 
ATOM     22  C   UNL     1       0.679   9.755  19.357  0.00  0.00    +0.000 C 
ATOM     23  O   UNL     1      -0.296   9.958  18.635  0.00  0.00    +0.000 OA
ATOM     24  H   UNL     1       1.912  10.325  20.905  0.00  0.00    +0.000 HD
BRANCH  21  31
ATOM     25  C   UNL     1      -0.436   9.503  23.033  0.00  0.00    +0.000 C 
ATOM     26  C   UNL     1      -0.583  10.869  22.421  0.00  0.00    +0.000 A 
ATOM     27  C   UNL     1      -1.433  11.786  23.076  0.00  0.00    +0.000 A 
ATOM     28  C   UNL     1      -1.633  13.073  22.578  0.00  0.00    +0.000 A 
ATOM     29  C   UNL     1      -1.000  13.457  21.405  0.00  0.00    +0.000 A 
ATOM     30  C   UNL     1      -0.156  12.561  20.748  0.00  0.00    +0.000 A 
ATOM     31  C   UNL     1       0.086  11.273  21.246  0.00  0.00    +0.000 A 
ENDBRANCH  21  31
ENDBRANCH  20  22
ENDBRANCH  19  20
ENDBRANCH  18  19
ENDBRANCH  17  18
ENDBRANCH   1  17
TORSDOF 7
ENDMDL
MODEL 7
REMARK VINA RESULT:      -8.4      1.875      2.424
REMARK  Name = 
REMARK  8 active torsions:
REMARK  status: ('A' for Active; 'I' for Inactive)
REMARK    1  A    between atoms: C_1  and  C_2
REMARK    2  A    between atoms: C_7  and  N_8
REMARK    3  A    between atoms: C_9  and  C_11
REMARK    4  A    between atoms: C_11  and  C_12
REMARK    5  A    between atoms: C_12  and  C_13
REMARK    6  A    between atoms: C_13  and  C_14
REMARK    7  A    between atoms: C_14  and  C_15
REMARK    8  A    between atoms: C_15  and  N_16
REMARK                            x       y       z     vdW  Elec       q    Type
REMARK                         _______ _______ _______ _____ _____    ______ ____
ROOT
ATOM      1  C   UNL     1       5.884   7.046  17.352  0.00  0.00    +0.000 C 
ENDROOT
BRANCH   1   2
ATOM      2  N   UNL     1       5.624   5.629  17.495  0.00  0.00    +0.000 N 
ATOM      3  C   UNL     1       5.239   4.834  16.450  0.00  0.00    +0.000 C 
ATOM      4  O   UNL     1       5.346   5.092  15.259  0.00  0.00    +0.000 OA
ATOM      5  C   UNL     1       4.493   3.656  17.043  0.00  0.00    +0.000 C 
ATOM      6  C   UNL     1       3.009   4.037  17.290  0.00  0.00    +0.000 C 
ATOM      7  C   UNL     1       2.510   3.764  18.706  0.00  0.00    +0.000 A 
ATOM      8  C   UNL     1       1.297   4.303  19.151  0.00  0.00    +0.000 A 
ATOM      9  C   UNL     1       0.864   4.085  20.465  0.00  0.00    +0.000 A 
ATOM     10  C   UNL     1       1.611   3.290  21.332  0.00  0.00    +0.000 A 
ATOM     11  C   UNL     1       2.822   2.755  20.911  0.00  0.00    +0.000 A 
ATOM     12  C   UNL     1       3.299   3.034  19.625  0.00  0.00    +0.000 A 
ATOM     13  C   UNL     1       4.705   2.637  19.262  0.00  0.00    +0.000 C 
ATOM     14  N   UNL     1       5.205   3.599  18.300  0.00  0.00    +0.000 N 
ATOM     15  C   UNL     1       5.581   4.906  18.659  0.00  0.00    +0.000 C 
ATOM     16  O   UNL     1       5.768   5.323  19.790  0.00  0.00    +0.000 OA
ENDBRANCH   1   2
BRANCH   1  17
ATOM     17  C   UNL     1       7.390   7.310  17.169  0.00  0.00    +0.000 C 
BRANCH  17  18
ATOM     18  C   UNL     1       8.148   7.475  18.485  0.00  0.00    +0.000 C 
BRANCH  18  19
ATOM     19  C   UNL     1       8.642   8.896  18.775  0.00  0.00    +0.000 C 
BRANCH  19  20
ATOM     20  C   UNL     1       8.588   9.838  17.571  0.00  0.00    +0.000 C 
BRANCH  20  22
ATOM     21  N   UNL     1       9.782  11.371  19.051  0.00  0.00    +0.000 N 
ATOM     22  C   UNL     1       8.861  11.261  18.018  0.00  0.00    +0.000 C 
ATOM     23  O   UNL     1       8.248  12.184  17.483  0.00  0.00    +0.000 OA
ATOM     24  H   UNL     1      10.400  10.582  19.207  0.00  0.00    +0.000 HD
BRANCH  21  31
ATOM     25  C   UNL     1       8.660  11.759  21.780  0.00  0.00    +0.000 C 
ATOM     26  C   UNL     1       9.536  12.758  21.074  0.00  0.00    +0.000 A 
ATOM     27  C   UNL     1       9.849  13.948  21.765  0.00  0.00    +0.000 A 
ATOM     28  C   UNL     1      10.651  14.932  21.188  0.00  0.00    +0.000 A 
ATOM     29  C   UNL     1      11.137  14.749  19.902  0.00  0.00    +0.000 A 
ATOM     30  C   UNL     1      10.837  13.576  19.208  0.00  0.00    +0.000 A 
ATOM     31  C   UNL     1      10.059  12.559  19.779  0.00  0.00    +0.000 A 
ENDBRANCH  21  31
ENDBRANCH  20  22
ENDBRANCH  19  20
ENDBRANCH  18  19
ENDBRANCH  17  18
ENDBRANCH   1  17
TORSDOF 7
ENDMDL
MODEL 8
REMARK VINA RESULT:      -8.3      1.330      1.751
REMARK  Name = 
REMARK  8 active torsions:
REMARK  status: ('A' for Active; 'I' for Inactive)
REMARK    1  A    between atoms: C_1  and  C_2
REMARK    2  A    between atoms: C_7  and  N_8
REMARK    3  A    between atoms: C_9  and  C_11
REMARK    4  A    between atoms: C_11  and  C_12
REMARK    5  A    between atoms: C_12  and  C_13
REMARK    6  A    between atoms: C_13  and  C_14
REMARK    7  A    between atoms: C_14  and  C_15
REMARK    8  A    between atoms: C_15  and  N_16
REMARK                            x       y       z     vdW  Elec       q    Type
REMARK                         _______ _______ _______ _____ _____    ______ ____
ROOT
ATOM      1  C   UNL     1       8.343   6.888  18.578  0.00  0.00    +0.000 C 
ENDROOT
BRANCH   1   2
ATOM      2  N   UNL     1       7.309   5.955  18.178  0.00  0.00    +0.000 N 
ATOM      3  C   UNL     1       6.874   5.837  16.887  0.00  0.00    +0.000 C 
ATOM      4  O   UNL     1       7.450   6.233  15.882  0.00  0.00    +0.000 OA
ATOM      5  C   UNL     1       5.465   5.284  16.945  0.00  0.00    +0.000 C 
ATOM      6  C   UNL     1       4.452   6.437  17.172  0.00  0.00    +0.000 C 
ATOM      7  C   UNL     1       3.496   6.221  18.343  0.00  0.00    +0.000 A 
ATOM      8  C   UNL     1       2.723   7.279  18.836  0.00  0.00    +0.000 A 
ATOM      9  C   UNL     1       1.880   7.087  19.938  0.00  0.00    +0.000 A 
ATOM     10  C   UNL     1       1.764   5.830  20.529  0.00  0.00    +0.000 A 
ATOM     11  C   UNL     1       2.531   4.772  20.058  0.00  0.00    +0.000 A 
ATOM     12  C   UNL     1       3.433   4.976  19.008  0.00  0.00    +0.000 A 
ATOM     13  C   UNL     1       4.412   3.885  18.659  0.00  0.00    +0.000 C 
ATOM     14  N   UNL     1       5.617   4.512  18.158  0.00  0.00    +0.000 N 
ATOM     15  C   UNL     1       6.532   5.177  18.996  0.00  0.00    +0.000 C 
ATOM     16  O   UNL     1       6.578   5.116  20.213  0.00  0.00    +0.000 OA
ENDBRANCH   1   2
BRANCH   1  17
ATOM     17  C   UNL     1       8.060   8.292  18.013  0.00  0.00    +0.000 C 
BRANCH  17  18
ATOM     18  C   UNL     1       8.841   9.403  18.710  0.00  0.00    +0.000 C 
BRANCH  18  19
ATOM     19  C   UNL     1       8.799  10.765  18.008  0.00  0.00    +0.000 C 
BRANCH  19  20
ATOM     20  C   UNL     1      10.169  11.425  17.835  0.00  0.00    +0.000 C 
BRANCH  20  22
ATOM     21  N   UNL     1       9.869  13.803  17.363  0.00  0.00    +0.000 N 
ATOM     22  C   UNL     1      10.119  12.852  18.344  0.00  0.00    +0.000 C 
ATOM     23  O   UNL     1      10.331  13.070  19.536  0.00  0.00    +0.000 OA
ATOM     24  H   UNL     1       9.451  13.478  16.499  0.00  0.00    +0.000 HD
BRANCH  21  31
ATOM     25  C   UNL     1       7.503  15.385  18.231  0.00  0.00    +0.000 C 
ATOM     26  C   UNL     1       8.859  15.973  17.952  0.00  0.00    +0.000 A 
ATOM     27  C   UNL     1       9.012  17.366  18.128  0.00  0.00    +0.000 A 
ATOM     28  C   UNL     1      10.231  17.998  17.889  0.00  0.00    +0.000 A 
ATOM     29  C   UNL     1      11.314  17.249  17.451  0.00  0.00    +0.000 A 
ATOM     30  C   UNL     1      11.177  15.872  17.275  0.00  0.00    +0.000 A 
ATOM     31  C   UNL     1       9.971  15.209  17.539  0.00  0.00    +0.000 A 
ENDBRANCH  21  31
ENDBRANCH  20  22
ENDBRANCH  19  20
ENDBRANCH  18  19
ENDBRANCH  17  18
ENDBRANCH   1  17
TORSDOF 7
ENDMDL
MODEL 9
REMARK VINA RESULT:      -8.3      5.711      7.589
REMARK  Name = 
REMARK  8 active torsions:
REMARK  status: ('A' for Active; 'I' for Inactive)
REMARK    1  A    between atoms: C_1  and  C_2
REMARK    2  A    between atoms: C_7  and  N_8
REMARK    3  A    between atoms: C_9  and  C_11
REMARK    4  A    between atoms: C_11  and  C_12
REMARK    5  A    between atoms: C_12  and  C_13
REMARK    6  A    between atoms: C_13  and  C_14
REMARK    7  A    between atoms: C_14  and  C_15
REMARK    8  A    between atoms: C_15  and  N_16
REMARK                            x       y       z     vdW  Elec       q    Type
REMARK                         _______ _______ _______ _____ _____    ______ ____
ROOT
ATOM      1  C   UNL     1       0.950   3.945  20.331  0.00  0.00    +0.000 C 
ENDROOT
BRANCH   1   2
ATOM      2  N   UNL     1       2.043   3.264  19.668  0.00  0.00    +0.000 N 
ATOM      3  C   UNL     1       3.105   2.729  20.343  0.00  0.00    +0.000 C 
ATOM      4  O   UNL     1       3.157   2.475  21.539  0.00  0.00    +0.000 OA
ATOM      5  C   UNL     1       4.265   2.677  19.371  0.00  0.00    +0.000 C 
ATOM      6  C   UNL     1       4.989   4.049  19.334  0.00  0.00    +0.000 C 
ATOM      7  C   UNL     1       5.167   4.637  17.937  0.00  0.00    +0.000 A 
ATOM      8  C   UNL     1       5.546   5.974  17.769  0.00  0.00    +0.000 A 
ATOM      9  C   UNL     1       5.665   6.520  16.485  0.00  0.00    +0.000 A 
ATOM     10  C   UNL     1       5.454   5.729  15.357  0.00  0.00    +0.000 A 
ATOM     11  C   UNL     1       5.068   4.402  15.506  0.00  0.00    +0.000 A 
ATOM     12  C   UNL     1       4.871   3.872  16.785  0.00  0.00    +0.000 A 
ATOM     13  C   UNL     1       4.241   2.511  16.926  0.00  0.00    +0.000 C 
ATOM     14  N   UNL     1       3.490   2.494  18.164  0.00  0.00    +0.000 N 
ATOM     15  C   UNL     1       2.263   3.167  18.318  0.00  0.00    +0.000 C 
ATOM     16  O   UNL     1       1.570   3.625  17.425  0.00  0.00    +0.000 OA
ENDBRANCH   1   2
BRANCH   1  17
ATOM     17  C   UNL     1       1.411   5.305  20.887  0.00  0.00    +0.000 C 
BRANCH  17  18
ATOM     18  C   UNL     1       2.234   6.126  19.897  0.00  0.00    +0.000 C 
BRANCH  18  19
ATOM     19  C   UNL     1       2.002   7.640  19.959  0.00  0.00    +0.000 C 
BRANCH  19  20
ATOM     20  C   UNL     1       1.296   8.116  21.231  0.00  0.00    +0.000 C 
BRANCH  20  22
ATOM     21  N   UNL     1       0.806   9.950  19.695  0.00  0.00    +0.000 N 
ATOM     22  C   UNL     1       0.656   9.467  20.988  0.00  0.00    +0.000 C 
ATOM     23  O   UNL     1       0.099  10.042  21.923  0.00  0.00    +0.000 OA
ATOM     24  H   UNL     1       1.036   9.277  18.973  0.00  0.00    +0.000 HD
BRANCH  21  31
ATOM     25  C   UNL     1      -1.700  10.456  18.171  0.00  0.00    +0.000 C 
ATOM     26  C   UNL     1      -0.707  11.522  18.546  0.00  0.00    +0.000 A 
ATOM     27  C   UNL     1      -0.997  12.847  18.155  0.00  0.00    +0.000 A 
ATOM     28  C   UNL     1      -0.133  13.898  18.455  0.00  0.00    +0.000 A 
ATOM     29  C   UNL     1       1.047  13.638  19.136  0.00  0.00    +0.000 A 
ATOM     30  C   UNL     1       1.346  12.334  19.531  0.00  0.00    +0.000 A 
ATOM     31  C   UNL     1       0.478  11.265  19.268  0.00  0.00    +0.000 A 
ENDBRANCH  21  31
ENDBRANCH  20  22
ENDBRANCH  19  20
ENDBRANCH  18  19
ENDBRANCH  17  18
ENDBRANCH   1  17
TORSDOF 7
ENDMDL
