MODEL 1
REMARK VINA RESULT:      -6.9      0.000      0.000
REMARK  Name = 
REMARK  9 active torsions:
REMARK  status: ('A' for Active; 'I' for Inactive)
REMARK    1  A    between atoms: C_1  and  C_2
REMARK    2  A    between atoms: C_3  and  C_4
REMARK    3  A    between atoms: C_4  and  C_5
REMARK    4  A    between atoms: C_4  and  C_6
REMARK    5  A    between atoms: C_4  and  C_9
REMARK    6  A    between atoms: C_6  and  O_8
REMARK    7  A    between atoms: C_10  and  C_11
REMARK    8  A    between atoms: N_12  and  C_13
REMARK    9  A    between atoms: N_26  and  C_27
REMARK                            x       y       z     vdW  Elec       q    Type
REMARK                         _______ _______ _______ _____ _____    ______ ____
ROOT
ATOM      1  C   UNL     1      -1.361  12.283  19.463  0.00  0.00    +0.000 C 
ATOM      2  C   UNL     1      -2.724  12.399  20.209  0.00  0.00    +0.000 C 
ENDROOT
BRANCH   1   5
ATOM      3  C   UNL     1      -2.266  15.359  20.669  0.00  0.00    +0.000 C 
ATOM      4  C   UNL     1      -1.006  14.890  20.016  0.00  0.00    +0.000 A 
ATOM      5  C   UNL     1      -0.586  13.647  19.510  0.00  0.00    +0.000 A 
ATOM      6  C   UNL     1       0.788  13.861  19.053  0.00  0.00    +0.000 A 
ATOM      7  C   UNL     1       1.784  13.044  18.460  0.00  0.00    +0.000 A 
ATOM      8  C   UNL     1       3.075  13.541  18.228  0.00  0.00    +0.000 A 
ATOM      9  C   UNL     1       3.404  14.842  18.578  0.00  0.00    +0.000 A 
ATOM     10  C   UNL     1       2.441  15.680  19.124  0.00  0.00    +0.000 A 
ATOM     11  C   UNL     1       1.143  15.184  19.341  0.00  0.00    +0.000 A 
ATOM     12  N   UNL     1       0.015  15.805  19.822  0.00  0.00    +0.000 N 
ATOM     13  C   UNL     1      -0.089  17.225  20.094  0.00  0.00    +0.000 C 
ENDBRANCH   1   5
BRANCH   1  14
ATOM     14  C   UNL     1      -0.569  11.075  20.108  0.00  0.00    +0.000 A 
ATOM     15  C   UNL     1      -0.472  10.788  21.486  0.00  0.00    +0.000 A 
ATOM     16  C   UNL     1      -1.125  11.408  22.686  0.00  0.00    +0.000 C 
ATOM     17  N   UNL     1       0.422   9.754  21.653  0.00  0.00    +0.000 N 
ATOM     18  C   UNL     1       0.890   9.202  22.912  0.00  0.00    +0.000 C 
ATOM     19  C   UNL     1       0.877   9.302  20.437  0.00  0.00    +0.000 A 
ATOM     20  C   UNL     1       1.808   8.284  20.151  0.00  0.00    +0.000 A 
ATOM     21  C   UNL     1       2.123   8.016  18.822  0.00  0.00    +0.000 A 
ATOM     22  C   UNL     1       1.505   8.726  17.808  0.00  0.00    +0.000 A 
ATOM     23  C   UNL     1       0.579   9.735  18.108  0.00  0.00    +0.000 A 
ATOM     24  C   UNL     1       0.257  10.070  19.447  0.00  0.00    +0.000 A 
ENDBRANCH   1  14
BRANCH   1  25
ATOM     25  C   UNL     1      -1.800  12.020  17.983  0.00  0.00    +0.000 C 
ATOM     26  O   UNL     1      -2.657  11.200  17.662  0.00  0.00    +0.000 OA
BRANCH  25  27
ATOM     27  O   UNL     1      -1.181  12.738  17.011  0.00  0.00    +0.000 OA
ATOM     28  H   UNL     1      -1.776  13.036  16.297  0.00  0.00    +0.000 HD
ENDBRANCH  25  27
ENDBRANCH   1  25
TORSDOF 4
ENDMDL
MODEL 2
REMARK VINA RESULT:      -6.8      1.701      5.646
REMARK  Name = 
REMARK  9 active torsions:
REMARK  status: ('A' for Active; 'I' for Inactive)
REMARK    1  A    between atoms: C_1  and  C_2
REMARK    2  A    between atoms: C_3  and  C_4
REMARK    3  A    between atoms: C_4  and  C_5
REMARK    4  A    between atoms: C_4  and  C_6
REMARK    5  A    between atoms: C_4  and  C_9
REMARK    6  A    between atoms: C_6  and  O_8
REMARK    7  A    between atoms: C_10  and  C_11
REMARK    8  A    between atoms: N_12  and  C_13
REMARK    9  A    between atoms: N_26  and  C_27
REMARK                            x       y       z     vdW  Elec       q    Type
REMARK                         _______ _______ _______ _____ _____    ______ ____
ROOT
ATOM      1  C   UNL     1      -1.185  12.101  19.106  0.00  0.00    +0.000 C 
ATOM      2  C   UNL     1      -0.192  12.987  18.296  0.00  0.00    +0.000 C 
ENDROOT
BRANCH   1   5
ATOM      3  C   UNL     1      -1.267  11.315  22.439  0.00  0.00    +0.000 C 
ATOM      4  C   UNL     1      -0.476  10.735  21.311  0.00  0.00    +0.000 A 
ATOM      5  C   UNL     1      -0.409  11.016  19.935  0.00  0.00    +0.000 A 
ATOM      6  C   UNL     1       0.531  10.038  19.386  0.00  0.00    +0.000 A 
ATOM      7  C   UNL     1       1.040   9.754  18.094  0.00  0.00    +0.000 A 
ATOM      8  C   UNL     1       1.876   8.649  17.877  0.00  0.00    +0.000 A 
ATOM      9  C   UNL     1       2.217   7.807  18.926  0.00  0.00    +0.000 A 
ATOM     10  C   UNL     1       1.768   8.079  20.211  0.00  0.00    +0.000 A 
ATOM     11  C   UNL     1       0.943   9.197  20.428  0.00  0.00    +0.000 A 
ATOM     12  N   UNL     1       0.405   9.703  21.587  0.00  0.00    +0.000 N 
ATOM     13  C   UNL     1       0.715   9.217  22.917  0.00  0.00    +0.000 C 
ENDBRANCH   1   5
BRANCH   1  14
ATOM     14  C   UNL     1      -2.071  13.067  19.990  0.00  0.00    +0.000 A 
ATOM     15  C   UNL     1      -1.598  14.140  20.775  0.00  0.00    +0.000 A 
ATOM     16  C   UNL     1      -0.233  14.743  20.929  0.00  0.00    +0.000 C 
ATOM     17  N   UNL     1      -2.653  14.639  21.508  0.00  0.00    +0.000 N 
ATOM     18  C   UNL     1      -2.595  15.685  22.514  0.00  0.00    +0.000 C 
ATOM     19  C   UNL     1      -3.818  13.981  21.197  0.00  0.00    +0.000 A 
ATOM     20  C   UNL     1      -5.114  14.157  21.721  0.00  0.00    +0.000 A 
ATOM     21  C   UNL     1      -6.144  13.348  21.251  0.00  0.00    +0.000 A 
ATOM     22  C   UNL     1      -5.892  12.410  20.266  0.00  0.00    +0.000 A 
ATOM     23  C   UNL     1      -4.598  12.247  19.752  0.00  0.00    +0.000 A 
ATOM     24  C   UNL     1      -3.510  13.021  20.228  0.00  0.00    +0.000 A 
ENDBRANCH   1  14
BRANCH   1  25
ATOM     25  C   UNL     1      -1.992  11.370  17.980  0.00  0.00    +0.000 C 
ATOM     26  O   UNL     1      -2.510  10.266  18.122  0.00  0.00    +0.000 OA
BRANCH  25  27
ATOM     27  O   UNL     1      -2.105  12.002  16.783  0.00  0.00    +0.000 OA
ATOM     28  H   UNL     1      -3.006  11.980  16.407  0.00  0.00    +0.000 HD
ENDBRANCH  25  27
ENDBRANCH   1  25
TORSDOF 4
ENDMDL
MODEL 3
REMARK VINA RESULT:      -6.5      2.920      5.204
REMARK  Name = 
REMARK  9 active torsions:
REMARK  status: ('A' for Active; 'I' for Inactive)
REMARK    1  A    between atoms: C_1  and  C_2
REMARK    2  A    between atoms: C_3  and  C_4
REMARK    3  A    between atoms: C_4  and  C_5
REMARK    4  A    between atoms: C_4  and  C_6
REMARK    5  A    between atoms: C_4  and  C_9
REMARK    6  A    between atoms: C_6  and  O_8
REMARK    7  A    between atoms: C_10  and  C_11
REMARK    8  A    between atoms: N_12  and  C_13
REMARK    9  A    between atoms: N_26  and  C_27
REMARK                            x       y       z     vdW  Elec       q    Type
REMARK                         _______ _______ _______ _____ _____    ______ ____
ROOT
ATOM      1  C   UNL     1      -2.794  13.350  21.353  0.00  0.00    +0.000 C 
ATOM      2  C   UNL     1      -2.565  14.890  21.408  0.00  0.00    +0.000 C 
ENDROOT
BRANCH   1   5
ATOM      3  C   UNL     1      -5.979  14.525  20.897  0.00  0.00    +0.000 C 
ATOM      4  C   UNL     1      -5.191  13.501  20.144  0.00  0.00    +0.000 A 
ATOM      5  C   UNL     1      -3.889  12.990  20.287  0.00  0.00    +0.000 A 
ATOM      6  C   UNL     1      -3.721  12.047  19.180  0.00  0.00    +0.000 A 
ATOM      7  C   UNL     1      -2.671  11.207  18.731  0.00  0.00    +0.000 A 
ATOM      8  C   UNL     1      -2.794  10.478  17.540  0.00  0.00    +0.000 A 
ATOM      9  C   UNL     1      -3.947  10.567  16.774  0.00  0.00    +0.000 A 
ATOM     10  C   UNL     1      -5.010  11.350  17.206  0.00  0.00    +0.000 A 
ATOM     11  C   UNL     1      -4.889  12.068  18.409  0.00  0.00    +0.000 A 
ATOM     12  N   UNL     1      -5.790  12.870  19.069  0.00  0.00    +0.000 N 
ATOM     13  C   UNL     1      -7.179  13.033  18.686  0.00  0.00    +0.000 C 
ENDBRANCH   1   5
BRANCH   1  14
ATOM     14  C   UNL     1      -1.390  12.672  21.081  0.00  0.00    +0.000 A 
ATOM     15  C   UNL     1      -0.479  13.031  20.066  0.00  0.00    +0.000 A 
ATOM     16  C   UNL     1      -0.481  14.151  19.068  0.00  0.00    +0.000 C 
ATOM     17  N   UNL     1       0.549  12.114  20.061  0.00  0.00    +0.000 N 
ATOM     18  C   UNL     1       1.654  12.049  19.120  0.00  0.00    +0.000 C 
ATOM     19  C   UNL     1       0.388  11.196  21.071  0.00  0.00    +0.000 A 
ATOM     20  C   UNL     1       1.188  10.086  21.409  0.00  0.00    +0.000 A 
ATOM     21  C   UNL     1       0.806   9.284  22.480  0.00  0.00    +0.000 A 
ATOM     22  C   UNL     1      -0.328   9.597  23.208  0.00  0.00    +0.000 A 
ATOM     23  C   UNL     1      -1.113  10.705  22.861  0.00  0.00    +0.000 A 
ATOM     24  C   UNL     1      -0.785  11.528  21.755  0.00  0.00    +0.000 A 
ENDBRANCH   1  14
BRANCH   1  25
ATOM     25  C   UNL     1      -3.372  13.036  22.774  0.00  0.00    +0.000 C 
ATOM     26  O   UNL     1      -4.248  12.201  22.983  0.00  0.00    +0.000 OA
BRANCH  25  27
ATOM     27  O   UNL     1      -2.875  13.744  23.821  0.00  0.00    +0.000 OA
ATOM     28  H   UNL     1      -3.540  14.290  24.282  0.00  0.00    +0.000 HD
ENDBRANCH  25  27
ENDBRANCH   1  25
TORSDOF 4
ENDMDL
MODEL 4
REMARK VINA RESULT:      -6.5      1.849      5.914
REMARK  Name = 
REMARK  9 active torsions:
REMARK  status: ('A' for Active; 'I' for Inactive)
REMARK    1  A    between atoms: C_1  and  C_2
REMARK    2  A    between atoms: C_3  and  C_4
REMARK    3  A    between atoms: C_4  and  C_5
REMARK    4  A    between atoms: C_4  and  C_6
REMARK    5  A    between atoms: C_4  and  C_9
REMARK    6  A    between atoms: C_6  and  O_8
REMARK    7  A    between atoms: C_10  and  C_11
REMARK    8  A    between atoms: N_12  and  C_13
REMARK    9  A    between atoms: N_26  and  C_27
REMARK                            x       y       z     vdW  Elec       q    Type
REMARK                         _______ _______ _______ _____ _____    ______ ____
ROOT
ATOM      1  C   UNL     1      -1.077  11.851  18.735  0.00  0.00    +0.000 C 
ATOM      2  C   UNL     1      -0.096  12.805  17.991  0.00  0.00    +0.000 C 
ENDROOT
BRANCH   1   5
ATOM      3  C   UNL     1       1.331   9.656  17.678  0.00  0.00    +0.000 C 
ATOM      4  C   UNL     1       0.696   9.849  19.018  0.00  0.00    +0.000 A 
ATOM      5  C   UNL     1      -0.286  10.732  19.501  0.00  0.00    +0.000 A 
ATOM      6  C   UNL     1      -0.410  10.427  20.928  0.00  0.00    +0.000 A 
ATOM      7  C   UNL     1      -1.191  10.936  21.995  0.00  0.00    +0.000 A 
ATOM      8  C   UNL     1      -0.995  10.484  23.308  0.00  0.00    +0.000 A 
ATOM      9  C   UNL     1      -0.027   9.531  23.588  0.00  0.00    +0.000 A 
ATOM     10  C   UNL     1       0.729   8.984  22.560  0.00  0.00    +0.000 A 
ATOM     11  C   UNL     1       0.518   9.428  21.242  0.00  0.00    +0.000 A 
ATOM     12  N   UNL     1       1.093   9.029  20.059  0.00  0.00    +0.000 N 
ATOM     13  C   UNL     1       1.997   7.903  19.923  0.00  0.00    +0.000 C 
ENDBRANCH   1   5
BRANCH   1  14
ATOM     14  C   UNL     1      -1.989  12.743  19.671  0.00  0.00    +0.000 A 
ATOM     15  C   UNL     1      -1.539  13.755  20.546  0.00  0.00    +0.000 A 
ATOM     16  C   UNL     1      -0.182  14.351  20.775  0.00  0.00    +0.000 C 
ATOM     17  N   UNL     1      -2.612  14.192  21.292  0.00  0.00    +0.000 N 
ATOM     18  C   UNL     1      -2.583  15.158  22.376  0.00  0.00    +0.000 C 
ATOM     19  C   UNL     1      -3.766  13.554  20.906  0.00  0.00    +0.000 A 
ATOM     20  C   UNL     1      -5.074  13.683  21.414  0.00  0.00    +0.000 A 
ATOM     21  C   UNL     1      -6.090  12.908  20.860  0.00  0.00    +0.000 A 
ATOM     22  C   UNL     1      -5.810  12.049  19.813  0.00  0.00    +0.000 A 
ATOM     23  C   UNL     1      -4.505  11.932  19.316  0.00  0.00    +0.000 A 
ATOM     24  C   UNL     1      -3.432  12.673  19.873  0.00  0.00    +0.000 A 
ENDBRANCH   1  14
BRANCH   1  25
ATOM     25  C   UNL     1      -1.862  11.178  17.560  0.00  0.00    +0.000 C 
ATOM     26  O   UNL     1      -2.319  10.038  17.610  0.00  0.00    +0.000 OA
BRANCH  25  27
ATOM     27  O   UNL     1      -2.028  11.903  16.424  0.00  0.00    +0.000 OA
ATOM     28  H   UNL     1      -2.532  11.440  15.727  0.00  0.00    +0.000 HD
ENDBRANCH  25  27
ENDBRANCH   1  25
TORSDOF 4
ENDMDL
MODEL 5
REMARK VINA RESULT:      -6.5      2.499      4.835
REMARK  Name = 
REMARK  9 active torsions:
REMARK  status: ('A' for Active; 'I' for Inactive)
REMARK    1  A    between atoms: C_1  and  C_2
REMARK    2  A    between atoms: C_3  and  C_4
REMARK    3  A    between atoms: C_4  and  C_5
REMARK    4  A    between atoms: C_4  and  C_6
REMARK    5  A    between atoms: C_4  and  C_9
REMARK    6  A    between atoms: C_6  and  O_8
REMARK    7  A    between atoms: C_10  and  C_11
REMARK    8  A    between atoms: N_12  and  C_13
REMARK    9  A    between atoms: N_26  and  C_27
REMARK                            x       y       z     vdW  Elec       q    Type
REMARK                         _______ _______ _______ _____ _____    ______ ____
ROOT
ATOM      1  C   UNL     1      -1.415  12.441  19.540  0.00  0.00    +0.000 C 
ATOM      2  C   UNL     1      -0.838  12.654  18.109  0.00  0.00    +0.000 C 
ENDROOT
BRANCH   1   5
ATOM      3  C   UNL     1      -3.467  10.978  17.219  0.00  0.00    +0.000 C 
ATOM      4  C   UNL     1      -3.776  11.674  18.506  0.00  0.00    +0.000 A 
ATOM      5  C   UNL     1      -2.976  12.283  19.489  0.00  0.00    +0.000 A 
ATOM      6  C   UNL     1      -3.910  12.726  20.526  0.00  0.00    +0.000 A 
ATOM      7  C   UNL     1      -3.781  13.389  21.772  0.00  0.00    +0.000 A 
ATOM      8  C   UNL     1      -4.896  13.584  22.601  0.00  0.00    +0.000 A 
ATOM      9  C   UNL     1      -6.148  13.127  22.218  0.00  0.00    +0.000 A 
ATOM     10  C   UNL     1      -6.316  12.509  20.986  0.00  0.00    +0.000 A 
ATOM     11  C   UNL     1      -5.199  12.330  20.150  0.00  0.00    +0.000 A 
ATOM     12  N   UNL     1      -5.100  11.794  18.888  0.00  0.00    +0.000 N 
ATOM     13  C   UNL     1      -6.233  11.403  18.070  0.00  0.00    +0.000 C 
ENDBRANCH   1   5
BRANCH   1  14
ATOM     14  C   UNL     1      -0.667  11.200  20.174  0.00  0.00    +0.000 A 
ATOM     15  C   UNL     1      -0.649  10.853  21.542  0.00  0.00    +0.000 A 
ATOM     16  C   UNL     1      -1.365  11.425  22.730  0.00  0.00    +0.000 C 
ATOM     17  N   UNL     1       0.228   9.804  21.712  0.00  0.00    +0.000 N 
ATOM     18  C   UNL     1       0.622   9.194  22.969  0.00  0.00    +0.000 C 
ATOM     19  C   UNL     1       0.747   9.403  20.505  0.00  0.00    +0.000 A 
ATOM     20  C   UNL     1       1.686   8.390  20.226  0.00  0.00    +0.000 A 
ATOM     21  C   UNL     1       2.073   8.177  18.906  0.00  0.00    +0.000 A 
ATOM     22  C   UNL     1       1.517   8.936  17.892  0.00  0.00    +0.000 A 
ATOM     23  C   UNL     1       0.582   9.939  18.184  0.00  0.00    +0.000 A 
ATOM     24  C   UNL     1       0.188  10.217  19.516  0.00  0.00    +0.000 A 
ENDBRANCH   1  14
BRANCH   1  25
ATOM     25  C   UNL     1      -1.083  13.797  20.250  0.00  0.00    +0.000 C 
ATOM     26  O   UNL     1      -0.383  13.885  21.256  0.00  0.00    +0.000 OA
BRANCH  25  27
ATOM     27  O   UNL     1      -1.617  14.927  19.719  0.00  0.00    +0.000 OA
ATOM     28  H   UNL     1      -1.710  14.904  18.748  0.00  0.00    +0.000 HD
ENDBRANCH  25  27
ENDBRANCH   1  25
TORSDOF 4
ENDMDL
MODEL 6
REMARK VINA RESULT:      -6.5      2.316      4.461
REMARK  Name = 
REMARK  9 active torsions:
REMARK  status: ('A' for Active; 'I' for Inactive)
REMARK    1  A    between atoms: C_1  and  C_2
REMARK    2  A    between atoms: C_3  and  C_4
REMARK    3  A    between atoms: C_4  and  C_5
REMARK    4  A    between atoms: C_4  and  C_6
REMARK    5  A    between atoms: C_4  and  C_9
REMARK    6  A    between atoms: C_6  and  O_8
REMARK    7  A    between atoms: C_10  and  C_11
REMARK    8  A    between atoms: N_12  and  C_13
REMARK    9  A    between atoms: N_26  and  C_27
REMARK                            x       y       z     vdW  Elec       q    Type
REMARK                         _______ _______ _______ _____ _____    ______ ____
ROOT
ATOM      1  C   UNL     1      -1.364  12.633  19.591  0.00  0.00    +0.000 C 
ATOM      2  C   UNL     1      -1.159  12.483  18.054  0.00  0.00    +0.000 C 
ENDROOT
BRANCH   1   5
ATOM      3  C   UNL     1      -2.925  14.713  21.823  0.00  0.00    +0.000 C 
ATOM      4  C   UNL     1      -3.476  13.707  20.863  0.00  0.00    +0.000 A 
ATOM      5  C   UNL     1      -2.883  12.837  19.930  0.00  0.00    +0.000 A 
ATOM      6  C   UNL     1      -4.000  12.157  19.273  0.00  0.00    +0.000 A 
ATOM      7  C   UNL     1      -4.116  11.183  18.250  0.00  0.00    +0.000 A 
ATOM      8  C   UNL     1      -5.374  10.801  17.761  0.00  0.00    +0.000 A 
ATOM      9  C   UNL     1      -6.531  11.374  18.267  0.00  0.00    +0.000 A 
ATOM     10  C   UNL     1      -6.455  12.303  19.297  0.00  0.00    +0.000 A 
ATOM     11  C   UNL     1      -5.193  12.671  19.796  0.00  0.00    +0.000 A 
ATOM     12  N   UNL     1      -4.847  13.522  20.819  0.00  0.00    +0.000 N 
ATOM     13  C   UNL     1      -5.792  14.144  21.726  0.00  0.00    +0.000 C 
ENDBRANCH   1   5
BRANCH   1  14
ATOM     14  C   UNL     1      -0.720  11.364  20.282  0.00  0.00    +0.000 A 
ATOM     15  C   UNL     1      -0.800  11.036  21.652  0.00  0.00    +0.000 A 
ATOM     16  C   UNL     1      -1.553  11.660  22.790  0.00  0.00    +0.000 C 
ATOM     17  N   UNL     1       0.010   9.946  21.886  0.00  0.00    +0.000 N 
ATOM     18  C   UNL     1       0.298   9.335  23.171  0.00  0.00    +0.000 C 
ATOM     19  C   UNL     1       0.578   9.502  20.716  0.00  0.00    +0.000 A 
ATOM     20  C   UNL     1       1.478   8.439  20.504  0.00  0.00    +0.000 A 
ATOM     21  C   UNL     1       1.930   8.188  19.212  0.00  0.00    +0.000 A 
ATOM     22  C   UNL     1       1.474   8.960  18.158  0.00  0.00    +0.000 A 
ATOM     23  C   UNL     1       0.577  10.014  18.383  0.00  0.00    +0.000 A 
ATOM     24  C   UNL     1       0.120  10.330  19.687  0.00  0.00    +0.000 A 
ENDBRANCH   1  14
BRANCH   1  25
ATOM     25  C   UNL     1      -0.608  13.967  19.911  0.00  0.00    +0.000 C 
ATOM     26  O   UNL     1       0.144  14.109  20.871  0.00  0.00    +0.000 OA
BRANCH  25  27
ATOM     27  O   UNL     1      -0.816  15.018  19.076  0.00  0.00    +0.000 OA
ATOM     28  H   UNL     1      -0.282  15.807  19.291  0.00  0.00    +0.000 HD
ENDBRANCH  25  27
ENDBRANCH   1  25
TORSDOF 4
ENDMDL
MODEL 7
REMARK VINA RESULT:      -6.4      2.838      5.664
REMARK  Name = 
REMARK  9 active torsions:
REMARK  status: ('A' for Active; 'I' for Inactive)
REMARK    1  A    between atoms: C_1  and  C_2
REMARK    2  A    between atoms: C_3  and  C_4
REMARK    3  A    between atoms: C_4  and  C_5
REMARK    4  A    between atoms: C_4  and  C_6
REMARK    5  A    between atoms: C_4  and  C_9
REMARK    6  A    between atoms: C_6  and  O_8
REMARK    7  A    between atoms: C_10  and  C_11
REMARK    8  A    between atoms: N_12  and  C_13
REMARK    9  A    between atoms: N_26  and  C_27
REMARK                            x       y       z     vdW  Elec       q    Type
REMARK                         _______ _______ _______ _____ _____    ______ ____
ROOT
ATOM      1  C   UNL     1      -2.134  13.673  21.416  0.00  0.00    +0.000 C 
ATOM      2  C   UNL     1      -2.050  13.827  22.964  0.00  0.00    +0.000 C 
ENDROOT
BRANCH   1   5
ATOM      3  C   UNL     1      -0.182  13.650  18.600  0.00  0.00    +0.000 C 
ATOM      4  C   UNL     1      -0.290  12.678  19.731  0.00  0.00    +0.000 A 
ATOM      5  C   UNL     1      -1.066  12.643  20.903  0.00  0.00    +0.000 A 
ATOM      6  C   UNL     1      -0.643  11.433  21.611  0.00  0.00    +0.000 A 
ATOM      7  C   UNL     1      -1.001  10.812  22.833  0.00  0.00    +0.000 A 
ATOM      8  C   UNL     1      -0.316   9.677  23.290  0.00  0.00    +0.000 A 
ATOM      9  C   UNL     1       0.731   9.142  22.555  0.00  0.00    +0.000 A 
ATOM     10  C   UNL     1       1.082   9.703  21.334  0.00  0.00    +0.000 A 
ATOM     11  C   UNL     1       0.381  10.831  20.870  0.00  0.00    +0.000 A 
ATOM     12  N   UNL     1       0.500  11.542  19.700  0.00  0.00    +0.000 N 
ATOM     13  C   UNL     1       1.342  11.154  18.585  0.00  0.00    +0.000 C 
ENDBRANCH   1   5
BRANCH   1  14
ATOM     14  C   UNL     1      -3.624  13.281  21.058  0.00  0.00    +0.000 A 
ATOM     15  C   UNL     1      -4.769  13.589  21.824  0.00  0.00    +0.000 A 
ATOM     16  C   UNL     1      -4.955  14.418  23.060  0.00  0.00    +0.000 C 
ATOM     17  N   UNL     1      -5.852  12.948  21.262  0.00  0.00    +0.000 N 
ATOM     18  C   UNL     1      -7.208  12.915  21.779  0.00  0.00    +0.000 C 
ATOM     19  C   UNL     1      -5.482  12.276  20.122  0.00  0.00    +0.000 A 
ATOM     20  C   UNL     1      -6.262  11.481  19.258  0.00  0.00    +0.000 A 
ATOM     21  C   UNL     1      -5.651  10.884  18.159  0.00  0.00    +0.000 A 
ATOM     22  C   UNL     1      -4.305  11.097  17.916  0.00  0.00    +0.000 A 
ATOM     23  C   UNL     1      -3.542  11.892  18.783  0.00  0.00    +0.000 A 
ATOM     24  C   UNL     1      -4.113  12.488  19.935  0.00  0.00    +0.000 A 
ENDBRANCH   1  14
BRANCH   1  25
ATOM     25  C   UNL     1      -1.725  15.096  20.906  0.00  0.00    +0.000 C 
ATOM     26  O   UNL     1      -0.721  15.693  21.285  0.00  0.00    +0.000 OA
BRANCH  25  27
ATOM     27  O   UNL     1      -2.544  15.695  20.003  0.00  0.00    +0.000 OA
ATOM     28  H   UNL     1      -2.111  16.392  19.475  0.00  0.00    +0.000 HD
ENDBRANCH  25  27
ENDBRANCH   1  25
TORSDOF 4
ENDMDL
MODEL 8
REMARK VINA RESULT:      -6.4      0.670      2.416
REMARK  Name = 
REMARK  9 active torsions:
REMARK  status: ('A' for Active; 'I' for Inactive)
REMARK    1  A    between atoms: C_1  and  C_2
REMARK    2  A    between atoms: C_3  and  C_4
REMARK    3  A    between atoms: C_4  and  C_5
REMARK    4  A    between atoms: C_4  and  C_6
REMARK    5  A    between atoms: C_4  and  C_9
REMARK    6  A    between atoms: C_6  and  O_8
REMARK    7  A    between atoms: C_10  and  C_11
REMARK    8  A    between atoms: N_12  and  C_13
REMARK    9  A    between atoms: N_26  and  C_27
REMARK                            x       y       z     vdW  Elec       q    Type
REMARK                         _______ _______ _______ _____ _____    ______ ____
ROOT
ATOM      1  C   UNL     1      -1.018  12.276  19.402  0.00  0.00    +0.000 C 
ATOM      2  C   UNL     1      -2.309  12.593  20.214  0.00  0.00    +0.000 C 
ENDROOT
BRANCH   1   5
ATOM      3  C   UNL     1       2.184  12.670  18.247  0.00  0.00    +0.000 C 
ATOM      4  C   UNL     1       1.219  13.654  18.826  0.00  0.00    +0.000 A 
ATOM      5  C   UNL     1      -0.098  13.545  19.307  0.00  0.00    +0.000 A 
ATOM      6  C   UNL     1      -0.485  14.906  19.682  0.00  0.00    +0.000 A 
ATOM      7  C   UNL     1      -1.655  15.503  20.216  0.00  0.00    +0.000 A 
ATOM      8  C   UNL     1      -1.746  16.894  20.371  0.00  0.00    +0.000 A 
ATOM      9  C   UNL     1      -0.692  17.715  20.000  0.00  0.00    +0.000 A 
ATOM     10  C   UNL     1       0.483  17.160  19.510  0.00  0.00    +0.000 A 
ATOM     11  C   UNL     1       0.577  15.763  19.371  0.00  0.00    +0.000 A 
ATOM     12  N   UNL     1       1.621  14.972  18.957  0.00  0.00    +0.000 N 
ATOM     13  C   UNL     1       2.962  15.454  18.689  0.00  0.00    +0.000 C 
ENDBRANCH   1   5
BRANCH   1  14
ATOM     14  C   UNL     1      -0.320  11.032  20.086  0.00  0.00    +0.000 A 
ATOM     15  C   UNL     1      -0.287  10.757  21.470  0.00  0.00    +0.000 A 
ATOM     16  C   UNL     1      -0.941  11.429  22.641  0.00  0.00    +0.000 C 
ATOM     17  N   UNL     1       0.539   9.674  21.678  0.00  0.00    +0.000 N 
ATOM     18  C   UNL     1       0.931   9.111  22.957  0.00  0.00    +0.000 C 
ATOM     19  C   UNL     1       1.006   9.181  20.483  0.00  0.00    +0.000 A 
ATOM     20  C   UNL     1       1.884   8.106  20.239  0.00  0.00    +0.000 A 
ATOM     21  C   UNL     1       2.226   7.803  18.924  0.00  0.00    +0.000 A 
ATOM     22  C   UNL     1       1.685   8.536  17.883  0.00  0.00    +0.000 A 
ATOM     23  C   UNL     1       0.812   9.602  18.140  0.00  0.00    +0.000 A 
ATOM     24  C   UNL     1       0.465   9.971  19.464  0.00  0.00    +0.000 A 
ENDBRANCH   1  14
BRANCH   1  25
ATOM     25  C   UNL     1      -1.576  11.969  17.972  0.00  0.00    +0.000 C 
ATOM     26  O   UNL     1      -2.352  11.048  17.728  0.00  0.00    +0.000 OA
BRANCH  25  27
ATOM     27  O   UNL     1      -1.161  12.766  16.955  0.00  0.00    +0.000 OA
ATOM     28  H   UNL     1      -0.191  12.846  16.883  0.00  0.00    +0.000 HD
ENDBRANCH  25  27
ENDBRANCH   1  25
TORSDOF 4
ENDMDL
MODEL 9
REMARK VINA RESULT:      -6.4      3.265      5.835
REMARK  Name = 
REMARK  9 active torsions:
REMARK  status: ('A' for Active; 'I' for Inactive)
REMARK    1  A    between atoms: C_1  and  C_2
REMARK    2  A    between atoms: C_3  and  C_4
REMARK    3  A    between atoms: C_4  and  C_5
REMARK    4  A    between atoms: C_4  and  C_6
REMARK    5  A    between atoms: C_4  and  C_9
REMARK    6  A    between atoms: C_6  and  O_8
REMARK    7  A    between atoms: C_10  and  C_11
REMARK    8  A    between atoms: N_12  and  C_13
REMARK    9  A    between atoms: N_26  and  C_27
REMARK                            x       y       z     vdW  Elec       q    Type
REMARK                         _______ _______ _______ _____ _____    ______ ____
ROOT
ATOM      1  C   UNL     1      -2.765  13.425  22.303  0.00  0.00    +0.000 C 
ATOM      2  C   UNL     1      -2.807  13.059  23.816  0.00  0.00    +0.000 C 
ENDROOT
BRANCH   1   5
ATOM      3  C   UNL     1      -0.862  14.381  19.619  0.00  0.00    +0.000 C 
ATOM      4  C   UNL     1      -0.794  13.168  20.491  0.00  0.00    +0.000 A 
ATOM      5  C   UNL     1      -1.543  12.734  21.599  0.00  0.00    +0.000 A 
ATOM      6  C   UNL     1      -0.917  11.480  22.021  0.00  0.00    +0.000 A 
ATOM      7  C   UNL     1      -1.155  10.541  23.055  0.00  0.00    +0.000 A 
ATOM      8  C   UNL     1      -0.284   9.460  23.259  0.00  0.00    +0.000 A 
ATOM      9  C   UNL     1       0.832   9.292  22.452  0.00  0.00    +0.000 A 
ATOM     10  C   UNL     1       1.072  10.172  21.405  0.00  0.00    +0.000 A 
ATOM     11  C   UNL     1       0.188  11.245  21.194  0.00  0.00    +0.000 A 
ATOM     12  N   UNL     1       0.175  12.218  20.223  0.00  0.00    +0.000 N 
ATOM     13  C   UNL     1       1.061  12.245  19.075  0.00  0.00    +0.000 C 
ENDBRANCH   1   5
BRANCH   1  14
ATOM     14  C   UNL     1      -4.166  13.032  21.681  0.00  0.00    +0.000 A 
ATOM     15  C   UNL     1      -5.417  13.136  22.325  0.00  0.00    +0.000 A 
ATOM     16  C   UNL     1      -5.816  13.711  23.652  0.00  0.00    +0.000 C 
ATOM     17  N   UNL     1      -6.371  12.558  21.516  0.00  0.00    +0.000 N 
ATOM     18  C   UNL     1      -7.775  12.363  21.829  0.00  0.00    +0.000 C 
ATOM     19  C   UNL     1      -5.814  12.130  20.335  0.00  0.00    +0.000 A 
ATOM     20  C   UNL     1      -6.419  11.473  19.246  0.00  0.00    +0.000 A 
ATOM     21  C   UNL     1      -5.633  11.121  18.152  0.00  0.00    +0.000 A 
ATOM     22  C   UNL     1      -4.287  11.441  18.137  0.00  0.00    +0.000 A 
ATOM     23  C   UNL     1      -3.699  12.097  19.228  0.00  0.00    +0.000 A 
ATOM     24  C   UNL     1      -4.451  12.440  20.378  0.00  0.00    +0.000 A 
ENDBRANCH   1  14
BRANCH   1  25
ATOM     25  C   UNL     1      -2.506  14.968  22.329  0.00  0.00    +0.000 C 
ATOM     26  O   UNL     1      -3.190  15.784  21.716  0.00  0.00    +0.000 OA
BRANCH  25  27
ATOM     27  O   UNL     1      -1.455  15.413  23.064  0.00  0.00    +0.000 OA
ATOM     28  H   UNL     1      -0.667  15.639  22.534  0.00  0.00    +0.000 HD
ENDBRANCH  25  27
ENDBRANCH   1  25
TORSDOF 4
ENDMDL
