MODEL 1
REMARK VINA RESULT:      -8.2      0.000      0.000
REMARK  Name = 
REMARK  12 active torsions:
REMARK  status: ('A' for Active; 'I' for Inactive)
REMARK    1  A    between atoms: C_1  and  O_2
REMARK    2  A    between atoms: O_2  and  C_3
REMARK    3  A    between atoms: C_5  and  O_6
REMARK    4  A    between atoms: O_6  and  C_7
REMARK    5  A    between atoms: C_10  and  N_11
REMARK    6  A    between atoms: C_14  and  C_15
REMARK    7  A    between atoms: C_19  and  O_20
REMARK    8  A    between atoms: O_20  and  C_21
REMARK    9  A    between atoms: C_21  and  C_22
REMARK   10  A    between atoms: C_22  and  C_23
REMARK   11  A    between atoms: C_23  and  C_24
REMARK   12  A    between atoms: C_24  and  O_26
REMARK                            x       y       z     vdW  Elec       q    Type
REMARK                         _______ _______ _______ _____ _____    ______ ____
ROOT
ATOM      1  C   UNL     1       5.443   4.359  19.070  0.00  0.00    +0.000 A 
ATOM      2  C   UNL     1       4.848   3.102  19.054  0.00  0.00    +0.000 A 
ATOM      3  C   UNL     1       3.466   3.000  19.115  0.00  0.00    +0.000 A 
ATOM      4  C   UNL     1       2.693   4.168  19.195  0.00  0.00    +0.000 A 
ATOM      5  C   UNL     1       3.261   5.464  19.286  0.00  0.00    +0.000 A 
ATOM      6  C   UNL     1       4.670   5.513  19.248  0.00  0.00    +0.000 A 
ENDROOT
BRANCH   5   7
ATOM      7  C   UNL     1       2.485   6.732  19.354  0.00  0.00    +0.000 A 
ATOM      8  C   UNL     1       2.403   7.610  18.266  0.00  0.00    +0.000 A 
ATOM      9  C   UNL     1       1.845   8.880  18.395  0.00  0.00    +0.000 A 
ATOM     10  F   UNL     1       1.928   9.675  17.319  0.00  0.00    +0.000 F 
ATOM     11  C   UNL     1       1.262   9.308  19.585  0.00  0.00    +0.000 A 
ATOM     12  C   UNL     1       1.224   8.395  20.636  0.00  0.00    +0.000 A 
ATOM     13  F   UNL     1       0.631   8.719  21.795  0.00  0.00    +0.000 F 
ATOM     14  C   UNL     1       1.832   7.138  20.533  0.00  0.00    +0.000 A 
BRANCH  11  15
ATOM     15  O   UNL     1       0.734  10.551  19.828  0.00  0.00    +0.000 OA
BRANCH  15  16
ATOM     16  C   UNL     1      -0.159  11.037  18.823  0.00  0.00    +0.000 C 
BRANCH  16  17
ATOM     17  C   UNL     1      -1.378  10.135  18.715  0.00  0.00    +0.000 C 
BRANCH  17  18
ATOM     18  C   UNL     1      -1.865   9.999  17.275  0.00  0.00    +0.000 C 
BRANCH  18  19
ATOM     19  C   UNL     1      -2.837  11.099  16.921  0.00  0.00    +0.000 C 
ATOM     20  O   UNL     1      -3.595  11.652  17.701  0.00  0.00    +0.000 OA
BRANCH  19  21
ATOM     21  O   UNL     1      -2.801  11.407  15.604  0.00  0.00    +0.000 OA
ATOM     22  H   UNL     1      -1.991  11.104  15.157  0.00  0.00    +0.000 HD
ENDBRANCH  19  21
ENDBRANCH  18  19
ENDBRANCH  17  18
ENDBRANCH  16  17
ENDBRANCH  15  16
ENDBRANCH  11  15
ENDBRANCH   5   7
BRANCH   4  23
ATOM     23  N   UNL     1       1.258   3.955  19.106  0.00  0.00    +0.000 N 
ATOM     24  O   UNL     1       0.785   3.812  17.971  0.00  0.00    +0.000 OA
ATOM     25  O   UNL     1       0.615   3.956  20.163  0.00  0.00    +0.000 OA
ENDBRANCH   4  23
BRANCH   1  26
ATOM     26  O   UNL     1       6.788   4.559  18.860  0.00  0.00    +0.000 OA
BRANCH  26  29
ATOM     27  C   UNL     1       6.686   5.416  15.526  0.00  0.00    +0.000 C 
ATOM     28  C   UNL     1       6.201   4.230  16.389  0.00  0.00    +0.000 C 
ATOM     29  C   UNL     1       7.184   4.741  17.482  0.00  0.00    +0.000 C 
ATOM     30  C   UNL     1       6.964   6.145  16.868  0.00  0.00    +0.000 C 
BRANCH  27  32
ATOM     31  C   UNL     1       7.656   5.181  13.305  0.00  0.00    +0.000 C 
ATOM     32  O   UNL     1       7.840   5.108  14.710  0.00  0.00    +0.000 OA
ENDBRANCH  27  32
ENDBRANCH  26  29
ENDBRANCH   1  26
TORSDOF 11
ENDMDL
MODEL 2
REMARK VINA RESULT:      -8.0      2.855      7.969
REMARK  Name = 
REMARK  12 active torsions:
REMARK  status: ('A' for Active; 'I' for Inactive)
REMARK    1  A    between atoms: C_1  and  O_2
REMARK    2  A    between atoms: O_2  and  C_3
REMARK    3  A    between atoms: C_5  and  O_6
REMARK    4  A    between atoms: O_6  and  C_7
REMARK    5  A    between atoms: C_10  and  N_11
REMARK    6  A    between atoms: C_14  and  C_15
REMARK    7  A    between atoms: C_19  and  O_20
REMARK    8  A    between atoms: O_20  and  C_21
REMARK    9  A    between atoms: C_21  and  C_22
REMARK   10  A    between atoms: C_22  and  C_23
REMARK   11  A    between atoms: C_23  and  C_24
REMARK   12  A    between atoms: C_24  and  O_26
REMARK                            x       y       z     vdW  Elec       q    Type
REMARK                         _______ _______ _______ _____ _____    ______ ____
ROOT
ATOM      1  C   UNL     1       1.618   5.547  20.580  0.00  0.00    +0.000 A 
ATOM      2  C   UNL     1       0.954   4.325  20.535  0.00  0.00    +0.000 A 
ATOM      3  C   UNL     1       1.397   3.340  19.664  0.00  0.00    +0.000 A 
ATOM      4  C   UNL     1       2.504   3.597  18.841  0.00  0.00    +0.000 A 
ATOM      5  C   UNL     1       3.164   4.851  18.805  0.00  0.00    +0.000 A 
ATOM      6  C   UNL     1       2.660   5.828  19.688  0.00  0.00    +0.000 A 
ENDROOT
BRANCH   5   7
ATOM      7  C   UNL     1       4.352   5.166  17.966  0.00  0.00    +0.000 A 
ATOM      8  C   UNL     1       4.283   6.056  16.888  0.00  0.00    +0.000 A 
ATOM      9  C   UNL     1       5.339   6.197  15.990  0.00  0.00    +0.000 A 
ATOM     10  F   UNL     1       5.115   6.988  14.931  0.00  0.00    +0.000 F 
ATOM     11  C   UNL     1       6.548   5.528  16.168  0.00  0.00    +0.000 A 
ATOM     12  C   UNL     1       6.673   4.739  17.308  0.00  0.00    +0.000 A 
ATOM     13  F   UNL     1       7.827   4.107  17.573  0.00  0.00    +0.000 F 
ATOM     14  C   UNL     1       5.598   4.548  18.185  0.00  0.00    +0.000 A 
BRANCH  11  15
ATOM     15  O   UNL     1       7.625   5.560  15.319  0.00  0.00    +0.000 OA
BRANCH  15  16
ATOM     16  C   UNL     1       7.312   5.387  13.935  0.00  0.00    +0.000 C 
BRANCH  16  17
ATOM     17  C   UNL     1       6.460   4.144  13.735  0.00  0.00    +0.000 C 
BRANCH  17  18
ATOM     18  C   UNL     1       6.776   3.437  12.420  0.00  0.00    +0.000 C 
BRANCH  18  19
ATOM     19  C   UNL     1       5.551   2.757  11.857  0.00  0.00    +0.000 C 
ATOM     20  O   UNL     1       4.448   3.268  11.743  0.00  0.00    +0.000 OA
BRANCH  19  21
ATOM     21  O   UNL     1       5.797   1.476  11.500  0.00  0.00    +0.000 OA
ATOM     22  H   UNL     1       5.545   1.274  10.581  0.00  0.00    +0.000 HD
ENDBRANCH  19  21
ENDBRANCH  18  19
ENDBRANCH  17  18
ENDBRANCH  16  17
ENDBRANCH  15  16
ENDBRANCH  11  15
ENDBRANCH   5   7
BRANCH   4  23
ATOM     23  N   UNL     1       2.972   2.452  18.078  0.00  0.00    +0.000 N 
ATOM     24  O   UNL     1       3.707   1.649  18.669  0.00  0.00    +0.000 OA
ATOM     25  O   UNL     1       2.624   2.376  16.893  0.00  0.00    +0.000 OA
ENDBRANCH   4  23
BRANCH   1  26
ATOM     26  O   UNL     1       1.344   6.518  21.516  0.00  0.00    +0.000 OA
BRANCH  26  29
ATOM     27  C   UNL     1       0.335   9.806  21.331  0.00  0.00    +0.000 C 
ATOM     28  C   UNL     1      -0.356   8.425  21.335  0.00  0.00    +0.000 C 
ATOM     29  C   UNL     1       1.037   7.827  20.984  0.00  0.00    +0.000 C 
ATOM     30  C   UNL     1       1.627   9.046  21.735  0.00  0.00    +0.000 C 
BRANCH  27  32
ATOM     31  C   UNL     1      -0.226  11.745  19.969  0.00  0.00    +0.000 C 
ATOM     32  O   UNL     1       0.346  10.448  20.034  0.00  0.00    +0.000 OA
ENDBRANCH  27  32
ENDBRANCH  26  29
ENDBRANCH   1  26
TORSDOF 11
ENDMDL
MODEL 3
REMARK VINA RESULT:      -7.7      1.036      1.347
REMARK  Name = 
REMARK  12 active torsions:
REMARK  status: ('A' for Active; 'I' for Inactive)
REMARK    1  A    between atoms: C_1  and  O_2
REMARK    2  A    between atoms: O_2  and  C_3
REMARK    3  A    between atoms: C_5  and  O_6
REMARK    4  A    between atoms: O_6  and  C_7
REMARK    5  A    between atoms: C_10  and  N_11
REMARK    6  A    between atoms: C_14  and  C_15
REMARK    7  A    between atoms: C_19  and  O_20
REMARK    8  A    between atoms: O_20  and  C_21
REMARK    9  A    between atoms: C_21  and  C_22
REMARK   10  A    between atoms: C_22  and  C_23
REMARK   11  A    between atoms: C_23  and  C_24
REMARK   12  A    between atoms: C_24  and  O_26
REMARK                            x       y       z     vdW  Elec       q    Type
REMARK                         _______ _______ _______ _____ _____    ______ ____
ROOT
ATOM      1  C   UNL     1       5.464   4.445  18.499  0.00  0.00    +0.000 A 
ATOM      2  C   UNL     1       5.066   3.193  18.954  0.00  0.00    +0.000 A 
ATOM      3  C   UNL     1       3.828   3.051  19.564  0.00  0.00    +0.000 A 
ATOM      4  C   UNL     1       3.001   4.176  19.712  0.00  0.00    +0.000 A 
ATOM      5  C   UNL     1       3.398   5.481  19.327  0.00  0.00    +0.000 A 
ATOM      6  C   UNL     1       4.676   5.578  18.738  0.00  0.00    +0.000 A 
ENDROOT
BRANCH   5   7
ATOM      7  C   UNL     1       2.552   6.699  19.445  0.00  0.00    +0.000 A 
ATOM      8  C   UNL     1       2.317   7.547  18.357  0.00  0.00    +0.000 A 
ATOM      9  C   UNL     1       1.693   8.783  18.517  0.00  0.00    +0.000 A 
ATOM     10  F   UNL     1       1.629   9.560  17.426  0.00  0.00    +0.000 F 
ATOM     11  C   UNL     1       1.193   9.198  19.749  0.00  0.00    +0.000 A 
ATOM     12  C   UNL     1       1.307   8.306  20.812  0.00  0.00    +0.000 A 
ATOM     13  F   UNL     1       0.801   8.617  22.015  0.00  0.00    +0.000 F 
ATOM     14  C   UNL     1       1.982   7.088  20.673  0.00  0.00    +0.000 A 
BRANCH  11  15
ATOM     15  O   UNL     1       0.610  10.411  20.020  0.00  0.00    +0.000 OA
BRANCH  15  16
ATOM     16  C   UNL     1      -0.806  10.457  19.834  0.00  0.00    +0.000 C 
BRANCH  16  17
ATOM     17  C   UNL     1      -1.168  11.470  18.760  0.00  0.00    +0.000 C 
BRANCH  17  18
ATOM     18  C   UNL     1      -1.739  10.803  17.511  0.00  0.00    +0.000 C 
BRANCH  18  19
ATOM     19  C   UNL     1      -3.203  11.128  17.340  0.00  0.00    +0.000 C 
ATOM     20  O   UNL     1      -3.966  10.572  16.566  0.00  0.00    +0.000 OA
BRANCH  19  21
ATOM     21  O   UNL     1      -3.597  12.145  18.140  0.00  0.00    +0.000 OA
ATOM     22  H   UNL     1      -4.562  12.273  18.158  0.00  0.00    +0.000 HD
ENDBRANCH  19  21
ENDBRANCH  18  19
ENDBRANCH  17  18
ENDBRANCH  16  17
ENDBRANCH  15  16
ENDBRANCH  11  15
ENDBRANCH   5   7
BRANCH   4  23
ATOM     23  N   UNL     1       1.673   3.890  20.227  0.00  0.00    +0.000 N 
ATOM     24  O   UNL     1       1.564   3.771  21.455  0.00  0.00    +0.000 OA
ATOM     25  O   UNL     1       0.757   3.763  19.404  0.00  0.00    +0.000 OA
ENDBRANCH   4  23
BRANCH   1  26
ATOM     26  O   UNL     1       6.602   4.648  17.751  0.00  0.00    +0.000 OA
BRANCH  26  29
ATOM     27  C   UNL     1       6.084   4.630  14.346  0.00  0.00    +0.000 C 
ATOM     28  C   UNL     1       5.211   4.463  15.608  0.00  0.00    +0.000 C 
ATOM     29  C   UNL     1       6.535   4.195  16.379  0.00  0.00    +0.000 C 
ATOM     30  C   UNL     1       7.209   5.090  15.311  0.00  0.00    +0.000 C 
BRANCH  27  32
ATOM     31  C   UNL     1       5.887   3.360  12.278  0.00  0.00    +0.000 C 
ATOM     32  O   UNL     1       6.316   3.395  13.630  0.00  0.00    +0.000 OA
ENDBRANCH  27  32
ENDBRANCH  26  29
ENDBRANCH   1  26
TORSDOF 11
ENDMDL
MODEL 4
REMARK VINA RESULT:      -7.5      2.732      8.118
REMARK  Name = 
REMARK  12 active torsions:
REMARK  status: ('A' for Active; 'I' for Inactive)
REMARK    1  A    between atoms: C_1  and  O_2
REMARK    2  A    between atoms: O_2  and  C_3
REMARK    3  A    between atoms: C_5  and  O_6
REMARK    4  A    between atoms: O_6  and  C_7
REMARK    5  A    between atoms: C_10  and  N_11
REMARK    6  A    between atoms: C_14  and  C_15
REMARK    7  A    between atoms: C_19  and  O_20
REMARK    8  A    between atoms: O_20  and  C_21
REMARK    9  A    between atoms: C_21  and  C_22
REMARK   10  A    between atoms: C_22  and  C_23
REMARK   11  A    between atoms: C_23  and  C_24
REMARK   12  A    between atoms: C_24  and  O_26
REMARK                            x       y       z     vdW  Elec       q    Type
REMARK                         _______ _______ _______ _____ _____    ______ ____
ROOT
ATOM      1  C   UNL     1       1.811   7.192  20.465  0.00  0.00    +0.000 A 
ATOM      2  C   UNL     1       1.146   6.064  20.934  0.00  0.00    +0.000 A 
ATOM      3  C   UNL     1       1.553   4.807  20.510  0.00  0.00    +0.000 A 
ATOM      4  C   UNL     1       2.626   4.698  19.613  0.00  0.00    +0.000 A 
ATOM      5  C   UNL     1       3.284   5.823  19.056  0.00  0.00    +0.000 A 
ATOM      6  C   UNL     1       2.816   7.079  19.496  0.00  0.00    +0.000 A 
ENDROOT
BRANCH   5   7
ATOM      7  C   UNL     1       4.437   5.760  18.118  0.00  0.00    +0.000 A 
ATOM      8  C   UNL     1       4.389   6.338  16.844  0.00  0.00    +0.000 A 
ATOM      9  C   UNL     1       5.389   6.109  15.901  0.00  0.00    +0.000 A 
ATOM     10  F   UNL     1       5.177   6.617  14.678  0.00  0.00    +0.000 F 
ATOM     11  C   UNL     1       6.528   5.368  16.205  0.00  0.00    +0.000 A 
ATOM     12  C   UNL     1       6.647   4.896  17.509  0.00  0.00    +0.000 A 
ATOM     13  F   UNL     1       7.742   4.219  17.888  0.00  0.00    +0.000 F 
ATOM     14  C   UNL     1       5.622   5.073  18.446  0.00  0.00    +0.000 A 
BRANCH  11  15
ATOM     15  O   UNL     1       7.540   5.045  15.336  0.00  0.00    +0.000 OA
BRANCH  15  16
ATOM     16  C   UNL     1       7.183   5.071  13.953  0.00  0.00    +0.000 C 
BRANCH  16  17
ATOM     17  C   UNL     1       6.499   3.773  13.556  0.00  0.00    +0.000 C 
BRANCH  17  18
ATOM     18  C   UNL     1       6.521   3.550  12.046  0.00  0.00    +0.000 C 
BRANCH  18  19
ATOM     19  C   UNL     1       5.466   2.556  11.625  0.00  0.00    +0.000 C 
ATOM     20  O   UNL     1       5.649   1.363  11.442  0.00  0.00    +0.000 OA
BRANCH  19  21
ATOM     21  O   UNL     1       4.260   3.140  11.442  0.00  0.00    +0.000 OA
ATOM     22  H   UNL     1       4.297   3.944  10.893  0.00  0.00    +0.000 HD
ENDBRANCH  19  21
ENDBRANCH  18  19
ENDBRANCH  17  18
ENDBRANCH  16  17
ENDBRANCH  15  16
ENDBRANCH  11  15
ENDBRANCH   5   7
BRANCH   4  23
ATOM     23  N   UNL     1       3.063   3.337  19.350  0.00  0.00    +0.000 N 
ATOM     24  O   UNL     1       2.703   2.832  18.278  0.00  0.00    +0.000 OA
ATOM     25  O   UNL     1       3.738   2.777  20.222  0.00  0.00    +0.000 OA
ENDBRANCH   4  23
BRANCH   1  26
ATOM     26  O   UNL     1       1.576   8.460  20.947  0.00  0.00    +0.000 OA
BRANCH  26  29
ATOM     27  C   UNL     1      -0.146  11.074  19.510  0.00  0.00    +0.000 C 
ATOM     28  C   UNL     1       0.051  10.518  20.937  0.00  0.00    +0.000 C 
ATOM     29  C   UNL     1       0.545   9.207  20.261  0.00  0.00    +0.000 C 
ATOM     30  C   UNL     1       0.996  10.111  19.088  0.00  0.00    +0.000 C 
BRANCH  27  32
ATOM     31  C   UNL     1      -1.953  11.750  18.025  0.00  0.00    +0.000 C 
ATOM     32  O   UNL     1      -1.454  10.802  18.954  0.00  0.00    +0.000 OA
ENDBRANCH  27  32
ENDBRANCH  26  29
ENDBRANCH   1  26
TORSDOF 11
ENDMDL
MODEL 5
REMARK VINA RESULT:      -7.5      1.790      2.806
REMARK  Name = 
REMARK  12 active torsions:
REMARK  status: ('A' for Active; 'I' for Inactive)
REMARK    1  A    between atoms: C_1  and  O_2
REMARK    2  A    between atoms: O_2  and  C_3
REMARK    3  A    between atoms: C_5  and  O_6
REMARK    4  A    between atoms: O_6  and  C_7
REMARK    5  A    between atoms: C_10  and  N_11
REMARK    6  A    between atoms: C_14  and  C_15
REMARK    7  A    between atoms: C_19  and  O_20
REMARK    8  A    between atoms: O_20  and  C_21
REMARK    9  A    between atoms: C_21  and  C_22
REMARK   10  A    between atoms: C_22  and  C_23
REMARK   11  A    between atoms: C_23  and  C_24
REMARK   12  A    between atoms: C_24  and  O_26
REMARK                            x       y       z     vdW  Elec       q    Type
REMARK                         _______ _______ _______ _____ _____    ______ ____
ROOT
ATOM      1  C   UNL     1       5.527   4.232  18.770  0.00  0.00    +0.000 A 
ATOM      2  C   UNL     1       4.854   3.019  18.671  0.00  0.00    +0.000 A 
ATOM      3  C   UNL     1       3.469   2.999  18.755  0.00  0.00    +0.000 A 
ATOM      4  C   UNL     1       2.774   4.204  18.942  0.00  0.00    +0.000 A 
ATOM      5  C   UNL     1       3.424   5.451  19.118  0.00  0.00    +0.000 A 
ATOM      6  C   UNL     1       4.833   5.415  19.053  0.00  0.00    +0.000 A 
ENDROOT
BRANCH   5   7
ATOM      7  C   UNL     1       2.733   6.756  19.300  0.00  0.00    +0.000 A 
ATOM      8  C   UNL     1       2.135   7.115  20.513  0.00  0.00    +0.000 A 
ATOM      9  C   UNL     1       1.324   8.244  20.620  0.00  0.00    +0.000 A 
ATOM     10  F   UNL     1       0.710   8.422  21.798  0.00  0.00    +0.000 F 
ATOM     11  C   UNL     1       1.140   9.118  19.552  0.00  0.00    +0.000 A 
ATOM     12  C   UNL     1       1.834   8.840  18.378  0.00  0.00    +0.000 A 
ATOM     13  F   UNL     1       1.746   9.667  17.325  0.00  0.00    +0.000 F 
ATOM     14  C   UNL     1       2.605   7.679  18.244  0.00  0.00    +0.000 A 
BRANCH  11  15
ATOM     15  O   UNL     1       0.326  10.224  19.541  0.00  0.00    +0.000 OA
BRANCH  15  16
ATOM     16  C   UNL     1       0.809  11.339  20.292  0.00  0.00    +0.000 C 
BRANCH  16  17
ATOM     17  C   UNL     1      -0.350  12.102  20.913  0.00  0.00    +0.000 C 
BRANCH  17  18
ATOM     18  C   UNL     1      -1.193  11.221  21.830  0.00  0.00    +0.000 C 
BRANCH  18  19
ATOM     19  C   UNL     1      -1.771  12.018  22.974  0.00  0.00    +0.000 C 
ATOM     20  O   UNL     1      -2.771  11.724  23.609  0.00  0.00    +0.000 OA
BRANCH  19  21
ATOM     21  O   UNL     1      -1.059  13.141  23.223  0.00  0.00    +0.000 OA
ATOM     22  H   UNL     1      -0.556  13.105  24.056  0.00  0.00    +0.000 HD
ENDBRANCH  19  21
ENDBRANCH  18  19
ENDBRANCH  17  18
ENDBRANCH  16  17
ENDBRANCH  15  16
ENDBRANCH  11  15
ENDBRANCH   5   7
BRANCH   4  23
ATOM     23  N   UNL     1       1.327   4.088  18.869  0.00  0.00    +0.000 N 
ATOM     24  O   UNL     1       0.823   4.096  17.737  0.00  0.00    +0.000 OA
ATOM     25  O   UNL     1       0.706   4.015  19.936  0.00  0.00    +0.000 OA
ENDBRANCH   4  23
BRANCH   1  26
ATOM     26  O   UNL     1       6.879   4.363  18.546  0.00  0.00    +0.000 OA
BRANCH  26  29
ATOM     27  C   UNL     1       6.674   5.336  15.248  0.00  0.00    +0.000 C 
ATOM     28  C   UNL     1       6.417   4.039  16.047  0.00  0.00    +0.000 C 
ATOM     29  C   UNL     1       7.258   4.683  17.188  0.00  0.00    +0.000 C 
ATOM     30  C   UNL     1       6.777   6.042  16.626  0.00  0.00    +0.000 C 
BRANCH  27  32
ATOM     31  C   UNL     1       7.710   5.134  13.054  0.00  0.00    +0.000 C 
ATOM     32  O   UNL     1       7.882   5.299  14.453  0.00  0.00    +0.000 OA
ENDBRANCH  27  32
ENDBRANCH  26  29
ENDBRANCH   1  26
TORSDOF 11
ENDMDL
MODEL 6
REMARK VINA RESULT:      -7.4      1.253      2.251
REMARK  Name = 
REMARK  12 active torsions:
REMARK  status: ('A' for Active; 'I' for Inactive)
REMARK    1  A    between atoms: C_1  and  O_2
REMARK    2  A    between atoms: O_2  and  C_3
REMARK    3  A    between atoms: C_5  and  O_6
REMARK    4  A    between atoms: O_6  and  C_7
REMARK    5  A    between atoms: C_10  and  N_11
REMARK    6  A    between atoms: C_14  and  C_15
REMARK    7  A    between atoms: C_19  and  O_20
REMARK    8  A    between atoms: O_20  and  C_21
REMARK    9  A    between atoms: C_21  and  C_22
REMARK   10  A    between atoms: C_22  and  C_23
REMARK   11  A    between atoms: C_23  and  C_24
REMARK   12  A    between atoms: C_24  and  O_26
REMARK                            x       y       z     vdW  Elec       q    Type
REMARK                         _______ _______ _______ _____ _____    ______ ____
ROOT
ATOM      1  C   UNL     1       5.535   4.269  18.895  0.00  0.00    +0.000 A 
ATOM      2  C   UNL     1       4.869   3.050  18.822  0.00  0.00    +0.000 A 
ATOM      3  C   UNL     1       3.483   3.025  18.890  0.00  0.00    +0.000 A 
ATOM      4  C   UNL     1       2.780   4.231  19.034  0.00  0.00    +0.000 A 
ATOM      5  C   UNL     1       3.422   5.486  19.184  0.00  0.00    +0.000 A 
ATOM      6  C   UNL     1       4.832   5.456  19.136  0.00  0.00    +0.000 A 
ENDROOT
BRANCH   5   7
ATOM      7  C   UNL     1       2.723   6.792  19.321  0.00  0.00    +0.000 A 
ATOM      8  C   UNL     1       2.060   7.158  20.498  0.00  0.00    +0.000 A 
ATOM      9  C   UNL     1       1.245   8.287  20.555  0.00  0.00    +0.000 A 
ATOM     10  F   UNL     1       0.569   8.472  21.698  0.00  0.00    +0.000 F 
ATOM     11  C   UNL     1       1.118   9.156  19.474  0.00  0.00    +0.000 A 
ATOM     12  C   UNL     1       1.874   8.870  18.340  0.00  0.00    +0.000 A 
ATOM     13  F   UNL     1       1.842   9.692  17.279  0.00  0.00    +0.000 F 
ATOM     14  C   UNL     1       2.651   7.709  18.254  0.00  0.00    +0.000 A 
BRANCH  11  15
ATOM     15  O   UNL     1       0.306  10.260  19.413  0.00  0.00    +0.000 OA
BRANCH  15  16
ATOM     16  C   UNL     1      -0.955  10.051  18.775  0.00  0.00    +0.000 C 
BRANCH  16  17
ATOM     17  C   UNL     1      -1.838  11.280  18.927  0.00  0.00    +0.000 C 
BRANCH  17  18
ATOM     18  C   UNL     1      -1.275  12.267  19.946  0.00  0.00    +0.000 C 
BRANCH  18  19
ATOM     19  C   UNL     1      -0.918  13.581  19.293  0.00  0.00    +0.000 C 
ATOM     20  O   UNL     1      -0.116  13.725  18.384  0.00  0.00    +0.000 OA
BRANCH  19  21
ATOM     21  O   UNL     1      -1.579  14.623  19.849  0.00  0.00    +0.000 OA
ATOM     22  H   UNL     1      -2.110  14.375  20.626  0.00  0.00    +0.000 HD
ENDBRANCH  19  21
ENDBRANCH  18  19
ENDBRANCH  17  18
ENDBRANCH  16  17
ENDBRANCH  15  16
ENDBRANCH  11  15
ENDBRANCH   5   7
BRANCH   4  23
ATOM     23  N   UNL     1       1.335   4.106  18.946  0.00  0.00    +0.000 N 
ATOM     24  O   UNL     1       0.718   4.006  20.015  0.00  0.00    +0.000 OA
ATOM     25  O   UNL     1       0.832   4.085  17.816  0.00  0.00    +0.000 OA
ENDBRANCH   4  23
BRANCH   1  26
ATOM     26  O   UNL     1       6.889   4.402  18.684  0.00  0.00    +0.000 OA
BRANCH  26  29
ATOM     27  C   UNL     1       6.738   5.369  15.382  0.00  0.00    +0.000 C 
ATOM     28  C   UNL     1       6.391   4.099  16.189  0.00  0.00    +0.000 C 
ATOM     29  C   UNL     1       7.283   4.685  17.322  0.00  0.00    +0.000 C 
ATOM     30  C   UNL     1       6.900   6.073  16.755  0.00  0.00    +0.000 C 
BRANCH  27  32
ATOM     31  C   UNL     1       7.754   5.229  13.174  0.00  0.00    +0.000 C 
ATOM     32  O   UNL     1       7.936   5.239  14.580  0.00  0.00    +0.000 OA
ENDBRANCH  27  32
ENDBRANCH  26  29
ENDBRANCH   1  26
TORSDOF 11
ENDMDL
MODEL 7
REMARK VINA RESULT:      -7.3      1.792      3.155
REMARK  Name = 
REMARK  12 active torsions:
REMARK  status: ('A' for Active; 'I' for Inactive)
REMARK    1  A    between atoms: C_1  and  O_2
REMARK    2  A    between atoms: O_2  and  C_3
REMARK    3  A    between atoms: C_5  and  O_6
REMARK    4  A    between atoms: O_6  and  C_7
REMARK    5  A    between atoms: C_10  and  N_11
REMARK    6  A    between atoms: C_14  and  C_15
REMARK    7  A    between atoms: C_19  and  O_20
REMARK    8  A    between atoms: O_20  and  C_21
REMARK    9  A    between atoms: C_21  and  C_22
REMARK   10  A    between atoms: C_22  and  C_23
REMARK   11  A    between atoms: C_23  and  C_24
REMARK   12  A    between atoms: C_24  and  O_26
REMARK                            x       y       z     vdW  Elec       q    Type
REMARK                         _______ _______ _______ _____ _____    ______ ____
ROOT
ATOM      1  C   UNL     1       5.547   4.288  18.653  0.00  0.00    +0.000 A 
ATOM      2  C   UNL     1       4.891   3.070  18.504  0.00  0.00    +0.000 A 
ATOM      3  C   UNL     1       3.505   3.030  18.568  0.00  0.00    +0.000 A 
ATOM      4  C   UNL     1       2.792   4.220  18.784  0.00  0.00    +0.000 A 
ATOM      5  C   UNL     1       3.425   5.468  19.011  0.00  0.00    +0.000 A 
ATOM      6  C   UNL     1       4.834   5.452  18.965  0.00  0.00    +0.000 A 
ENDROOT
BRANCH   5   7
ATOM      7  C   UNL     1       2.714   6.758  19.226  0.00  0.00    +0.000 A 
ATOM      8  C   UNL     1       2.099   7.072  20.443  0.00  0.00    +0.000 A 
ATOM      9  C   UNL     1       1.273   8.185  20.577  0.00  0.00    +0.000 A 
ATOM     10  F   UNL     1       0.644   8.319  21.753  0.00  0.00    +0.000 F 
ATOM     11  C   UNL     1       1.087   9.090  19.534  0.00  0.00    +0.000 A 
ATOM     12  C   UNL     1       1.797   8.857  18.360  0.00  0.00    +0.000 A 
ATOM     13  F   UNL     1       1.708   9.716  17.332  0.00  0.00    +0.000 F 
ATOM     14  C   UNL     1       2.584   7.711  18.198  0.00  0.00    +0.000 A 
BRANCH  11  15
ATOM     15  O   UNL     1       0.259  10.185  19.549  0.00  0.00    +0.000 OA
BRANCH  15  16
ATOM     16  C   UNL     1       0.675  11.248  20.407  0.00  0.00    +0.000 C 
BRANCH  16  17
ATOM     17  C   UNL     1       0.793  12.547  19.625  0.00  0.00    +0.000 C 
BRANCH  17  18
ATOM     18  C   UNL     1       2.247  12.921  19.350  0.00  0.00    +0.000 C 
BRANCH  18  19
ATOM     19  C   UNL     1       2.711  14.024  20.270  0.00  0.00    +0.000 C 
ATOM     20  O   UNL     1       2.679  15.218  20.016  0.00  0.00    +0.000 OA
BRANCH  19  21
ATOM     21  O   UNL     1       3.202  13.544  21.435  0.00  0.00    +0.000 OA
ATOM     22  H   UNL     1       3.982  12.972  21.321  0.00  0.00    +0.000 HD
ENDBRANCH  19  21
ENDBRANCH  18  19
ENDBRANCH  17  18
ENDBRANCH  16  17
ENDBRANCH  15  16
ENDBRANCH  11  15
ENDBRANCH   5   7
BRANCH   4  23
ATOM     23  N   UNL     1       1.348   4.089  18.686  0.00  0.00    +0.000 N 
ATOM     24  O   UNL     1       0.732   3.907  19.744  0.00  0.00    +0.000 OA
ATOM     25  O   UNL     1       0.846   4.145  17.556  0.00  0.00    +0.000 OA
ENDBRANCH   4  23
BRANCH   1  26
ATOM     26  O   UNL     1       6.901   4.443  18.453  0.00  0.00    +0.000 OA
BRANCH  26  29
ATOM     27  C   UNL     1       6.722   5.331  15.131  0.00  0.00    +0.000 C 
ATOM     28  C   UNL     1       6.600   4.024  15.944  0.00  0.00    +0.000 C 
ATOM     29  C   UNL     1       7.296   4.790  17.106  0.00  0.00    +0.000 C 
ATOM     30  C   UNL     1       6.667   6.066  16.497  0.00  0.00    +0.000 C 
BRANCH  27  32
ATOM     31  C   UNL     1       7.862   5.320  12.980  0.00  0.00    +0.000 C 
ATOM     32  O   UNL     1       7.959   5.443  14.389  0.00  0.00    +0.000 OA
ENDBRANCH  27  32
ENDBRANCH  26  29
ENDBRANCH   1  26
TORSDOF 11
ENDMDL
MODEL 8
REMARK VINA RESULT:      -7.3      2.771      7.915
REMARK  Name = 
REMARK  12 active torsions:
REMARK  status: ('A' for Active; 'I' for Inactive)
REMARK    1  A    between atoms: C_1  and  O_2
REMARK    2  A    between atoms: O_2  and  C_3
REMARK    3  A    between atoms: C_5  and  O_6
REMARK    4  A    between atoms: O_6  and  C_7
REMARK    5  A    between atoms: C_10  and  N_11
REMARK    6  A    between atoms: C_14  and  C_15
REMARK    7  A    between atoms: C_19  and  O_20
REMARK    8  A    between atoms: O_20  and  C_21
REMARK    9  A    between atoms: C_21  and  C_22
REMARK   10  A    between atoms: C_22  and  C_23
REMARK   11  A    between atoms: C_23  and  C_24
REMARK   12  A    between atoms: C_24  and  O_26
REMARK                            x       y       z     vdW  Elec       q    Type
REMARK                         _______ _______ _______ _____ _____    ______ ____
ROOT
ATOM      1  C   UNL     1       1.442   6.606  20.614  0.00  0.00    +0.000 A 
ATOM      2  C   UNL     1       0.804   5.384  20.799  0.00  0.00    +0.000 A 
ATOM      3  C   UNL     1       1.295   4.255  20.159  0.00  0.00    +0.000 A 
ATOM      4  C   UNL     1       2.425   4.368  19.334  0.00  0.00    +0.000 A 
ATOM      5  C   UNL     1       3.061   5.605  19.063  0.00  0.00    +0.000 A 
ATOM      6  C   UNL     1       2.508   6.728  19.714  0.00  0.00    +0.000 A 
ENDROOT
BRANCH   5   7
ATOM      7  C   UNL     1       4.270   5.775  18.212  0.00  0.00    +0.000 A 
ATOM      8  C   UNL     1       4.226   6.451  16.987  0.00  0.00    +0.000 A 
ATOM      9  C   UNL     1       5.306   6.437  16.107  0.00  0.00    +0.000 A 
ATOM     10  F   UNL     1       5.106   7.017  14.915  0.00  0.00    +0.000 F 
ATOM     11  C   UNL     1       6.514   5.826  16.438  0.00  0.00    +0.000 A 
ATOM     12  C   UNL     1       6.611   5.262  17.707  0.00  0.00    +0.000 A 
ATOM     13  F   UNL     1       7.761   4.703  18.114  0.00  0.00    +0.000 F 
ATOM     14  C   UNL     1       5.513   5.222  18.574  0.00  0.00    +0.000 A 
BRANCH  11  15
ATOM     15  O   UNL     1       7.614   5.715  15.626  0.00  0.00    +0.000 OA
BRANCH  15  16
ATOM     16  C   UNL     1       7.380   5.070  14.372  0.00  0.00    +0.000 C 
BRANCH  16  17
ATOM     17  C   UNL     1       6.403   3.918  14.542  0.00  0.00    +0.000 C 
BRANCH  17  18
ATOM     18  C   UNL     1       5.515   3.732  13.315  0.00  0.00    +0.000 C 
BRANCH  18  19
ATOM     19  C   UNL     1       6.312   3.231  12.135  0.00  0.00    +0.000 C 
ATOM     20  O   UNL     1       7.163   3.867  11.534  0.00  0.00    +0.000 OA
BRANCH  19  21
ATOM     21  O   UNL     1       5.963   1.973  11.782  0.00  0.00    +0.000 OA
ATOM     22  H   UNL     1       6.531   1.593  11.087  0.00  0.00    +0.000 HD
ENDBRANCH  19  21
ENDBRANCH  18  19
ENDBRANCH  17  18
ENDBRANCH  16  17
ENDBRANCH  15  16
ENDBRANCH  11  15
ENDBRANCH   5   7
BRANCH   4  23
ATOM     23  N   UNL     1       2.941   3.105  18.834  0.00  0.00    +0.000 N 
ATOM     24  O   UNL     1       3.487   2.359  19.658  0.00  0.00    +0.000 OA
ATOM     25  O   UNL     1       2.819   2.879  17.623  0.00  0.00    +0.000 OA
ENDBRANCH   4  23
BRANCH   1  26
ATOM     26  O   UNL     1       1.118   7.740  21.324  0.00  0.00    +0.000 OA
BRANCH  26  29
ATOM     27  C   UNL     1       0.225  10.886  20.244  0.00  0.00    +0.000 C 
ATOM     28  C   UNL     1      -0.299   9.447  20.043  0.00  0.00    +0.000 C 
ATOM     29  C   UNL     1       1.089   8.967  20.560  0.00  0.00    +0.000 C 
ATOM     30  C   UNL     1       1.127  10.292  21.359  0.00  0.00    +0.000 C 
BRANCH  27  32
ATOM     31  C   UNL     1       0.696  12.803  18.819  0.00  0.00    +0.000 C 
ATOM     32  O   UNL     1       0.905  11.426  19.086  0.00  0.00    +0.000 OA
ENDBRANCH  27  32
ENDBRANCH  26  29
ENDBRANCH   1  26
TORSDOF 11
ENDMDL
MODEL 9
REMARK VINA RESULT:      -7.2      1.466      1.738
REMARK  Name = 
REMARK  12 active torsions:
REMARK  status: ('A' for Active; 'I' for Inactive)
REMARK    1  A    between atoms: C_1  and  O_2
REMARK    2  A    between atoms: O_2  and  C_3
REMARK    3  A    between atoms: C_5  and  O_6
REMARK    4  A    between atoms: O_6  and  C_7
REMARK    5  A    between atoms: C_10  and  N_11
REMARK    6  A    between atoms: C_14  and  C_15
REMARK    7  A    between atoms: C_19  and  O_20
REMARK    8  A    between atoms: O_20  and  C_21
REMARK    9  A    between atoms: C_21  and  C_22
REMARK   10  A    between atoms: C_22  and  C_23
REMARK   11  A    between atoms: C_23  and  C_24
REMARK   12  A    between atoms: C_24  and  O_26
REMARK                            x       y       z     vdW  Elec       q    Type
REMARK                         _______ _______ _______ _____ _____    ______ ____
ROOT
ATOM      1  C   UNL     1       5.311   5.137  17.804  0.00  0.00    +0.000 A 
ATOM      2  C   UNL     1       5.165   3.904  18.431  0.00  0.00    +0.000 A 
ATOM      3  C   UNL     1       4.116   3.710  19.319  0.00  0.00    +0.000 A 
ATOM      4  C   UNL     1       3.223   4.764  19.569  0.00  0.00    +0.000 A 
ATOM      5  C   UNL     1       3.377   6.056  19.006  0.00  0.00    +0.000 A 
ATOM      6  C   UNL     1       4.474   6.211  18.133  0.00  0.00    +0.000 A 
ENDROOT
BRANCH   5   7
ATOM      7  C   UNL     1       2.449   7.198  19.225  0.00  0.00    +0.000 A 
ATOM      8  C   UNL     1       2.095   8.074  18.193  0.00  0.00    +0.000 A 
ATOM      9  C   UNL     1       1.388   9.249  18.444  0.00  0.00    +0.000 A 
ATOM     10  F   UNL     1       1.211  10.067  17.397  0.00  0.00    +0.000 F 
ATOM     11  C   UNL     1       0.921   9.566  19.717  0.00  0.00    +0.000 A 
ATOM     12  C   UNL     1       1.157   8.638  20.727  0.00  0.00    +0.000 A 
ATOM     13  F   UNL     1       0.690   8.852  21.967  0.00  0.00    +0.000 F 
ATOM     14  C   UNL     1       1.914   7.483  20.496  0.00  0.00    +0.000 A 
BRANCH  11  15
ATOM     15  O   UNL     1       0.263  10.715  20.075  0.00  0.00    +0.000 OA
BRANCH  15  16
ATOM     16  C   UNL     1      -1.144  10.711  19.827  0.00  0.00    +0.000 C 
BRANCH  16  17
ATOM     17  C   UNL     1      -1.482  11.634  18.667  0.00  0.00    +0.000 C 
BRANCH  17  18
ATOM     18  C   UNL     1      -2.962  11.575  18.298  0.00  0.00    +0.000 C 
BRANCH  18  19
ATOM     19  C   UNL     1      -3.148  11.183  16.852  0.00  0.00    +0.000 C 
ATOM     20  O   UNL     1      -4.201  11.230  16.236  0.00  0.00    +0.000 OA
BRANCH  19  21
ATOM     21  O   UNL     1      -2.000  10.738  16.292  0.00  0.00    +0.000 OA
ATOM     22  H   UNL     1      -1.690  11.290  15.552  0.00  0.00    +0.000 HD
ENDBRANCH  19  21
ENDBRANCH  18  19
ENDBRANCH  17  18
ENDBRANCH  16  17
ENDBRANCH  15  16
ENDBRANCH  11  15
ENDBRANCH   5   7
BRANCH   4  23
ATOM     23  N   UNL     1       2.082   4.409  20.396  0.00  0.00    +0.000 N 
ATOM     24  O   UNL     1       1.016   4.182  19.809  0.00  0.00    +0.000 OA
ATOM     25  O   UNL     1       2.252   4.384  21.621  0.00  0.00    +0.000 OA
ENDBRANCH   4  23
BRANCH   1  26
ATOM     26  O   UNL     1       6.225   5.369  16.801  0.00  0.00    +0.000 OA
BRANCH  26  29
ATOM     27  C   UNL     1       6.245   3.732  13.771  0.00  0.00    +0.000 C 
ATOM     28  C   UNL     1       6.903   4.999  14.359  0.00  0.00    +0.000 C 
ATOM     29  C   UNL     1       5.830   4.925  15.483  0.00  0.00    +0.000 C 
ATOM     30  C   UNL     1       5.826   3.399  15.228  0.00  0.00    +0.000 C 
BRANCH  27  32
ATOM     31  C   UNL     1       5.016   3.095  11.769  0.00  0.00    +0.000 C 
ATOM     32  O   UNL     1       5.173   4.010  12.841  0.00  0.00    +0.000 OA
ENDBRANCH  27  32
ENDBRANCH  26  29
ENDBRANCH   1  26
TORSDOF 11
ENDMDL
