MODEL 1
REMARK VINA RESULT:      -7.9      0.000      0.000
REMARK  Name = 
REMARK  6 active torsions:
REMARK  status: ('A' for Active; 'I' for Inactive)
REMARK    1  A    between atoms: C_1  and  O_2
REMARK    2  A    between atoms: O_2  and  C_3
REMARK    3  A    between atoms: C_8  and  C_9
REMARK    4  A    between atoms: N_19  and  C_20
REMARK    5  A    between atoms: C_26  and  O_27
REMARK    6  A    between atoms: O_27  and  C_28
REMARK                            x       y       z     vdW  Elec       q    Type
REMARK                         _______ _______ _______ _____ _____    ______ ____
ROOT
ATOM      1  C   UNL     1       0.945   8.773  21.073  0.00  0.00    +0.000 A 
ATOM      2  C   UNL     1       0.243   8.496  22.270  0.00  0.00    +0.000 A 
ATOM      3  C   UNL     1      -0.473   9.467  22.944  0.00  0.00    +0.000 A 
ATOM      4  C   UNL     1      -0.490  10.748  22.427  0.00  0.00    +0.000 A 
ATOM      5  C   UNL     1       0.310  11.146  21.364  0.00  0.00    +0.000 A 
ATOM      6  C   UNL     1       0.989  10.154  20.644  0.00  0.00    +0.000 A 
ATOM      7  C   UNL     1       0.061  12.643  21.025  0.00  0.00    +0.000 C 
ATOM      8  N   UNL     1       0.799  13.746  21.748  0.00  0.00    +0.000 NA
ATOM      9  C   UNL     1       0.905  14.614  20.791  0.00  0.00    +0.000 C 
ATOM     10  N   UNL     1       0.191  15.776  20.607  0.00  0.00    +0.000 N 
ATOM     11  N   UNL     1       1.367  14.097  19.668  0.00  0.00    +0.000 N 
ATOM     12  C   UNL     1       2.265  14.844  18.802  0.00  0.00    +0.000 C 
ATOM     13  C   UNL     1       0.577  12.991  19.534  0.00  0.00    +0.000 C 
ATOM     14  O   UNL     1       0.315  12.425  18.485  0.00  0.00    +0.000 OA
ATOM     15  C   UNL     1      -1.410  12.859  21.751  0.00  0.00    +0.000 C 
ATOM     16  C   UNL     1      -1.637  14.206  22.564  0.00  0.00    +0.000 C 
ATOM     17  C   UNL     1      -3.035  14.428  23.109  0.00  0.00    +0.000 C 
ATOM     18  C   UNL     1      -4.044  14.326  21.970  0.00  0.00    +0.000 C 
ATOM     19  C   UNL     1      -3.977  12.897  21.418  0.00  0.00    +0.000 C 
ATOM     20  C   UNL     1      -2.597  12.571  20.803  0.00  0.00    +0.000 C 
ATOM     21  C   UNL     1      -1.346  11.830  22.934  0.00  0.00    +0.000 C 
ATOM     22  H   UNL     1      -0.798  15.525  20.494  0.00  0.00    +0.000 HD
ATOM     23  H   UNL     1       0.338  16.182  19.689  0.00  0.00    +0.000 HD
ENDROOT
BRANCH   1  29
ATOM     24  C   UNL     1       2.127   5.220  20.214  0.00  0.00    +0.000 A 
ATOM     25  C   UNL     1       2.892   5.442  19.079  0.00  0.00    +0.000 A 
ATOM     26  C   UNL     1       2.992   6.736  18.572  0.00  0.00    +0.000 A 
ATOM     27 CL   UNL     1       3.921   7.013  17.145  0.00  0.00    +0.000 Cl
ATOM     28  C   UNL     1       2.344   7.817  19.188  0.00  0.00    +0.000 A 
ATOM     29  C   UNL     1       1.565   7.632  20.335  0.00  0.00    +0.000 A 
ATOM     30  C   UNL     1       1.454   6.298  20.809  0.00  0.00    +0.000 A 
BRANCH  24  32
ATOM     31  C   UNL     1       1.092   3.083  20.130  0.00  0.00    +0.000 C 
ATOM     32  O   UNL     1       1.940   4.002  20.816  0.00  0.00    +0.000 OA
ENDBRANCH  24  32
ENDBRANCH   1  29
BRANCH  18  33
ATOM     33  O   UNL     1      -3.754  15.202  20.869  0.00  0.00    +0.000 OA
ATOM     34  C   UNL     1      -4.145  16.556  21.052  0.00  0.00    +0.000 C 
ENDBRANCH  18  33
TORSDOF 3
ENDMDL
MODEL 2
REMARK VINA RESULT:      -7.9      1.403      1.894
REMARK  Name = 
REMARK  6 active torsions:
REMARK  status: ('A' for Active; 'I' for Inactive)
REMARK    1  A    between atoms: C_1  and  O_2
REMARK    2  A    between atoms: O_2  and  C_3
REMARK    3  A    between atoms: C_8  and  C_9
REMARK    4  A    between atoms: N_19  and  C_20
REMARK    5  A    between atoms: C_26  and  O_27
REMARK    6  A    between atoms: O_27  and  C_28
REMARK                            x       y       z     vdW  Elec       q    Type
REMARK                         _______ _______ _______ _____ _____    ______ ____
ROOT
ATOM      1  C   UNL     1       0.868   8.928  21.203  0.00  0.00    +0.000 A 
ATOM      2  C   UNL     1       0.167   8.630  22.395  0.00  0.00    +0.000 A 
ATOM      3  C   UNL     1      -0.581   9.579  23.067  0.00  0.00    +0.000 A 
ATOM      4  C   UNL     1      -0.630  10.859  22.551  0.00  0.00    +0.000 A 
ATOM      5  C   UNL     1       0.165  11.282  21.493  0.00  0.00    +0.000 A 
ATOM      6  C   UNL     1       0.877  10.310  20.776  0.00  0.00    +0.000 A 
ATOM      7  C   UNL     1      -0.124  12.771  21.154  0.00  0.00    +0.000 C 
ATOM      8  N   UNL     1       0.579  13.894  21.883  0.00  0.00    +0.000 NA
ATOM      9  C   UNL     1       0.666  14.765  20.928  0.00  0.00    +0.000 C 
ATOM     10  N   UNL     1      -0.079  15.908  20.741  0.00  0.00    +0.000 N 
ATOM     11  N   UNL     1       1.149  14.263  19.807  0.00  0.00    +0.000 N 
ATOM     12  C   UNL     1       2.031  15.036  18.948  0.00  0.00    +0.000 C 
ATOM     13  C   UNL     1       0.392  13.135  19.667  0.00  0.00    +0.000 C 
ATOM     14  O   UNL     1       0.153  12.564  18.615  0.00  0.00    +0.000 OA
ATOM     15  C   UNL     1      -1.604  12.945  21.871  0.00  0.00    +0.000 C 
ATOM     16  C   UNL     1      -1.874  14.284  22.685  0.00  0.00    +0.000 C 
ATOM     17  C   UNL     1      -3.281  14.466  23.221  0.00  0.00    +0.000 C 
ATOM     18  C   UNL     1      -4.280  14.337  22.076  0.00  0.00    +0.000 C 
ATOM     19  C   UNL     1      -4.170  12.911  21.523  0.00  0.00    +0.000 C 
ATOM     20  C   UNL     1      -2.777  12.625  20.916  0.00  0.00    +0.000 C 
ATOM     21  C   UNL     1      -1.519  11.916  23.054  0.00  0.00    +0.000 C 
ATOM     22  H   UNL     1      -1.060  15.628  20.621  0.00  0.00    +0.000 HD
ATOM     23  H   UNL     1       0.063  16.319  19.825  0.00  0.00    +0.000 HD
ENDROOT
BRANCH   1  29
ATOM     24  C   UNL     1       2.758   6.988  18.477  0.00  0.00    +0.000 A 
ATOM     25  C   UNL     1       2.626   5.680  18.917  0.00  0.00    +0.000 A 
ATOM     26  C   UNL     1       1.959   5.432  20.116  0.00  0.00    +0.000 A 
ATOM     27 CL   UNL     1       1.816   3.808  20.680  0.00  0.00    +0.000 Cl
ATOM     28  C   UNL     1       1.413   6.473  20.879  0.00  0.00    +0.000 A 
ATOM     29  C   UNL     1       1.525   7.805  20.468  0.00  0.00    +0.000 A 
ATOM     30  C   UNL     1       2.238   8.031  19.260  0.00  0.00    +0.000 A 
BRANCH  24  32
ATOM     31  C   UNL     1       4.600   6.692  17.007  0.00  0.00    +0.000 C 
ATOM     32  O   UNL     1       3.389   7.375  17.323  0.00  0.00    +0.000 OA
ENDBRANCH  24  32
ENDBRANCH   1  29
BRANCH  18  33
ATOM     33  O   UNL     1      -4.007  15.223  20.978  0.00  0.00    +0.000 OA
ATOM     34  C   UNL     1      -5.145  15.862  20.416  0.00  0.00    +0.000 C 
ENDBRANCH  18  33
TORSDOF 3
ENDMDL
MODEL 3
REMARK VINA RESULT:      -7.7      2.712      4.551
REMARK  Name = 
REMARK  6 active torsions:
REMARK  status: ('A' for Active; 'I' for Inactive)
REMARK    1  A    between atoms: C_1  and  O_2
REMARK    2  A    between atoms: O_2  and  C_3
REMARK    3  A    between atoms: C_8  and  C_9
REMARK    4  A    between atoms: N_19  and  C_20
REMARK    5  A    between atoms: C_26  and  O_27
REMARK    6  A    between atoms: O_27  and  C_28
REMARK                            x       y       z     vdW  Elec       q    Type
REMARK                         _______ _______ _______ _____ _____    ______ ____
ROOT
ATOM      1  C   UNL     1       2.088   7.692  19.265  0.00  0.00    +0.000 A 
ATOM      2  C   UNL     1       2.447   8.182  17.987  0.00  0.00    +0.000 A 
ATOM      3  C   UNL     1       2.185   9.482  17.597  0.00  0.00    +0.000 A 
ATOM      4  C   UNL     1       1.543  10.318  18.489  0.00  0.00    +0.000 A 
ATOM      5  C   UNL     1       1.000   9.873  19.688  0.00  0.00    +0.000 A 
ATOM      6  C   UNL     1       1.315   8.575  20.111  0.00  0.00    +0.000 A 
ATOM      7  C   UNL     1       0.346  11.052  20.461  0.00  0.00    +0.000 C 
ATOM      8  N   UNL     1      -1.080  11.476  20.190  0.00  0.00    +0.000 NA
ATOM      9  C   UNL     1      -1.435  11.854  21.377  0.00  0.00    +0.000 C 
ATOM     10  N   UNL     1      -1.582  13.135  21.859  0.00  0.00    +0.000 N 
ATOM     11  N   UNL     1      -1.145  10.970  22.314  0.00  0.00    +0.000 N 
ATOM     12  C   UNL     1      -2.031  10.745  23.444  0.00  0.00    +0.000 C 
ATOM     13  C   UNL     1       0.159  10.685  22.023  0.00  0.00    +0.000 C 
ATOM     14  O   UNL     1       0.990  10.268  22.813  0.00  0.00    +0.000 OA
ATOM     15  C   UNL     1       1.092  12.329  19.720  0.00  0.00    +0.000 C 
ATOM     16  C   UNL     1       0.199  13.593  19.359  0.00  0.00    +0.000 C 
ATOM     17  C   UNL     1       0.938  14.793  18.796  0.00  0.00    +0.000 C 
ATOM     18  C   UNL     1       2.055  15.194  19.754  0.00  0.00    +0.000 C 
ATOM     19  C   UNL     1       3.045  14.026  19.828  0.00  0.00    +0.000 C 
ATOM     20  C   UNL     1       2.402  12.752  20.423  0.00  0.00    +0.000 C 
ATOM     21  C   UNL     1       1.361  11.761  18.281  0.00  0.00    +0.000 C 
ATOM     22  H   UNL     1      -0.669  13.601  21.803  0.00  0.00    +0.000 HD
ATOM     23  H   UNL     1      -1.691  13.162  22.867  0.00  0.00    +0.000 HD
ENDROOT
BRANCH   1  29
ATOM     24  C   UNL     1       4.261   4.537  19.557  0.00  0.00    +0.000 A 
ATOM     25  C   UNL     1       3.399   3.656  20.191  0.00  0.00    +0.000 A 
ATOM     26  C   UNL     1       2.129   4.098  20.559  0.00  0.00    +0.000 A 
ATOM     27 CL   UNL     1       1.063   3.013  21.373  0.00  0.00    +0.000 Cl
ATOM     28  C   UNL     1       1.703   5.407  20.293  0.00  0.00    +0.000 A 
ATOM     29  C   UNL     1       2.544   6.323  19.653  0.00  0.00    +0.000 A 
ATOM     30  C   UNL     1       3.844   5.856  19.321  0.00  0.00    +0.000 A 
BRANCH  24  32
ATOM     31  C   UNL     1       6.431   5.341  19.019  0.00  0.00    +0.000 C 
ATOM     32  O   UNL     1       5.534   4.239  19.145  0.00  0.00    +0.000 OA
ENDBRANCH  24  32
ENDBRANCH   1  29
BRANCH  18  33
ATOM     33  O   UNL     1       1.598  15.429  21.096  0.00  0.00    +0.000 OA
ATOM     34  C   UNL     1       2.466  16.211  21.905  0.00  0.00    +0.000 C 
ENDBRANCH  18  33
TORSDOF 3
ENDMDL
MODEL 4
REMARK VINA RESULT:      -7.2      2.425      4.115
REMARK  Name = 
REMARK  6 active torsions:
REMARK  status: ('A' for Active; 'I' for Inactive)
REMARK    1  A    between atoms: C_1  and  O_2
REMARK    2  A    between atoms: O_2  and  C_3
REMARK    3  A    between atoms: C_8  and  C_9
REMARK    4  A    between atoms: N_19  and  C_20
REMARK    5  A    between atoms: C_26  and  O_27
REMARK    6  A    between atoms: O_27  and  C_28
REMARK                            x       y       z     vdW  Elec       q    Type
REMARK                         _______ _______ _______ _____ _____    ______ ____
ROOT
ATOM      1  C   UNL     1       1.950   8.184  18.868  0.00  0.00    +0.000 A 
ATOM      2  C   UNL     1       2.358   8.852  17.688  0.00  0.00    +0.000 A 
ATOM      3  C   UNL     1       2.174  10.210  17.509  0.00  0.00    +0.000 A 
ATOM      4  C   UNL     1       1.563  10.927  18.519  0.00  0.00    +0.000 A 
ATOM      5  C   UNL     1       0.975  10.327  19.626  0.00  0.00    +0.000 A 
ATOM      6  C   UNL     1       1.211   8.962  19.838  0.00  0.00    +0.000 A 
ATOM      7  C   UNL     1       0.372  11.403  20.572  0.00  0.00    +0.000 C 
ATOM      8  N   UNL     1      -1.024  11.944  20.360  0.00  0.00    +0.000 NA
ATOM      9  C   UNL     1      -1.378  12.147  21.590  0.00  0.00    +0.000 C 
ATOM     10  N   UNL     1      -1.465  13.340  22.271  0.00  0.00    +0.000 N 
ATOM     11  N   UNL     1      -1.153  11.110  22.375  0.00  0.00    +0.000 N 
ATOM     12  C   UNL     1      -2.070  10.756  23.447  0.00  0.00    +0.000 C 
ATOM     13  C   UNL     1       0.138  10.802  22.054  0.00  0.00    +0.000 C 
ATOM     14  O   UNL     1       0.931  10.217  22.774  0.00  0.00    +0.000 OA
ATOM     15  C   UNL     1       1.199  12.738  20.052  0.00  0.00    +0.000 C 
ATOM     16  C   UNL     1       0.382  14.092  19.891  0.00  0.00    +0.000 C 
ATOM     17  C   UNL     1       1.195  15.323  19.535  0.00  0.00    +0.000 C 
ATOM     18  C   UNL     1       2.314  15.502  20.555  0.00  0.00    +0.000 C 
ATOM     19  C   UNL     1       3.238  14.283  20.449  0.00  0.00    +0.000 C 
ATOM     20  C   UNL     1       2.517  12.969  20.826  0.00  0.00    +0.000 C 
ATOM     21  C   UNL     1       1.462  12.393  18.543  0.00  0.00    +0.000 C 
ATOM     22  H   UNL     1      -0.527  13.757  22.297  0.00  0.00    +0.000 HD
ATOM     23  H   UNL     1      -1.590  13.211  23.268  0.00  0.00    +0.000 HD
ENDROOT
BRANCH   1  29
ATOM     24  C   UNL     1       2.462   4.730  20.470  0.00  0.00    +0.000 A 
ATOM     25  C   UNL     1       3.189   4.069  19.492  0.00  0.00    +0.000 A 
ATOM     26  C   UNL     1       3.479   4.730  18.299  0.00  0.00    +0.000 A 
ATOM     27 CL   UNL     1       4.359   3.901  17.069  0.00  0.00    +0.000 Cl
ATOM     28  C   UNL     1       3.059   6.048  18.072  0.00  0.00    +0.000 A 
ATOM     29  C   UNL     1       2.325   6.748  19.035  0.00  0.00    +0.000 A 
ATOM     30  C   UNL     1       2.016   6.038  20.226  0.00  0.00    +0.000 A 
BRANCH  24  32
ATOM     31  C   UNL     1       1.605   2.866  21.668  0.00  0.00    +0.000 C 
ATOM     32  O   UNL     1       2.106   4.201  21.684  0.00  0.00    +0.000 OA
ENDBRANCH  24  32
ENDBRANCH   1  29
BRANCH  18  33
ATOM     33  O   UNL     1       1.848  15.544  21.913  0.00  0.00    +0.000 OA
ATOM     34  C   UNL     1       1.381  16.811  22.356  0.00  0.00    +0.000 C 
ENDBRANCH  18  33
TORSDOF 3
ENDMDL
MODEL 5
REMARK VINA RESULT:      -6.9      1.762      2.302
REMARK  Name = 
REMARK  6 active torsions:
REMARK  status: ('A' for Active; 'I' for Inactive)
REMARK    1  A    between atoms: C_1  and  O_2
REMARK    2  A    between atoms: O_2  and  C_3
REMARK    3  A    between atoms: C_8  and  C_9
REMARK    4  A    between atoms: N_19  and  C_20
REMARK    5  A    between atoms: C_26  and  O_27
REMARK    6  A    between atoms: O_27  and  C_28
REMARK                            x       y       z     vdW  Elec       q    Type
REMARK                         _______ _______ _______ _____ _____    ______ ____
ROOT
ATOM      1  C   UNL     1       1.456   7.984  20.541  0.00  0.00    +0.000 A 
ATOM      2  C   UNL     1       0.680   7.778  21.707  0.00  0.00    +0.000 A 
ATOM      3  C   UNL     1       0.067   8.820  22.377  0.00  0.00    +0.000 A 
ATOM      4  C   UNL     1       0.230  10.101  21.888  0.00  0.00    +0.000 A 
ATOM      5  C   UNL     1       1.113  10.413  20.861  0.00  0.00    +0.000 A 
ATOM      6  C   UNL     1       1.689   9.356  20.144  0.00  0.00    +0.000 A 
ATOM      7  C   UNL     1       1.066  11.935  20.547  0.00  0.00    +0.000 C 
ATOM      8  N   UNL     1       1.910  12.924  21.319  0.00  0.00    +0.000 NA
ATOM      9  C   UNL     1       2.159  13.787  20.386  0.00  0.00    +0.000 C 
ATOM     10  N   UNL     1       1.604  15.034  20.202  0.00  0.00    +0.000 N 
ATOM     11  N   UNL     1       2.594  13.236  19.268  0.00  0.00    +0.000 N 
ATOM     12  C   UNL     1       3.610  13.878  18.450  0.00  0.00    +0.000 C 
ATOM     13  C   UNL     1       1.677  12.240  19.083  0.00  0.00    +0.000 C 
ATOM     14  O   UNL     1       1.386  11.731  18.013  0.00  0.00    +0.000 OA
ATOM     15  C   UNL     1      -0.391  12.323  21.226  0.00  0.00    +0.000 C 
ATOM     16  C   UNL     1      -0.477  13.673  22.060  0.00  0.00    +0.000 C 
ATOM     17  C   UNL     1      -1.857  14.061  22.560  0.00  0.00    +0.000 C 
ATOM     18  C   UNL     1      -2.827  14.106  21.385  0.00  0.00    +0.000 C 
ATOM     19  C   UNL     1      -2.920  12.690  20.805  0.00  0.00    +0.000 C 
ATOM     20  C   UNL     1      -1.570  12.203  20.232  0.00  0.00    +0.000 C 
ATOM     21  C   UNL     1      -0.502  11.273  22.388  0.00  0.00    +0.000 C 
ATOM     22  H   UNL     1       0.596  14.911  20.049  0.00  0.00    +0.000 HD
ATOM     23  H   UNL     1       1.835  15.433  19.299  0.00  0.00    +0.000 HD
ENDROOT
BRANCH   1  29
ATOM     24  C   UNL     1       3.275   5.828  17.933  0.00  0.00    +0.000 A 
ATOM     25  C   UNL     1       2.788   4.562  18.222  0.00  0.00    +0.000 A 
ATOM     26  C   UNL     1       1.901   4.404  19.286  0.00  0.00    +0.000 A 
ATOM     27 CL   UNL     1       1.314   2.827  19.666  0.00  0.00    +0.000 Cl
ATOM     28  C   UNL     1       1.486   5.495  20.062  0.00  0.00    +0.000 A 
ATOM     29  C   UNL     1       1.955   6.787  19.800  0.00  0.00    +0.000 A 
ATOM     30  C   UNL     1       2.883   6.913  18.732  0.00  0.00    +0.000 A 
BRANCH  24  32
ATOM     31  C   UNL     1       4.888   7.340  17.063  0.00  0.00    +0.000 C 
ATOM     32  O   UNL     1       4.152   6.126  16.922  0.00  0.00    +0.000 OA
ENDBRANCH  24  32
ENDBRANCH   1  29
BRANCH  18  33
ATOM     33  O   UNL     1      -2.388  14.958  20.314  0.00  0.00    +0.000 OA
ATOM     34  C   UNL     1      -2.496  16.352  20.565  0.00  0.00    +0.000 C 
ENDBRANCH  18  33
TORSDOF 3
ENDMDL
MODEL 6
REMARK VINA RESULT:      -6.4      1.919      2.520
REMARK  Name = 
REMARK  6 active torsions:
REMARK  status: ('A' for Active; 'I' for Inactive)
REMARK    1  A    between atoms: C_1  and  O_2
REMARK    2  A    between atoms: O_2  and  C_3
REMARK    3  A    between atoms: C_8  and  C_9
REMARK    4  A    between atoms: N_19  and  C_20
REMARK    5  A    between atoms: C_26  and  O_27
REMARK    6  A    between atoms: O_27  and  C_28
REMARK                            x       y       z     vdW  Elec       q    Type
REMARK                         _______ _______ _______ _____ _____    ______ ____
ROOT
ATOM      1  C   UNL     1       0.283   9.664  21.496  0.00  0.00    +0.000 A 
ATOM      2  C   UNL     1      -0.284   9.354  22.755  0.00  0.00    +0.000 A 
ATOM      3  C   UNL     1      -1.129  10.225  23.416  0.00  0.00    +0.000 A 
ATOM      4  C   UNL     1      -1.417  11.438  22.821  0.00  0.00    +0.000 A 
ATOM      5  C   UNL     1      -0.769  11.895  21.680  0.00  0.00    +0.000 A 
ATOM      6  C   UNL     1       0.042  10.993  20.978  0.00  0.00    +0.000 A 
ATOM      7  C   UNL     1      -1.315  13.290  21.265  0.00  0.00    +0.000 C 
ATOM      8  N   UNL     1      -0.757  14.562  21.862  0.00  0.00    +0.000 NA
ATOM      9  C   UNL     1      -0.872  15.359  20.847  0.00  0.00    +0.000 C 
ATOM     10  N   UNL     1      -1.801  16.353  20.640  0.00  0.00    +0.000 N 
ATOM     11  N   UNL     1      -0.387  14.852  19.729  0.00  0.00    +0.000 N 
ATOM     12  C   UNL     1       0.302  15.683  18.755  0.00  0.00    +0.000 C 
ATOM     13  C   UNL     1      -0.961  13.613  19.722  0.00  0.00    +0.000 C 
ATOM     14  O   UNL     1      -1.172  12.931  18.732  0.00  0.00    +0.000 OA
ATOM     15  C   UNL     1      -2.755  13.287  22.078  0.00  0.00    +0.000 C 
ATOM     16  C   UNL     1      -3.184  14.627  22.818  0.00  0.00    +0.000 C 
ATOM     17  C   UNL     1      -4.565  14.629  23.446  0.00  0.00    +0.000 C 
ATOM     18  C   UNL     1      -5.601  14.257  22.390  0.00  0.00    +0.000 C 
ATOM     19  C   UNL     1      -5.299  12.827  21.928  0.00  0.00    +0.000 C 
ATOM     20  C   UNL     1      -3.920  12.715  21.238  0.00  0.00    +0.000 C 
ATOM     21  C   UNL     1      -2.430  12.380  23.318  0.00  0.00    +0.000 C 
ATOM     22  H   UNL     1      -2.730  15.916  20.614  0.00  0.00    +0.000 HD
ATOM     23  H   UNL     1      -1.787  16.708  19.690  0.00  0.00    +0.000 HD
ENDROOT
BRANCH   1  29
ATOM     24  C   UNL     1       2.278   7.833  18.770  0.00  0.00    +0.000 A 
ATOM     25  C   UNL     1       2.390   6.560  19.307  0.00  0.00    +0.000 A 
ATOM     26  C   UNL     1       1.853   6.307  20.568  0.00  0.00    +0.000 A 
ATOM     27 CL   UNL     1       2.014   4.731  21.251  0.00  0.00    +0.000 Cl
ATOM     28  C   UNL     1       1.197   7.308  21.299  0.00  0.00    +0.000 A 
ATOM     29  C   UNL     1       1.063   8.603  20.790  0.00  0.00    +0.000 A 
ATOM     30  C   UNL     1       1.649   8.841  19.518  0.00  0.00    +0.000 A 
BRANCH  24  32
ATOM     31  C   UNL     1       2.719   9.619  17.266  0.00  0.00    +0.000 C 
ATOM     32  O   UNL     1       2.761   8.221  17.547  0.00  0.00    +0.000 OA
ENDBRANCH  24  32
ENDBRANCH   1  29
BRANCH  18  33
ATOM     33  O   UNL     1      -5.546  15.086  21.218  0.00  0.00    +0.000 OA
ATOM     34  C   UNL     1      -6.805  15.435  20.661  0.00  0.00    +0.000 C 
ENDBRANCH  18  33
TORSDOF 3
ENDMDL
MODEL 7
REMARK VINA RESULT:      -6.4      9.205     11.633
REMARK  Name = 
REMARK  6 active torsions:
REMARK  status: ('A' for Active; 'I' for Inactive)
REMARK    1  A    between atoms: C_1  and  O_2
REMARK    2  A    between atoms: O_2  and  C_3
REMARK    3  A    between atoms: C_8  and  C_9
REMARK    4  A    between atoms: N_19  and  C_20
REMARK    5  A    between atoms: C_26  and  O_27
REMARK    6  A    between atoms: O_27  and  C_28
REMARK                            x       y       z     vdW  Elec       q    Type
REMARK                         _______ _______ _______ _____ _____    ______ ____
ROOT
ATOM      1  C   UNL     1       7.776  13.191  24.118  0.00  0.00    +0.000 A 
ATOM      2  C   UNL     1       7.904  11.789  23.971  0.00  0.00    +0.000 A 
ATOM      3  C   UNL     1       8.303  11.207  22.783  0.00  0.00    +0.000 A 
ATOM      4  C   UNL     1       8.576  12.030  21.708  0.00  0.00    +0.000 A 
ATOM      5  C   UNL     1       8.307  13.393  21.710  0.00  0.00    +0.000 A 
ATOM      6  C   UNL     1       7.959  13.993  22.928  0.00  0.00    +0.000 A 
ATOM      7  C   UNL     1       8.723  14.033  20.356  0.00  0.00    +0.000 C 
ATOM      8  N   UNL     1       7.786  14.041  19.170  0.00  0.00    +0.000 NA
ATOM      9  C   UNL     1       8.118  15.170  18.626  0.00  0.00    +0.000 C 
ATOM     10  N   UNL     1       8.881  15.387  17.501  0.00  0.00    +0.000 N 
ATOM     11  N   UNL     1       8.152  16.172  19.485  0.00  0.00    +0.000 N 
ATOM     12  C   UNL     1       7.723  17.509  19.108  0.00  0.00    +0.000 C 
ATOM     13  C   UNL     1       8.889  15.633  20.501  0.00  0.00    +0.000 C 
ATOM     14  O   UNL     1       9.548  16.262  21.314  0.00  0.00    +0.000 OA
ATOM     15  C   UNL     1       9.761  12.872  19.799  0.00  0.00    +0.000 C 
ATOM     16  C   UNL     1       9.670  12.482  18.260  0.00  0.00    +0.000 C 
ATOM     17  C   UNL     1      10.719  11.508  17.756  0.00  0.00    +0.000 C 
ATOM     18  C   UNL     1      12.108  12.048  18.081  0.00  0.00    +0.000 C 
ATOM     19  C   UNL     1      12.232  12.122  19.607  0.00  0.00    +0.000 C 
ATOM     20  C   UNL     1      11.226  13.118  20.228  0.00  0.00    +0.000 C 
ATOM     21  C   UNL     1       9.175  11.568  20.448  0.00  0.00    +0.000 C 
ATOM     22  H   UNL     1       9.818  15.005  17.676  0.00  0.00    +0.000 HD
ATOM     23  H   UNL     1       9.144  16.360  17.390  0.00  0.00    +0.000 HD
ENDROOT
BRANCH   1  29
ATOM     24  C   UNL     1       6.100  13.722  27.535  0.00  0.00    +0.000 A 
ATOM     25  C   UNL     1       6.749  14.857  27.995  0.00  0.00    +0.000 A 
ATOM     26  C   UNL     1       7.754  15.427  27.215  0.00  0.00    +0.000 A 
ATOM     27 CL   UNL     1       8.582  16.824  27.797  0.00  0.00    +0.000 Cl
ATOM     28  C   UNL     1       8.117  14.881  25.975  0.00  0.00    +0.000 A 
ATOM     29  C   UNL     1       7.485  13.738  25.477  0.00  0.00    +0.000 A 
ATOM     30  C   UNL     1       6.488  13.160  26.308  0.00  0.00    +0.000 A 
BRANCH  24  32
ATOM     31  C   UNL     1       4.024  13.862  28.680  0.00  0.00    +0.000 C 
ATOM     32  O   UNL     1       5.099  13.059  28.197  0.00  0.00    +0.000 OA
ENDBRANCH  24  32
ENDBRANCH   1  29
BRANCH  18  33
ATOM     33  O   UNL     1      12.333  13.379  17.587  0.00  0.00    +0.000 OA
ATOM     34  C   UNL     1      12.062  13.568  16.206  0.00  0.00    +0.000 C 
ENDBRANCH  18  33
TORSDOF 3
ENDMDL
MODEL 8
REMARK VINA RESULT:      -6.2      3.879      7.032
REMARK  Name = 
REMARK  6 active torsions:
REMARK  status: ('A' for Active; 'I' for Inactive)
REMARK    1  A    between atoms: C_1  and  O_2
REMARK    2  A    between atoms: O_2  and  C_3
REMARK    3  A    between atoms: C_8  and  C_9
REMARK    4  A    between atoms: N_19  and  C_20
REMARK    5  A    between atoms: C_26  and  O_27
REMARK    6  A    between atoms: O_27  and  C_28
REMARK                            x       y       z     vdW  Elec       q    Type
REMARK                         _______ _______ _______ _____ _____    ______ ____
ROOT
ATOM      1  C   UNL     1       3.800  15.614  18.393  0.00  0.00    +0.000 A 
ATOM      2  C   UNL     1       3.153  16.822  18.040  0.00  0.00    +0.000 A 
ATOM      3  C   UNL     1       1.812  17.040  18.296  0.00  0.00    +0.000 A 
ATOM      4  C   UNL     1       1.089  16.036  18.910  0.00  0.00    +0.000 A 
ATOM      5  C   UNL     1       1.597  14.762  19.129  0.00  0.00    +0.000 A 
ATOM      6  C   UNL     1       2.968  14.556  18.925  0.00  0.00    +0.000 A 
ATOM      7  C   UNL     1       0.540  13.867  19.833  0.00  0.00    +0.000 C 
ATOM      8  N   UNL     1      -0.504  13.111  19.041  0.00  0.00    +0.000 NA
ATOM      9  C   UNL     1      -0.626  12.052  19.779  0.00  0.00    +0.000 C 
ATOM     10  N   UNL     1      -1.644  11.726  20.646  0.00  0.00    +0.000 N 
ATOM     11  N   UNL     1       0.531  11.502  20.096  0.00  0.00    +0.000 N 
ATOM     12  C   UNL     1       0.687  10.059  20.182  0.00  0.00    +0.000 C 
ATOM     13  C   UNL     1       1.238  12.587  20.530  0.00  0.00    +0.000 C 
ATOM     14  O   UNL     1       2.179  12.561  21.306  0.00  0.00    +0.000 OA
ATOM     15  C   UNL     1      -0.461  15.034  20.444  0.00  0.00    +0.000 C 
ATOM     16  C   UNL     1      -2.028  14.790  20.332  0.00  0.00    +0.000 C 
ATOM     17  C   UNL     1      -2.913  15.818  21.013  0.00  0.00    +0.000 C 
ATOM     18  C   UNL     1      -2.504  15.946  22.477  0.00  0.00    +0.000 C 
ATOM     19  C   UNL     1      -1.064  16.470  22.512  0.00  0.00    +0.000 C 
ATOM     20  C   UNL     1      -0.065  15.481  21.870  0.00  0.00    +0.000 C 
ATOM     21  C   UNL     1      -0.287  16.194  19.401  0.00  0.00    +0.000 C 
ATOM     22  H   UNL     1      -1.676  12.444  21.379  0.00  0.00    +0.000 HD
ATOM     23  H   UNL     1      -1.414  10.934  21.235  0.00  0.00    +0.000 HD
ENDROOT
BRANCH   1  29
ATOM     24  C   UNL     1       7.293  14.167  17.705  0.00  0.00    +0.000 A 
ATOM     25  C   UNL     1       8.113  15.232  18.046  0.00  0.00    +0.000 A 
ATOM     26  C   UNL     1       7.532  16.429  18.461  0.00  0.00    +0.000 A 
ATOM     27 CL   UNL     1       8.547  17.765  18.860  0.00  0.00    +0.000 Cl
ATOM     28  C   UNL     1       6.140  16.576  18.549  0.00  0.00    +0.000 A 
ATOM     29  C   UNL     1       5.281  15.525  18.215  0.00  0.00    +0.000 A 
ATOM     30  C   UNL     1       5.900  14.328  17.763  0.00  0.00    +0.000 A 
BRANCH  24  32
ATOM     31  C   UNL     1       9.026  12.542  17.717  0.00  0.00    +0.000 C 
ATOM     32  O   UNL     1       7.727  12.939  17.280  0.00  0.00    +0.000 OA
ENDBRANCH  24  32
ENDBRANCH   1  29
BRANCH  18  33
ATOM     33  O   UNL     1      -2.500  14.693  23.180  0.00  0.00    +0.000 OA
ATOM     34  C   UNL     1      -2.824  14.771  24.561  0.00  0.00    +0.000 C 
ENDBRANCH  18  33
TORSDOF 3
ENDMDL
MODEL 9
REMARK VINA RESULT:      -6.1      6.380     10.172
REMARK  Name = 
REMARK  6 active torsions:
REMARK  status: ('A' for Active; 'I' for Inactive)
REMARK    1  A    between atoms: C_1  and  O_2
REMARK    2  A    between atoms: O_2  and  C_3
REMARK    3  A    between atoms: C_8  and  C_9
REMARK    4  A    between atoms: N_19  and  C_20
REMARK    5  A    between atoms: C_26  and  O_27
REMARK    6  A    between atoms: O_27  and  C_28
REMARK                            x       y       z     vdW  Elec       q    Type
REMARK                         _______ _______ _______ _____ _____    ______ ____
ROOT
ATOM      1  C   UNL     1       3.905  14.860  19.407  0.00  0.00    +0.000 A 
ATOM      2  C   UNL     1       4.100  15.102  18.026  0.00  0.00    +0.000 A 
ATOM      3  C   UNL     1       5.359  15.266  17.478  0.00  0.00    +0.000 A 
ATOM      4  C   UNL     1       6.453  15.198  18.317  0.00  0.00    +0.000 A 
ATOM      5  C   UNL     1       6.345  15.142  19.701  0.00  0.00    +0.000 A 
ATOM      6  C   UNL     1       5.077  14.917  20.254  0.00  0.00    +0.000 A 
ATOM      7  C   UNL     1       7.754  15.078  20.356  0.00  0.00    +0.000 C 
ATOM      8  N   UNL     1       8.540  16.334  20.656  0.00  0.00    +0.000 NA
ATOM      9  C   UNL     1       9.154  15.966  21.736  0.00  0.00    +0.000 C 
ATOM     10  N   UNL     1      10.473  15.600  21.888  0.00  0.00    +0.000 N 
ATOM     11  N   UNL     1       8.352  15.424  22.633  0.00  0.00    +0.000 N 
ATOM     12  C   UNL     1       8.544  15.649  24.057  0.00  0.00    +0.000 C 
ATOM     13  C   UNL     1       7.661  14.525  21.871  0.00  0.00    +0.000 C 
ATOM     14  O   UNL     1       7.123  13.509  22.281  0.00  0.00    +0.000 OA
ATOM     15  C   UNL     1       8.649  14.572  19.060  0.00  0.00    +0.000 C 
ATOM     16  C   UNL     1      10.063  15.261  18.830  0.00  0.00    +0.000 C 
ATOM     17  C   UNL     1      10.910  14.686  17.709  0.00  0.00    +0.000 C 
ATOM     18  C   UNL     1      11.084  13.186  17.925  0.00  0.00    +0.000 C 
ATOM     19  C   UNL     1       9.696  12.541  17.842  0.00  0.00    +0.000 C 
ATOM     20  C   UNL     1       8.754  13.033  18.965  0.00  0.00    +0.000 C 
ATOM     21  C   UNL     1       7.848  15.176  17.852  0.00  0.00    +0.000 C 
ATOM     22  H   UNL     1      10.638  14.767  21.310  0.00  0.00    +0.000 HD
ATOM     23  H   UNL     1      10.659  15.182  22.793  0.00  0.00    +0.000 HD
ENDROOT
BRANCH   1  29
ATOM     24  C   UNL     1       0.931  12.946  20.908  0.00  0.00    +0.000 A 
ATOM     25  C   UNL     1      -0.123  13.805  20.639  0.00  0.00    +0.000 A 
ATOM     26  C   UNL     1       0.136  15.020  20.007  0.00  0.00    +0.000 A 
ATOM     27 CL   UNL     1      -1.169  16.104  19.695  0.00  0.00    +0.000 Cl
ATOM     28  C   UNL     1       1.436  15.387  19.631  0.00  0.00    +0.000 A 
ATOM     29  C   UNL     1       2.525  14.547  19.884  0.00  0.00    +0.000 A 
ATOM     30  C   UNL     1       2.235  13.331  20.559  0.00  0.00    +0.000 A 
BRANCH  24  32
ATOM     31  C   UNL     1      -0.294  10.924  21.139  0.00  0.00    +0.000 C 
ATOM     32  O   UNL     1       0.821  11.726  21.523  0.00  0.00    +0.000 OA
ENDBRANCH  24  32
ENDBRANCH   1  29
BRANCH  18  33
ATOM     33  O   UNL     1      11.612  12.854  19.220  0.00  0.00    +0.000 OA
ATOM     34  C   UNL     1      12.312  11.619  19.291  0.00  0.00    +0.000 C 
ENDBRANCH  18  33
TORSDOF 3
ENDMDL
