MODEL 1
REMARK VINA RESULT:      -7.0      0.000      0.000
REMARK  Name = 
REMARK  13 active torsions:
REMARK  status: ('A' for Active; 'I' for Inactive)
REMARK    1  A    between atoms: C_2  and  C_3
REMARK    2  A    between atoms: C_3  and  C_4
REMARK    3  A    between atoms: C_3  and  C_5
REMARK    4  A    between atoms: C_3  and  N_6
REMARK    5  A    between atoms: N_6  and  S_7
REMARK    6  A    between atoms: S_7  and  C_10
REMARK    7  A    between atoms: C_13  and  O_14
REMARK    8  A    between atoms: O_14  and  C_15
REMARK    9  A    between atoms: C_16  and  C_17
REMARK   10  A    between atoms: N_19  and  C_20
REMARK   11  A    between atoms: C_20  and  C_21
REMARK   12  A    between atoms: N_25  and  C_26
REMARK   13  A    between atoms: C_26  and  C_27
REMARK                            x       y       z     vdW  Elec       q    Type
REMARK                         _______ _______ _______ _____ _____    ______ ____
ROOT
ATOM      1  C   UNL     1       5.032   3.796  18.165  0.00  0.00    +0.000 A 
ATOM      2  C   UNL     1       4.903   3.559  16.814  0.00  0.00    +0.000 A 
ATOM      3  C   UNL     1       5.664   4.316  15.919  0.00  0.00    +0.000 A 
ATOM      4  C   UNL     1       6.613   5.282  16.356  0.00  0.00    +0.000 A 
ATOM      5  C   UNL     1       6.715   5.562  17.735  0.00  0.00    +0.000 A 
ATOM      6  C   UNL     1       5.865   4.835  18.618  0.00  0.00    +0.000 A 
ENDROOT
BRANCH   5   7
ATOM      7  C   UNL     1       7.678   6.495  18.454  0.00  0.00    +0.000 C 
ATOM      8  O   UNL     1       8.288   6.044  19.427  0.00  0.00    +0.000 OA
ATOM      9  N   UNL     1       7.901   7.797  18.036  0.00  0.00    +0.000 N 
ATOM     10  H   UNL     1       7.533   8.094  17.140  0.00  0.00    +0.000 HD
BRANCH   9  11
ATOM     11  C   UNL     1       8.875   8.674  18.725  0.00  0.00    +0.000 C 
BRANCH  11  12
ATOM     12  C   UNL     1       8.808  10.214  18.458  0.00  0.00    +0.000 C 
ATOM     13  C   UNL     1       9.987  10.740  17.655  0.00  0.00    +0.000 C 
ATOM     14  C   UNL     1       9.790  12.240  17.661  0.00  0.00    +0.000 C 
ATOM     15  C   UNL     1       9.016  12.527  18.934  0.00  0.00    +0.000 C 
ATOM     16  N   UNL     1       8.628  11.229  19.534  0.00  0.00    +0.000 NA
BRANCH  16  17
ATOM     17  C   UNL     1       9.386  10.986  20.765  0.00  0.00    +0.000 C 
ATOM     18  C   UNL     1       9.789  12.305  21.439  0.00  0.00    +0.000 C 
ENDBRANCH  16  17
ENDBRANCH  11  12
ENDBRANCH   9  11
ENDBRANCH   5   7
BRANCH   1  19
ATOM     19  S   UNL     1       4.151   2.777  19.359  0.00  0.00    +0.000 S 
ATOM     20  O   UNL     1       5.100   2.291  20.314  0.00  0.00    +0.000 OA
ATOM     21  O   UNL     1       3.352   1.871  18.567  0.00  0.00    +0.000 OA
BRANCH  19  22
ATOM     22  N   UNL     1       3.055   3.832  20.116  0.00  0.00    +0.000 NA
ATOM     23  H   UNL     1       2.809   3.509  21.050  0.00  0.00    +0.000 HD
BRANCH  22  24
ATOM     24  C   UNL     1       1.970   4.529  19.405  0.00  0.00    +0.000 C 
ATOM     25  C   UNL     1       0.843   4.881  20.395  0.00  0.00    +0.000 C 
ATOM     26  C   UNL     1       1.387   3.715  18.240  0.00  0.00    +0.000 C 
BRANCH  24  28
ATOM     27  C   UNL     1       2.784   6.993  18.291  0.00  0.00    +0.000 C 
ATOM     28  C   UNL     1       2.408   5.855  18.805  0.00  0.00    +0.000 C 
ENDBRANCH  24  28
ENDBRANCH  22  24
ENDBRANCH  19  22
ENDBRANCH   1  19
BRANCH   4  29
ATOM     29  O   UNL     1       7.420   5.940  15.455  0.00  0.00    +0.000 OA
ATOM     30  C   UNL     1       7.434   5.381  14.130  0.00  0.00    +0.000 C 
ENDBRANCH   4  29
TORSDOF 9
ENDMDL
MODEL 2
REMARK VINA RESULT:      -7.0      1.863      2.303
REMARK  Name = 
REMARK  13 active torsions:
REMARK  status: ('A' for Active; 'I' for Inactive)
REMARK    1  A    between atoms: C_2  and  C_3
REMARK    2  A    between atoms: C_3  and  C_4
REMARK    3  A    between atoms: C_3  and  C_5
REMARK    4  A    between atoms: C_3  and  N_6
REMARK    5  A    between atoms: N_6  and  S_7
REMARK    6  A    between atoms: S_7  and  C_10
REMARK    7  A    between atoms: C_13  and  O_14
REMARK    8  A    between atoms: O_14  and  C_15
REMARK    9  A    between atoms: C_16  and  C_17
REMARK   10  A    between atoms: N_19  and  C_20
REMARK   11  A    between atoms: C_20  and  C_21
REMARK   12  A    between atoms: N_25  and  C_26
REMARK   13  A    between atoms: C_26  and  C_27
REMARK                            x       y       z     vdW  Elec       q    Type
REMARK                         _______ _______ _______ _____ _____    ______ ____
ROOT
ATOM      1  C   UNL     1       4.138   5.914  17.837  0.00  0.00    +0.000 A 
ATOM      2  C   UNL     1       4.138   5.116  16.714  0.00  0.00    +0.000 A 
ATOM      3  C   UNL     1       5.299   5.035  15.941  0.00  0.00    +0.000 A 
ATOM      4  C   UNL     1       6.502   5.701  16.307  0.00  0.00    +0.000 A 
ATOM      5  C   UNL     1       6.495   6.557  17.428  0.00  0.00    +0.000 A 
ATOM      6  C   UNL     1       5.272   6.686  18.148  0.00  0.00    +0.000 A 
ENDROOT
BRANCH   5   7
ATOM      7  C   UNL     1       7.648   7.326  18.053  0.00  0.00    +0.000 C 
ATOM      8  O   UNL     1       8.408   6.707  18.802  0.00  0.00    +0.000 OA
ATOM      9  N   UNL     1       7.877   8.667  17.786  0.00  0.00    +0.000 N 
ATOM     10  H   UNL     1       7.359   9.113  17.038  0.00  0.00    +0.000 HD
BRANCH   9  11
ATOM     11  C   UNL     1       9.032   9.386  18.372  0.00  0.00    +0.000 C 
BRANCH  11  12
ATOM     12  C   UNL     1       9.095  10.942  18.216  0.00  0.00    +0.000 C 
ATOM     13  C   UNL     1      10.416  11.439  17.653  0.00  0.00    +0.000 C 
ATOM     14  C   UNL     1      10.305  12.945  17.743  0.00  0.00    +0.000 C 
ATOM     15  C   UNL     1       9.351  13.198  18.895  0.00  0.00    +0.000 C 
ATOM     16  N   UNL     1       8.799  11.892  19.325  0.00  0.00    +0.000 NA
BRANCH  16  17
ATOM     17  C   UNL     1       9.331  11.517  20.638  0.00  0.00    +0.000 C 
ATOM     18  C   UNL     1      10.026  12.706  21.317  0.00  0.00    +0.000 C 
ENDBRANCH  16  17
ENDBRANCH  11  12
ENDBRANCH   9  11
ENDBRANCH   5   7
BRANCH   1  19
ATOM     19  S   UNL     1       2.701   5.969  18.920  0.00  0.00    +0.000 S 
ATOM     20  O   UNL     1       1.951   7.146  18.605  0.00  0.00    +0.000 OA
ATOM     21  O   UNL     1       3.219   5.743  20.249  0.00  0.00    +0.000 OA
BRANCH  19  22
ATOM     22  N   UNL     1       1.799   4.583  18.526  0.00  0.00    +0.000 NA
ATOM     23  H   UNL     1       0.908   4.827  18.096  0.00  0.00    +0.000 HD
BRANCH  22  24
ATOM     24  C   UNL     1       1.765   3.367  19.355  0.00  0.00    +0.000 C 
ATOM     25  C   UNL     1       0.962   2.269  18.633  0.00  0.00    +0.000 C 
ATOM     26  C   UNL     1       1.167   3.602  20.751  0.00  0.00    +0.000 C 
BRANCH  24  28
ATOM     27  C   UNL     1       4.325   2.256  19.790  0.00  0.00    +0.000 C 
ATOM     28  C   UNL     1       3.143   2.770  19.590  0.00  0.00    +0.000 C 
ENDBRANCH  24  28
ENDBRANCH  22  24
ENDBRANCH  19  22
ENDBRANCH   1  19
BRANCH   4  29
ATOM     29  O   UNL     1       7.659   5.522  15.581  0.00  0.00    +0.000 OA
ATOM     30  C   UNL     1       7.469   5.005  14.252  0.00  0.00    +0.000 C 
ENDBRANCH   4  29
TORSDOF 9
ENDMDL
MODEL 3
REMARK VINA RESULT:      -6.9      1.989      2.420
REMARK  Name = 
REMARK  13 active torsions:
REMARK  status: ('A' for Active; 'I' for Inactive)
REMARK    1  A    between atoms: C_2  and  C_3
REMARK    2  A    between atoms: C_3  and  C_4
REMARK    3  A    between atoms: C_3  and  C_5
REMARK    4  A    between atoms: C_3  and  N_6
REMARK    5  A    between atoms: N_6  and  S_7
REMARK    6  A    between atoms: S_7  and  C_10
REMARK    7  A    between atoms: C_13  and  O_14
REMARK    8  A    between atoms: O_14  and  C_15
REMARK    9  A    between atoms: C_16  and  C_17
REMARK   10  A    between atoms: N_19  and  C_20
REMARK   11  A    between atoms: C_20  and  C_21
REMARK   12  A    between atoms: N_25  and  C_26
REMARK   13  A    between atoms: C_26  and  C_27
REMARK                            x       y       z     vdW  Elec       q    Type
REMARK                         _______ _______ _______ _____ _____    ______ ____
ROOT
ATOM      1  C   UNL     1       4.018   5.579  17.713  0.00  0.00    +0.000 A 
ATOM      2  C   UNL     1       4.080   4.685  16.666  0.00  0.00    +0.000 A 
ATOM      3  C   UNL     1       5.268   4.579  15.938  0.00  0.00    +0.000 A 
ATOM      4  C   UNL     1       6.436   5.317  16.277  0.00  0.00    +0.000 A 
ATOM      5  C   UNL     1       6.364   6.268  17.317  0.00  0.00    +0.000 A 
ATOM      6  C   UNL     1       5.115   6.416  17.987  0.00  0.00    +0.000 A 
ENDROOT
BRANCH   5   7
ATOM      7  C   UNL     1       7.470   7.130  17.904  0.00  0.00    +0.000 C 
ATOM      8  O   UNL     1       8.217   6.612  18.737  0.00  0.00    +0.000 OA
ATOM      9  N   UNL     1       7.672   8.446  17.514  0.00  0.00    +0.000 N 
ATOM     10  H   UNL     1       7.171   8.800  16.708  0.00  0.00    +0.000 HD
BRANCH   9  11
ATOM     11  C   UNL     1       8.782   9.254  18.067  0.00  0.00    +0.000 C 
BRANCH  11  12
ATOM     12  C   UNL     1       8.498  10.746  18.446  0.00  0.00    +0.000 C 
ATOM     13  C   UNL     1       8.202  11.628  17.245  0.00  0.00    +0.000 C 
ATOM     14  C   UNL     1       8.122  13.022  17.829  0.00  0.00    +0.000 C 
ATOM     15  C   UNL     1       9.002  12.978  19.065  0.00  0.00    +0.000 C 
ATOM     16  N   UNL     1       9.418  11.572  19.279  0.00  0.00    +0.000 NA
BRANCH  16  17
ATOM     17  C   UNL     1      10.846  11.410  18.993  0.00  0.00    +0.000 C 
ATOM     18  C   UNL     1      11.709  12.026  20.103  0.00  0.00    +0.000 C 
ENDBRANCH  16  17
ENDBRANCH  11  12
ENDBRANCH   9  11
ENDBRANCH   5   7
BRANCH   1  19
ATOM     19  S   UNL     1       2.546   5.677  18.744  0.00  0.00    +0.000 S 
ATOM     20  O   UNL     1       1.443   5.152  17.997  0.00  0.00    +0.000 OA
ATOM     21  O   UNL     1       2.530   7.028  19.255  0.00  0.00    +0.000 OA
BRANCH  19  22
ATOM     22  N   UNL     1       2.873   4.675  20.077  0.00  0.00    +0.000 NA
ATOM     23  H   UNL     1       3.829   4.791  20.406  0.00  0.00    +0.000 HD
BRANCH  22  24
ATOM     24  C   UNL     1       2.338   3.311  20.224  0.00  0.00    +0.000 C 
ATOM     25  C   UNL     1       0.821   3.317  19.953  0.00  0.00    +0.000 C 
ATOM     26  C   UNL     1       2.605   2.702  21.610  0.00  0.00    +0.000 C 
BRANCH  24  28
ATOM     27  C   UNL     1       3.425   1.490  18.359  0.00  0.00    +0.000 C 
ATOM     28  C   UNL     1       2.923   2.331  19.221  0.00  0.00    +0.000 C 
ENDBRANCH  24  28
ENDBRANCH  22  24
ENDBRANCH  19  22
ENDBRANCH   1  19
BRANCH   4  29
ATOM     29  O   UNL     1       7.621   5.116  15.604  0.00  0.00    +0.000 OA
ATOM     30  C   UNL     1       7.496   4.999  14.176  0.00  0.00    +0.000 C 
ENDBRANCH   4  29
TORSDOF 9
ENDMDL
MODEL 4
REMARK VINA RESULT:      -6.8      4.725      7.448
REMARK  Name = 
REMARK  13 active torsions:
REMARK  status: ('A' for Active; 'I' for Inactive)
REMARK    1  A    between atoms: C_2  and  C_3
REMARK    2  A    between atoms: C_3  and  C_4
REMARK    3  A    between atoms: C_3  and  C_5
REMARK    4  A    between atoms: C_3  and  N_6
REMARK    5  A    between atoms: N_6  and  S_7
REMARK    6  A    between atoms: S_7  and  C_10
REMARK    7  A    between atoms: C_13  and  O_14
REMARK    8  A    between atoms: O_14  and  C_15
REMARK    9  A    between atoms: C_16  and  C_17
REMARK   10  A    between atoms: N_19  and  C_20
REMARK   11  A    between atoms: C_20  and  C_21
REMARK   12  A    between atoms: N_25  and  C_26
REMARK   13  A    between atoms: C_26  and  C_27
REMARK                            x       y       z     vdW  Elec       q    Type
REMARK                         _______ _______ _______ _____ _____    ______ ____
ROOT
ATOM      1  C   UNL     1       5.176   4.636  16.296  0.00  0.00    +0.000 A 
ATOM      2  C   UNL     1       4.648   3.434  16.714  0.00  0.00    +0.000 A 
ATOM      3  C   UNL     1       3.570   3.442  17.604  0.00  0.00    +0.000 A 
ATOM      4  C   UNL     1       2.960   4.648  18.047  0.00  0.00    +0.000 A 
ATOM      5  C   UNL     1       3.526   5.881  17.661  0.00  0.00    +0.000 A 
ATOM      6  C   UNL     1       4.677   5.842  16.821  0.00  0.00    +0.000 A 
ENDROOT
BRANCH   5   7
ATOM      7  C   UNL     1       3.036   7.292  17.947  0.00  0.00    +0.000 C 
ATOM      8  O   UNL     1       3.598   8.221  17.363  0.00  0.00    +0.000 OA
ATOM      9  N   UNL     1       1.979   7.551  18.807  0.00  0.00    +0.000 N 
ATOM     10  H   UNL     1       1.416   6.776  19.138  0.00  0.00    +0.000 HD
BRANCH   9  11
ATOM     11  C   UNL     1       1.490   8.929  19.039  0.00  0.00    +0.000 C 
BRANCH  11  12
ATOM     12  C   UNL     1       1.090   9.341  20.494  0.00  0.00    +0.000 C 
ATOM     13  C   UNL     1       0.117   8.376  21.149  0.00  0.00    +0.000 C 
ATOM     14  C   UNL     1      -0.240   9.052  22.455  0.00  0.00    +0.000 C 
ATOM     15  C   UNL     1      -0.056  10.534  22.192  0.00  0.00    +0.000 C 
ATOM     16  N   UNL     1       0.556  10.686  20.850  0.00  0.00    +0.000 NA
BRANCH  16  17
ATOM     17  C   UNL     1      -0.411  11.252  19.906  0.00  0.00    +0.000 C 
ATOM     18  C   UNL     1      -1.490  12.064  20.636  0.00  0.00    +0.000 C 
ENDBRANCH  16  17
ENDBRANCH  11  12
ENDBRANCH   9  11
ENDBRANCH   5   7
BRANCH   1  19
ATOM     19  S   UNL     1       6.495   4.678  15.072  0.00  0.00    +0.000 S 
ATOM     20  O   UNL     1       7.738   4.462  15.748  0.00  0.00    +0.000 OA
ATOM     21  O   UNL     1       6.259   5.877  14.302  0.00  0.00    +0.000 OA
BRANCH  19  22
ATOM     22  N   UNL     1       6.169   3.377  14.028  0.00  0.00    +0.000 NA
ATOM     23  H   UNL     1       6.606   2.517  14.354  0.00  0.00    +0.000 HD
BRANCH  22  24
ATOM     24  C   UNL     1       6.091   3.506  12.563  0.00  0.00    +0.000 C 
ATOM     25  C   UNL     1       7.173   4.484  12.070  0.00  0.00    +0.000 C 
ATOM     26  C   UNL     1       4.714   3.977  12.069  0.00  0.00    +0.000 C 
BRANCH  24  28
ATOM     27  C   UNL     1       6.605   1.080  11.211  0.00  0.00    +0.000 C 
ATOM     28  C   UNL     1       6.367   2.200  11.836  0.00  0.00    +0.000 C 
ENDBRANCH  24  28
ENDBRANCH  22  24
ENDBRANCH  19  22
ENDBRANCH   1  19
BRANCH   4  29
ATOM     29  O   UNL     1       1.837   4.623  18.844  0.00  0.00    +0.000 OA
ATOM     30  C   UNL     1       2.019   4.004  20.130  0.00  0.00    +0.000 C 
ENDBRANCH   4  29
TORSDOF 9
ENDMDL
MODEL 5
REMARK VINA RESULT:      -6.8      1.748      2.218
REMARK  Name = 
REMARK  13 active torsions:
REMARK  status: ('A' for Active; 'I' for Inactive)
REMARK    1  A    between atoms: C_2  and  C_3
REMARK    2  A    between atoms: C_3  and  C_4
REMARK    3  A    between atoms: C_3  and  C_5
REMARK    4  A    between atoms: C_3  and  N_6
REMARK    5  A    between atoms: N_6  and  S_7
REMARK    6  A    between atoms: S_7  and  C_10
REMARK    7  A    between atoms: C_13  and  O_14
REMARK    8  A    between atoms: O_14  and  C_15
REMARK    9  A    between atoms: C_16  and  C_17
REMARK   10  A    between atoms: N_19  and  C_20
REMARK   11  A    between atoms: C_20  and  C_21
REMARK   12  A    between atoms: N_25  and  C_26
REMARK   13  A    between atoms: C_26  and  C_27
REMARK                            x       y       z     vdW  Elec       q    Type
REMARK                         _______ _______ _______ _____ _____    ______ ____
ROOT
ATOM      1  C   UNL     1       4.194   5.595  18.001  0.00  0.00    +0.000 A 
ATOM      2  C   UNL     1       4.131   4.938  16.792  0.00  0.00    +0.000 A 
ATOM      3  C   UNL     1       5.214   5.032  15.914  0.00  0.00    +0.000 A 
ATOM      4  C   UNL     1       6.405   5.733  16.250  0.00  0.00    +0.000 A 
ATOM      5  C   UNL     1       6.457   6.447  17.465  0.00  0.00    +0.000 A 
ATOM      6  C   UNL     1       5.305   6.404  18.303  0.00  0.00    +0.000 A 
ENDROOT
BRANCH   5   7
ATOM      7  C   UNL     1       7.618   7.217  18.075  0.00  0.00    +0.000 C 
ATOM      8  O   UNL     1       8.403   6.593  18.792  0.00  0.00    +0.000 OA
ATOM      9  N   UNL     1       7.827   8.565  17.827  0.00  0.00    +0.000 N 
ATOM     10  H   UNL     1       7.285   9.019  17.101  0.00  0.00    +0.000 HD
BRANCH   9  11
ATOM     11  C   UNL     1       8.988   9.285  18.397  0.00  0.00    +0.000 C 
BRANCH  11  12
ATOM     12  C   UNL     1       9.041  10.843  18.254  0.00  0.00    +0.000 C 
ATOM     13  C   UNL     1      10.340  11.352  17.654  0.00  0.00    +0.000 C 
ATOM     14  C   UNL     1      10.226  12.856  17.762  0.00  0.00    +0.000 C 
ATOM     15  C   UNL     1       9.308  13.094  18.947  0.00  0.00    +0.000 C 
ATOM     16  N   UNL     1       8.776  11.781  19.382  0.00  0.00    +0.000 NA
BRANCH  16  17
ATOM     17  C   UNL     1       9.352  11.396  20.672  0.00  0.00    +0.000 C 
ATOM     18  C   UNL     1      10.046  12.586  21.350  0.00  0.00    +0.000 C 
ENDBRANCH  16  17
ENDBRANCH  11  12
ENDBRANCH   9  11
ENDBRANCH   5   7
BRANCH   1  19
ATOM     19  S   UNL     1       2.869   5.419  19.207  0.00  0.00    +0.000 S 
ATOM     20  O   UNL     1       2.177   6.668  19.293  0.00  0.00    +0.000 OA
ATOM     21  O   UNL     1       3.490   4.824  20.367  0.00  0.00    +0.000 OA
BRANCH  19  22
ATOM     22  N   UNL     1       1.841   4.229  18.562  0.00  0.00    +0.000 NA
ATOM     23  H   UNL     1       0.949   4.624  18.271  0.00  0.00    +0.000 HD
BRANCH  22  24
ATOM     24  C   UNL     1       1.761   2.852  19.078  0.00  0.00    +0.000 C 
ATOM     25  C   UNL     1       3.082   2.114  18.790  0.00  0.00    +0.000 C 
ATOM     26  C   UNL     1       0.591   2.051  18.487  0.00  0.00    +0.000 C 
BRANCH  24  28
ATOM     27  C   UNL     1       1.434   2.738  21.880  0.00  0.00    +0.000 C 
ATOM     28  C   UNL     1       1.586   2.791  20.586  0.00  0.00    +0.000 C 
ENDBRANCH  24  28
ENDBRANCH  22  24
ENDBRANCH  19  22
ENDBRANCH   1  19
BRANCH   4  29
ATOM     29  O   UNL     1       7.494   5.724  15.406  0.00  0.00    +0.000 OA
ATOM     30  C   UNL     1       7.308   4.992  14.182  0.00  0.00    +0.000 C 
ENDBRANCH   4  29
TORSDOF 9
ENDMDL
MODEL 6
REMARK VINA RESULT:      -6.8      3.063      6.888
REMARK  Name = 
REMARK  13 active torsions:
REMARK  status: ('A' for Active; 'I' for Inactive)
REMARK    1  A    between atoms: C_2  and  C_3
REMARK    2  A    between atoms: C_3  and  C_4
REMARK    3  A    between atoms: C_3  and  C_5
REMARK    4  A    between atoms: C_3  and  N_6
REMARK    5  A    between atoms: N_6  and  S_7
REMARK    6  A    between atoms: S_7  and  C_10
REMARK    7  A    between atoms: C_13  and  O_14
REMARK    8  A    between atoms: O_14  and  C_15
REMARK    9  A    between atoms: C_16  and  C_17
REMARK   10  A    between atoms: N_19  and  C_20
REMARK   11  A    between atoms: C_20  and  C_21
REMARK   12  A    between atoms: N_25  and  C_26
REMARK   13  A    between atoms: C_26  and  C_27
REMARK                            x       y       z     vdW  Elec       q    Type
REMARK                         _______ _______ _______ _____ _____    ______ ____
ROOT
ATOM      1  C   UNL     1       5.116   3.943  18.775  0.00  0.00    +0.000 A 
ATOM      2  C   UNL     1       5.582   5.038  19.470  0.00  0.00    +0.000 A 
ATOM      3  C   UNL     1       6.228   6.059  18.768  0.00  0.00    +0.000 A 
ATOM      4  C   UNL     1       6.368   6.037  17.353  0.00  0.00    +0.000 A 
ATOM      5  C   UNL     1       5.936   4.898  16.642  0.00  0.00    +0.000 A 
ATOM      6  C   UNL     1       5.358   3.835  17.394  0.00  0.00    +0.000 A 
ENDROOT
BRANCH   5   7
ATOM      7  C   UNL     1       5.920   4.656  15.141  0.00  0.00    +0.000 C 
ATOM      8  O   UNL     1       4.832   4.411  14.614  0.00  0.00    +0.000 OA
ATOM      9  N   UNL     1       7.067   4.728  14.364  0.00  0.00    +0.000 N 
ATOM     10  H   UNL     1       7.913   5.102  14.776  0.00  0.00    +0.000 HD
BRANCH   9  11
ATOM     11  C   UNL     1       7.021   4.531  12.898  0.00  0.00    +0.000 C 
BRANCH  11  12
ATOM     12  C   UNL     1       6.662   3.109  12.350  0.00  0.00    +0.000 C 
ATOM     13  C   UNL     1       7.534   2.672  11.186  0.00  0.00    +0.000 C 
ATOM     14  C   UNL     1       6.910   1.370  10.733  0.00  0.00    +0.000 C 
ATOM     15  C   UNL     1       5.449   1.479  11.129  0.00  0.00    +0.000 C 
ATOM     16  N   UNL     1       5.286   2.711  11.936  0.00  0.00    +0.000 NA
BRANCH  16  17
ATOM     17  C   UNL     1       4.536   3.721  11.186  0.00  0.00    +0.000 C 
ATOM     18  C   UNL     1       3.284   3.114  10.535  0.00  0.00    +0.000 C 
ENDBRANCH  16  17
ENDBRANCH  11  12
ENDBRANCH   9  11
ENDBRANCH   5   7
BRANCH   1  19
ATOM     19  S   UNL     1       4.186   2.653  19.619  0.00  0.00    +0.000 S 
ATOM     20  O   UNL     1       5.077   1.972  20.508  0.00  0.00    +0.000 OA
ATOM     21  O   UNL     1       3.485   1.945  18.573  0.00  0.00    +0.000 OA
BRANCH  19  22
ATOM     22  N   UNL     1       2.996   3.477  20.509  0.00  0.00    +0.000 NA
ATOM     23  H   UNL     1       2.781   2.996  21.380  0.00  0.00    +0.000 HD
BRANCH  22  24
ATOM     24  C   UNL     1       1.852   4.171  19.895  0.00  0.00    +0.000 C 
ATOM     25  C   UNL     1       0.545   3.443  20.263  0.00  0.00    +0.000 C 
ATOM     26  C   UNL     1       1.960   4.282  18.366  0.00  0.00    +0.000 C 
BRANCH  24  28
ATOM     27  C   UNL     1       1.528   6.814  20.837  0.00  0.00    +0.000 C 
ATOM     28  C   UNL     1       1.677   5.593  20.402  0.00  0.00    +0.000 C 
ENDBRANCH  24  28
ENDBRANCH  22  24
ENDBRANCH  19  22
ENDBRANCH   1  19
BRANCH   4  29
ATOM     29  O   UNL     1       6.920   7.105  16.680  0.00  0.00    +0.000 OA
ATOM     30  C   UNL     1       7.735   7.975  17.484  0.00  0.00    +0.000 C 
ENDBRANCH   4  29
TORSDOF 9
ENDMDL
MODEL 7
REMARK VINA RESULT:      -6.8      4.211      7.205
REMARK  Name = 
REMARK  13 active torsions:
REMARK  status: ('A' for Active; 'I' for Inactive)
REMARK    1  A    between atoms: C_2  and  C_3
REMARK    2  A    between atoms: C_3  and  C_4
REMARK    3  A    between atoms: C_3  and  C_5
REMARK    4  A    between atoms: C_3  and  N_6
REMARK    5  A    between atoms: N_6  and  S_7
REMARK    6  A    between atoms: S_7  and  C_10
REMARK    7  A    between atoms: C_13  and  O_14
REMARK    8  A    between atoms: O_14  and  C_15
REMARK    9  A    between atoms: C_16  and  C_17
REMARK   10  A    between atoms: N_19  and  C_20
REMARK   11  A    between atoms: C_20  and  C_21
REMARK   12  A    between atoms: N_25  and  C_26
REMARK   13  A    between atoms: C_26  and  C_27
REMARK                            x       y       z     vdW  Elec       q    Type
REMARK                         _______ _______ _______ _____ _____    ______ ____
ROOT
ATOM      1  C   UNL     1       5.553   5.141  18.759  0.00  0.00    +0.000 A 
ATOM      2  C   UNL     1       5.153   3.859  19.067  0.00  0.00    +0.000 A 
ATOM      3  C   UNL     1       3.815   3.630  19.401  0.00  0.00    +0.000 A 
ATOM      4  C   UNL     1       2.839   4.664  19.375  0.00  0.00    +0.000 A 
ATOM      5  C   UNL     1       3.251   5.986  19.107  0.00  0.00    +0.000 A 
ATOM      6  C   UNL     1       4.637   6.203  18.854  0.00  0.00    +0.000 A 
ENDROOT
BRANCH   5   7
ATOM      7  C   UNL     1       2.407   7.243  18.965  0.00  0.00    +0.000 C 
ATOM      8  O   UNL     1       2.125   7.615  17.823  0.00  0.00    +0.000 OA
ATOM      9  N   UNL     1       1.934   7.948  20.061  0.00  0.00    +0.000 N 
ATOM     10  H   UNL     1       2.021   7.535  20.983  0.00  0.00    +0.000 HD
BRANCH   9  11
ATOM     11  C   UNL     1       1.078   9.145  19.900  0.00  0.00    +0.000 C 
BRANCH  11  12
ATOM     12  C   UNL     1       0.602   9.897  21.187  0.00  0.00    +0.000 C 
ATOM     13  C   UNL     1      -0.255   9.042  22.105  0.00  0.00    +0.000 C 
ATOM     14  C   UNL     1      -0.718  10.008  23.174  0.00  0.00    +0.000 C 
ATOM     15  C   UNL     1      -0.716  11.367  22.499  0.00  0.00    +0.000 C 
ATOM     16  N   UNL     1      -0.104  11.210  21.158  0.00  0.00    +0.000 NA
BRANCH  16  17
ATOM     17  C   UNL     1      -1.117  11.360  20.111  0.00  0.00    +0.000 C 
ATOM     18  C   UNL     1      -1.143  12.794  19.563  0.00  0.00    +0.000 C 
ENDBRANCH  16  17
ENDBRANCH  11  12
ENDBRANCH   9  11
ENDBRANCH   5   7
BRANCH   1  19
ATOM     19  S   UNL     1       7.241   5.466  18.222  0.00  0.00    +0.000 S 
ATOM     20  O   UNL     1       8.132   4.860  19.164  0.00  0.00    +0.000 OA
ATOM     21  O   UNL     1       7.285   6.885  17.954  0.00  0.00    +0.000 OA
BRANCH  19  22
ATOM     22  N   UNL     1       7.380   4.698  16.713  0.00  0.00    +0.000 NA
ATOM     23  H   UNL     1       8.347   4.667  16.397  0.00  0.00    +0.000 HD
BRANCH  22  24
ATOM     24  C   UNL     1       6.388   4.833  15.633  0.00  0.00    +0.000 C 
ATOM     25  C   UNL     1       5.631   6.165  15.788  0.00  0.00    +0.000 C 
ATOM     26  C   UNL     1       5.378   3.675  15.590  0.00  0.00    +0.000 C 
BRANCH  24  28
ATOM     27  C   UNL     1       7.556   4.929  13.064  0.00  0.00    +0.000 C 
ATOM     28  C   UNL     1       7.017   4.885  14.251  0.00  0.00    +0.000 C 
ENDBRANCH  24  28
ENDBRANCH  22  24
ENDBRANCH  19  22
ENDBRANCH   1  19
BRANCH   4  29
ATOM     29  O   UNL     1       1.510   4.389  19.611  0.00  0.00    +0.000 OA
ATOM     30  C   UNL     1       1.267   3.315  20.537  0.00  0.00    +0.000 C 
ENDBRANCH   4  29
TORSDOF 9
ENDMDL
MODEL 8
REMARK VINA RESULT:      -6.7      4.264      7.059
REMARK  Name = 
REMARK  13 active torsions:
REMARK  status: ('A' for Active; 'I' for Inactive)
REMARK    1  A    between atoms: C_2  and  C_3
REMARK    2  A    between atoms: C_3  and  C_4
REMARK    3  A    between atoms: C_3  and  C_5
REMARK    4  A    between atoms: C_3  and  N_6
REMARK    5  A    between atoms: N_6  and  S_7
REMARK    6  A    between atoms: S_7  and  C_10
REMARK    7  A    between atoms: C_13  and  O_14
REMARK    8  A    between atoms: O_14  and  C_15
REMARK    9  A    between atoms: C_16  and  C_17
REMARK   10  A    between atoms: N_19  and  C_20
REMARK   11  A    between atoms: C_20  and  C_21
REMARK   12  A    between atoms: N_25  and  C_26
REMARK   13  A    between atoms: C_26  and  C_27
REMARK                            x       y       z     vdW  Elec       q    Type
REMARK                         _______ _______ _______ _____ _____    ______ ____
ROOT
ATOM      1  C   UNL     1       5.631   4.907  18.753  0.00  0.00    +0.000 A 
ATOM      2  C   UNL     1       5.265   3.707  19.325  0.00  0.00    +0.000 A 
ATOM      3  C   UNL     1       4.006   3.599  19.921  0.00  0.00    +0.000 A 
ATOM      4  C   UNL     1       3.064   4.665  19.906  0.00  0.00    +0.000 A 
ATOM      5  C   UNL     1       3.451   5.910  19.366  0.00  0.00    +0.000 A 
ATOM      6  C   UNL     1       4.771   6.016  18.841  0.00  0.00    +0.000 A 
ENDROOT
BRANCH   5   7
ATOM      7  C   UNL     1       2.623   7.172  19.180  0.00  0.00    +0.000 C 
ATOM      8  O   UNL     1       2.570   7.658  18.048  0.00  0.00    +0.000 OA
ATOM      9  N   UNL     1       1.920   7.759  20.221  0.00  0.00    +0.000 N 
ATOM     10  H   UNL     1       1.828   7.255  21.095  0.00  0.00    +0.000 HD
BRANCH   9  11
ATOM     11  C   UNL     1       1.086   8.964  20.008  0.00  0.00    +0.000 C 
BRANCH  11  12
ATOM     12  C   UNL     1       0.624   9.779  21.262  0.00  0.00    +0.000 C 
ATOM     13  C   UNL     1      -0.307   9.002  22.178  0.00  0.00    +0.000 C 
ATOM     14  C   UNL     1      -0.738  10.023  23.208  0.00  0.00    +0.000 C 
ATOM     15  C   UNL     1      -0.637  11.360  22.498  0.00  0.00    +0.000 C 
ATOM     16  N   UNL     1      -0.000  11.130  21.179  0.00  0.00    +0.000 NA
BRANCH  16  17
ATOM     17  C   UNL     1      -0.975  11.311  20.101  0.00  0.00    +0.000 C 
ATOM     18  C   UNL     1      -2.062  12.320  20.497  0.00  0.00    +0.000 C 
ENDBRANCH  16  17
ENDBRANCH  11  12
ENDBRANCH   9  11
ENDBRANCH   5   7
BRANCH   1  19
ATOM     19  S   UNL     1       7.199   5.063  17.883  0.00  0.00    +0.000 S 
ATOM     20  O   UNL     1       8.221   4.484  18.700  0.00  0.00    +0.000 OA
ATOM     21  O   UNL     1       7.265   6.444  17.466  0.00  0.00    +0.000 OA
BRANCH  19  22
ATOM     22  N   UNL     1       7.007   4.152  16.462  0.00  0.00    +0.000 NA
ATOM     23  H   UNL     1       7.902   3.968  16.012  0.00  0.00    +0.000 HD
BRANCH  22  24
ATOM     24  C   UNL     1       5.878   4.317  15.532  0.00  0.00    +0.000 C 
ATOM     25  C   UNL     1       4.671   3.500  16.031  0.00  0.00    +0.000 C 
ATOM     26  C   UNL     1       6.213   3.901  14.091  0.00  0.00    +0.000 C 
BRANCH  24  28
ATOM     27  C   UNL     1       4.960   6.983  15.369  0.00  0.00    +0.000 C 
ATOM     28  C   UNL     1       5.385   5.752  15.444  0.00  0.00    +0.000 C 
ENDBRANCH  24  28
ENDBRANCH  22  24
ENDBRANCH  19  22
ENDBRANCH   1  19
BRANCH   4  29
ATOM     29  O   UNL     1       1.795   4.496  20.413  0.00  0.00    +0.000 OA
ATOM     30  C   UNL     1       0.977   3.550  19.703  0.00  0.00    +0.000 C 
ENDBRANCH   4  29
TORSDOF 9
ENDMDL
MODEL 9
REMARK VINA RESULT:      -6.7      6.087      8.131
REMARK  Name = 
REMARK  13 active torsions:
REMARK  status: ('A' for Active; 'I' for Inactive)
REMARK    1  A    between atoms: C_2  and  C_3
REMARK    2  A    between atoms: C_3  and  C_4
REMARK    3  A    between atoms: C_3  and  C_5
REMARK    4  A    between atoms: C_3  and  N_6
REMARK    5  A    between atoms: N_6  and  S_7
REMARK    6  A    between atoms: S_7  and  C_10
REMARK    7  A    between atoms: C_13  and  O_14
REMARK    8  A    between atoms: O_14  and  C_15
REMARK    9  A    between atoms: C_16  and  C_17
REMARK   10  A    between atoms: N_19  and  C_20
REMARK   11  A    between atoms: C_20  and  C_21
REMARK   12  A    between atoms: N_25  and  C_26
REMARK   13  A    between atoms: C_26  and  C_27
REMARK                            x       y       z     vdW  Elec       q    Type
REMARK                         _______ _______ _______ _____ _____    ______ ____
ROOT
ATOM      1  C   UNL     1       2.183   7.350  19.014  0.00  0.00    +0.000 A 
ATOM      2  C   UNL     1       2.242   8.051  17.829  0.00  0.00    +0.000 A 
ATOM      3  C   UNL     1       1.729   9.350  17.786  0.00  0.00    +0.000 A 
ATOM      4  C   UNL     1       1.203   9.997  18.938  0.00  0.00    +0.000 A 
ATOM      5  C   UNL     1       1.095   9.268  20.141  0.00  0.00    +0.000 A 
ATOM      6  C   UNL     1       1.548   7.917  20.133  0.00  0.00    +0.000 A 
ENDROOT
BRANCH   5   7
ATOM      7  C   UNL     1       0.629   9.742  21.509  0.00  0.00    +0.000 C 
ATOM      8  O   UNL     1       1.304   9.412  22.487  0.00  0.00    +0.000 OA
ATOM      9  N   UNL     1      -0.493  10.538  21.676  0.00  0.00    +0.000 N 
ATOM     10  H   UNL     1      -0.931  10.945  20.858  0.00  0.00    +0.000 HD
BRANCH   9  11
ATOM     11  C   UNL     1      -0.905  11.023  23.013  0.00  0.00    +0.000 C 
BRANCH  11  12
ATOM     12  C   UNL     1      -1.769  12.325  23.098  0.00  0.00    +0.000 C 
ATOM     13  C   UNL     1      -2.835  12.414  22.020  0.00  0.00    +0.000 C 
ATOM     14  C   UNL     1      -3.421  13.797  22.201  0.00  0.00    +0.000 C 
ATOM     15  C   UNL     1      -2.302  14.617  22.816  0.00  0.00    +0.000 C 
ATOM     16  N   UNL     1      -1.187  13.696  23.141  0.00  0.00    +0.000 NA
BRANCH  16  17
ATOM     17  C   UNL     1      -0.052  13.929  22.245  0.00  0.00    +0.000 C 
ATOM     18  C   UNL     1       0.494  15.356  22.397  0.00  0.00    +0.000 C 
ENDBRANCH  16  17
ENDBRANCH  11  12
ENDBRANCH   9  11
ENDBRANCH   5   7
BRANCH   1  19
ATOM     19  S   UNL     1       2.924   5.714  19.146  0.00  0.00    +0.000 S 
ATOM     20  O   UNL     1       4.229   5.861  19.714  0.00  0.00    +0.000 OA
ATOM     21  O   UNL     1       2.735   5.107  17.848  0.00  0.00    +0.000 OA
BRANCH  19  22
ATOM     22  N   UNL     1       1.918   4.859  20.215  0.00  0.00    +0.000 NA
ATOM     23  H   UNL     1       1.802   5.355  21.097  0.00  0.00    +0.000 HD
BRANCH  22  24
ATOM     24  C   UNL     1       1.912   3.391  20.334  0.00  0.00    +0.000 C 
ATOM     25  C   UNL     1       0.983   2.788  19.263  0.00  0.00    +0.000 C 
ATOM     26  C   UNL     1       1.476   2.897  21.722  0.00  0.00    +0.000 C 
BRANCH  24  28
ATOM     27  C   UNL     1       4.445   2.235  19.865  0.00  0.00    +0.000 C 
ATOM     28  C   UNL     1       3.275   2.769  20.082  0.00  0.00    +0.000 C 
ENDBRANCH  24  28
ENDBRANCH  22  24
ENDBRANCH  19  22
ENDBRANCH   1  19
BRANCH   4  29
ATOM     29  O   UNL     1       0.797  11.312  18.887  0.00  0.00    +0.000 OA
ATOM     30  C   UNL     1       1.842  12.279  19.090  0.00  0.00    +0.000 C 
ENDBRANCH   4  29
TORSDOF 9
ENDMDL
