MODEL 1
REMARK VINA RESULT:      -7.4      0.000      0.000
REMARK  Name = 
REMARK  9 active torsions:
REMARK  status: ('A' for Active; 'I' for Inactive)
REMARK    1  A    between atoms: C_1  and  O_2
REMARK    2  A    between atoms: O_2  and  C_3
REMARK    3  A    between atoms: C_9  and  C_10
REMARK    4  A    between atoms: C_10  and  C_11
REMARK    5  A    between atoms: C_10  and  O_12
REMARK    6  A    between atoms: O_12  and  C_13
REMARK    7  A    between atoms: C_18  and  N_19
REMARK    8  A    between atoms: C_26  and  C_27
REMARK    9  A    between atoms: C_27  and  O_29
REMARK                            x       y       z     vdW  Elec       q    Type
REMARK                         _______ _______ _______ _____ _____    ______ ____
ROOT
ATOM      1  C   UNL     1       1.585   8.367  19.315  0.00  0.00    +0.000 A 
ATOM      2  C   UNL     1       1.539   7.937  20.645  0.00  0.00    +0.000 A 
ATOM      3  C   UNL     1       1.092   8.799  21.646  0.00  0.00    +0.000 A 
ATOM      4  C   UNL     1       0.713  10.095  21.321  0.00  0.00    +0.000 A 
ATOM      5  F   UNL     1       0.246  10.894  22.291  0.00  0.00    +0.000 F 
ATOM      6  C   UNL     1       0.756  10.550  19.998  0.00  0.00    +0.000 A 
ATOM      7  C   UNL     1       1.151   9.662  18.987  0.00  0.00    +0.000 A 
ENDROOT
BRANCH   6   8
ATOM      8  N   UNL     1       0.442  11.918  19.722  0.00  0.00    +0.000 N 
ATOM      9  C   UNL     1      -0.820  12.178  19.163  0.00  0.00    +0.000 A 
ATOM     10  O   UNL     1      -1.710  11.339  19.013  0.00  0.00    +0.000 OA
ATOM     11  N   UNL     1      -1.094  13.475  18.810  0.00  0.00    +0.000 N 
ATOM     12  C   UNL     1      -0.187  14.487  18.970  0.00  0.00    +0.000 A 
ATOM     13  C   UNL     1      -0.403  15.793  18.624  0.00  0.00    +0.000 A 
ATOM     14  S   UNL     1       0.968  16.742  18.953  0.00  0.00    +0.000 S 
ATOM     15  C   UNL     1       1.878  15.390  19.566  0.00  0.00    +0.000 A 
ATOM     16  C   UNL     1       1.093  14.238  19.529  0.00  0.00    +0.000 A 
ATOM     17  C   UNL     1       1.436  12.884  19.947  0.00  0.00    +0.000 A 
ATOM     18  O   UNL     1       2.545  12.649  20.415  0.00  0.00    +0.000 OA
ATOM     19  H   UNL     1      -2.010  13.651  18.415  0.00  0.00    +0.000 HD
BRANCH  15  20
ATOM     20  C   UNL     1       3.246  15.704  19.984  0.00  0.00    +0.000 C 
ATOM     21  O   UNL     1       3.557  16.611  20.749  0.00  0.00    +0.000 OA
BRANCH  20  22
ATOM     22  O   UNL     1       4.217  14.923  19.458  0.00  0.00    +0.000 OA
ATOM     23  H   UNL     1       4.025  14.468  18.609  0.00  0.00    +0.000 HD
ENDBRANCH  20  22
ENDBRANCH  15  20
ENDBRANCH   6   8
BRANCH   1  24
ATOM     24  O   UNL     1       2.032   7.599  18.269  0.00  0.00    +0.000 OA
BRANCH  24  25
ATOM     25  C   UNL     1       3.344   6.999  18.383  0.00  0.00    +0.000 C 
ATOM     26  C   UNL     1       4.182   7.289  17.128  0.00  0.00    +0.000 C 
BRANCH  25  33
ATOM     27  C   UNL     1       4.286   4.759  19.198  0.00  0.00    +0.000 A 
ATOM     28  C   UNL     1       4.227   3.360  19.275  0.00  0.00    +0.000 A 
ATOM     29  C   UNL     1       3.162   2.660  18.710  0.00  0.00    +0.000 A 
ATOM     30  C   UNL     1       2.144   3.358  18.074  0.00  0.00    +0.000 A 
ATOM     31  C   UNL     1       2.194   4.750  17.997  0.00  0.00    +0.000 A 
ATOM     32  F   UNL     1       1.208   5.369  17.335  0.00  0.00    +0.000 F 
ATOM     33  C   UNL     1       3.249   5.483  18.558  0.00  0.00    +0.000 A 
BRANCH  27  35
ATOM     34  C   UNL     1       6.597   5.328  19.136  0.00  0.00    +0.000 C 
ATOM     35  O   UNL     1       5.314   5.500  19.731  0.00  0.00    +0.000 OA
ENDBRANCH  27  35
ENDBRANCH  25  33
ENDBRANCH  24  25
ENDBRANCH   1  24
TORSDOF 7
ENDMDL
MODEL 2
REMARK VINA RESULT:      -7.4      1.527      1.912
REMARK  Name = 
REMARK  9 active torsions:
REMARK  status: ('A' for Active; 'I' for Inactive)
REMARK    1  A    between atoms: C_1  and  O_2
REMARK    2  A    between atoms: O_2  and  C_3
REMARK    3  A    between atoms: C_9  and  C_10
REMARK    4  A    between atoms: C_10  and  C_11
REMARK    5  A    between atoms: C_10  and  O_12
REMARK    6  A    between atoms: O_12  and  C_13
REMARK    7  A    between atoms: C_18  and  N_19
REMARK    8  A    between atoms: C_26  and  C_27
REMARK    9  A    between atoms: C_27  and  O_29
REMARK                            x       y       z     vdW  Elec       q    Type
REMARK                         _______ _______ _______ _____ _____    ______ ____
ROOT
ATOM      1  C   UNL     1       1.966   7.682  19.691  0.00  0.00    +0.000 A 
ATOM      2  C   UNL     1       1.384   7.178  20.858  0.00  0.00    +0.000 A 
ATOM      3  C   UNL     1       0.477   7.952  21.582  0.00  0.00    +0.000 A 
ATOM      4  C   UNL     1       0.170   9.237  21.151  0.00  0.00    +0.000 A 
ATOM      5  F   UNL     1      -0.737   9.949  21.836  0.00  0.00    +0.000 F 
ATOM      6  C   UNL     1       0.744   9.766  19.989  0.00  0.00    +0.000 A 
ATOM      7  C   UNL     1       1.611   8.962  19.233  0.00  0.00    +0.000 A 
ENDROOT
BRANCH   6   8
ATOM      8  N   UNL     1       0.468  11.123  19.632  0.00  0.00    +0.000 N 
ATOM      9  C   UNL     1      -0.406  11.329  18.552  0.00  0.00    +0.000 A 
ATOM     10  O   UNL     1      -1.040  10.440  17.980  0.00  0.00    +0.000 OA
ATOM     11  N   UNL     1      -0.604  12.623  18.144  0.00  0.00    +0.000 N 
ATOM     12  C   UNL     1       0.024  13.685  18.737  0.00  0.00    +0.000 A 
ATOM     13  C   UNL     1      -0.128  14.992  18.362  0.00  0.00    +0.000 A 
ATOM     14  S   UNL     1       0.836  16.013  19.321  0.00  0.00    +0.000 S 
ATOM     15  C   UNL     1       1.478  14.691  20.256  0.00  0.00    +0.000 A 
ATOM     16  C   UNL     1       0.913  13.491  19.825  0.00  0.00    +0.000 A 
ATOM     17  C   UNL     1       1.147  12.141  20.322  0.00  0.00    +0.000 A 
ATOM     18  O   UNL     1       1.927  11.955  21.250  0.00  0.00    +0.000 OA
ATOM     19  H   UNL     1      -1.243  12.759  17.369  0.00  0.00    +0.000 HD
BRANCH  15  20
ATOM     20  C   UNL     1       2.457  15.073  21.276  0.00  0.00    +0.000 C 
ATOM     21  O   UNL     1       2.323  14.895  22.481  0.00  0.00    +0.000 OA
BRANCH  20  22
ATOM     22  O   UNL     1       3.578  15.679  20.819  0.00  0.00    +0.000 OA
ATOM     23  H   UNL     1       4.409  15.537  21.323  0.00  0.00    +0.000 HD
ENDBRANCH  20  22
ENDBRANCH  15  20
ENDBRANCH   6   8
BRANCH   1  24
ATOM     24  O   UNL     1       2.884   7.004  18.930  0.00  0.00    +0.000 OA
BRANCH  24  25
ATOM     25  C   UNL     1       3.526   5.846  19.515  0.00  0.00    +0.000 C 
ATOM     26  C   UNL     1       5.049   5.923  19.334  0.00  0.00    +0.000 C 
BRANCH  25  33
ATOM     27  C   UNL     1       2.422   3.538  19.654  0.00  0.00    +0.000 A 
ATOM     28  C   UNL     1       2.050   2.319  19.067  0.00  0.00    +0.000 A 
ATOM     29  C   UNL     1       2.286   2.080  17.714  0.00  0.00    +0.000 A 
ATOM     30  C   UNL     1       2.886   3.063  16.939  0.00  0.00    +0.000 A 
ATOM     31  C   UNL     1       3.255   4.278  17.515  0.00  0.00    +0.000 A 
ATOM     32  F   UNL     1       3.869   5.174  16.731  0.00  0.00    +0.000 F 
ATOM     33  C   UNL     1       3.028   4.552  18.872  0.00  0.00    +0.000 A 
BRANCH  27  35
ATOM     34  C   UNL     1       1.644   2.792  21.778  0.00  0.00    +0.000 C 
ATOM     35  O   UNL     1       2.220   3.825  20.983  0.00  0.00    +0.000 OA
ENDBRANCH  27  35
ENDBRANCH  25  33
ENDBRANCH  24  25
ENDBRANCH   1  24
TORSDOF 7
ENDMDL
MODEL 3
REMARK VINA RESULT:      -7.2      3.108      4.343
REMARK  Name = 
REMARK  9 active torsions:
REMARK  status: ('A' for Active; 'I' for Inactive)
REMARK    1  A    between atoms: C_1  and  O_2
REMARK    2  A    between atoms: O_2  and  C_3
REMARK    3  A    between atoms: C_9  and  C_10
REMARK    4  A    between atoms: C_10  and  C_11
REMARK    5  A    between atoms: C_10  and  O_12
REMARK    6  A    between atoms: O_12  and  C_13
REMARK    7  A    between atoms: C_18  and  N_19
REMARK    8  A    between atoms: C_26  and  C_27
REMARK    9  A    between atoms: C_27  and  O_29
REMARK                            x       y       z     vdW  Elec       q    Type
REMARK                         _______ _______ _______ _____ _____    ______ ____
ROOT
ATOM      1  C   UNL     1       1.540   9.619  18.004  0.00  0.00    +0.000 A 
ATOM      2  C   UNL     1       2.479  10.650  17.906  0.00  0.00    +0.000 A 
ATOM      3  C   UNL     1       2.126  11.957  18.244  0.00  0.00    +0.000 A 
ATOM      4  C   UNL     1       0.830  12.234  18.659  0.00  0.00    +0.000 A 
ATOM      5  F   UNL     1       0.522  13.489  19.021  0.00  0.00    +0.000 F 
ATOM      6  C   UNL     1      -0.130  11.221  18.760  0.00  0.00    +0.000 A 
ATOM      7  C   UNL     1       0.246   9.899  18.474  0.00  0.00    +0.000 A 
ENDROOT
BRANCH   6   8
ATOM      8  N   UNL     1      -1.474  11.566  19.106  0.00  0.00    +0.000 N 
ATOM      9  C   UNL     1      -2.370  11.770  18.043  0.00  0.00    +0.000 A 
ATOM     10  O   UNL     1      -2.116  11.553  16.857  0.00  0.00    +0.000 OA
ATOM     11  N   UNL     1      -3.636  12.190  18.362  0.00  0.00    +0.000 N 
ATOM     12  C   UNL     1      -4.029  12.424  19.652  0.00  0.00    +0.000 A 
ATOM     13  C   UNL     1      -5.272  12.855  20.024  0.00  0.00    +0.000 A 
ATOM     14  S   UNL     1      -5.366  13.053  21.710  0.00  0.00    +0.000 S 
ATOM     15  C   UNL     1      -3.714  12.560  21.958  0.00  0.00    +0.000 A 
ATOM     16  C   UNL     1      -3.133  12.227  20.735  0.00  0.00    +0.000 A 
ATOM     17  C   UNL     1      -1.780  11.757  20.463  0.00  0.00    +0.000 A 
ATOM     18  O   UNL     1      -0.988  11.599  21.387  0.00  0.00    +0.000 OA
ATOM     19  H   UNL     1      -4.275  12.326  17.588  0.00  0.00    +0.000 HD
BRANCH  15  20
ATOM     20  C   UNL     1      -3.261  12.592  23.351  0.00  0.00    +0.000 C 
ATOM     21  O   UNL     1      -3.820  12.028  24.284  0.00  0.00    +0.000 OA
BRANCH  20  22
ATOM     22  O   UNL     1      -2.146  13.320  23.591  0.00  0.00    +0.000 OA
ATOM     23  H   UNL     1      -1.344  12.838  23.888  0.00  0.00    +0.000 HD
ENDBRANCH  20  22
ENDBRANCH  15  20
ENDBRANCH   6   8
BRANCH   1  24
ATOM     24  O   UNL     1       1.789   8.312  17.671  0.00  0.00    +0.000 OA
BRANCH  24  25
ATOM     25  C   UNL     1       2.821   7.611  18.404  0.00  0.00    +0.000 C 
ATOM     26  C   UNL     1       3.981   7.228  17.472  0.00  0.00    +0.000 C 
BRANCH  25  33
ATOM     27  C   UNL     1       1.847   6.327  20.396  0.00  0.00    +0.000 A 
ATOM     28  C   UNL     1       1.433   5.131  20.999  0.00  0.00    +0.000 A 
ATOM     29  C   UNL     1       1.455   3.931  20.289  0.00  0.00    +0.000 A 
ATOM     30  C   UNL     1       1.883   3.924  18.968  0.00  0.00    +0.000 A 
ATOM     31  C   UNL     1       2.293   5.112  18.361  0.00  0.00    +0.000 A 
ATOM     32  F   UNL     1       2.736   5.040  17.099  0.00  0.00    +0.000 F 
ATOM     33  C   UNL     1       2.278   6.335  19.046  0.00  0.00    +0.000 A 
BRANCH  27  35
ATOM     34  C   UNL     1       0.577   8.097  21.360  0.00  0.00    +0.000 C 
ATOM     35  O   UNL     1       1.851   7.537  21.049  0.00  0.00    +0.000 OA
ENDBRANCH  27  35
ENDBRANCH  25  33
ENDBRANCH  24  25
ENDBRANCH   1  24
TORSDOF 7
ENDMDL
MODEL 4
REMARK VINA RESULT:      -7.2      2.309      3.005
REMARK  Name = 
REMARK  9 active torsions:
REMARK  status: ('A' for Active; 'I' for Inactive)
REMARK    1  A    between atoms: C_1  and  O_2
REMARK    2  A    between atoms: O_2  and  C_3
REMARK    3  A    between atoms: C_9  and  C_10
REMARK    4  A    between atoms: C_10  and  C_11
REMARK    5  A    between atoms: C_10  and  O_12
REMARK    6  A    between atoms: O_12  and  C_13
REMARK    7  A    between atoms: C_18  and  N_19
REMARK    8  A    between atoms: C_26  and  C_27
REMARK    9  A    between atoms: C_27  and  O_29
REMARK                            x       y       z     vdW  Elec       q    Type
REMARK                         _______ _______ _______ _____ _____    ______ ____
ROOT
ATOM      1  C   UNL     1       1.344   9.219  17.996  0.00  0.00    +0.000 A 
ATOM      2  C   UNL     1      -0.022   9.059  17.741  0.00  0.00    +0.000 A 
ATOM      3  C   UNL     1      -0.915  10.092  18.025  0.00  0.00    +0.000 A 
ATOM      4  C   UNL     1      -0.445  11.274  18.584  0.00  0.00    +0.000 A 
ATOM      5  F   UNL     1      -1.313  12.271  18.810  0.00  0.00    +0.000 F 
ATOM      6  C   UNL     1       0.916  11.456  18.854  0.00  0.00    +0.000 A 
ATOM      7  C   UNL     1       1.818  10.436  18.513  0.00  0.00    +0.000 A 
ENDROOT
BRANCH   6   8
ATOM      8  N   UNL     1       1.342  12.653  19.511  0.00  0.00    +0.000 N 
ATOM      9  C   UNL     1       1.111  12.734  20.894  0.00  0.00    +0.000 A 
ATOM     10  O   UNL     1       0.688  11.812  21.593  0.00  0.00    +0.000 OA
ATOM     11  N   UNL     1       1.433  13.914  21.515  0.00  0.00    +0.000 N 
ATOM     12  C   UNL     1       1.944  14.987  20.835  0.00  0.00    +0.000 A 
ATOM     13  C   UNL     1       2.270  16.188  21.401  0.00  0.00    +0.000 A 
ATOM     14  S   UNL     1       2.848  17.274  20.229  0.00  0.00    +0.000 S 
ATOM     15  C   UNL     1       2.659  16.127  18.932  0.00  0.00    +0.000 A 
ATOM     16  C   UNL     1       2.178  14.920  19.437  0.00  0.00    +0.000 A 
ATOM     17  C   UNL     1       1.879  13.684  18.723  0.00  0.00    +0.000 A 
ATOM     18  O   UNL     1       2.059  13.617  17.512  0.00  0.00    +0.000 OA
ATOM     19  H   UNL     1       1.269  13.958  22.513  0.00  0.00    +0.000 HD
BRANCH  15  20
ATOM     20  C   UNL     1       3.021  16.629  17.604  0.00  0.00    +0.000 C 
ATOM     21  O   UNL     1       2.732  17.738  17.170  0.00  0.00    +0.000 OA
BRANCH  20  22
ATOM     22  O   UNL     1       3.717  15.774  16.820  0.00  0.00    +0.000 OA
ATOM     23  H   UNL     1       4.625  15.531  17.105  0.00  0.00    +0.000 HD
ENDBRANCH  20  22
ENDBRANCH  15  20
ENDBRANCH   6   8
BRANCH   1  24
ATOM     24  O   UNL     1       2.291   8.251  17.772  0.00  0.00    +0.000 OA
BRANCH  24  25
ATOM     25  C   UNL     1       2.093   6.956  18.387  0.00  0.00    +0.000 C 
ATOM     26  C   UNL     1       2.361   7.028  19.898  0.00  0.00    +0.000 C 
BRANCH  25  33
ATOM     27  C   UNL     1       2.641   4.544  17.716  0.00  0.00    +0.000 A 
ATOM     28  C   UNL     1       3.539   3.578  17.239  0.00  0.00    +0.000 A 
ATOM     29  C   UNL     1       4.825   3.938  16.841  0.00  0.00    +0.000 A 
ATOM     30  C   UNL     1       5.217   5.268  16.908  0.00  0.00    +0.000 A 
ATOM     31  C   UNL     1       4.327   6.235  17.378  0.00  0.00    +0.000 A 
ATOM     32  F   UNL     1       4.772   7.496  17.462  0.00  0.00    +0.000 F 
ATOM     33  C   UNL     1       3.025   5.906  17.782  0.00  0.00    +0.000 A 
BRANCH  27  35
ATOM     34  C   UNL     1       1.131   2.910  18.565  0.00  0.00    +0.000 C 
ATOM     35  O   UNL     1       1.363   4.246  18.126  0.00  0.00    +0.000 OA
ENDBRANCH  27  35
ENDBRANCH  25  33
ENDBRANCH  24  25
ENDBRANCH   1  24
TORSDOF 7
ENDMDL
MODEL 5
REMARK VINA RESULT:      -7.2      3.044      4.657
REMARK  Name = 
REMARK  9 active torsions:
REMARK  status: ('A' for Active; 'I' for Inactive)
REMARK    1  A    between atoms: C_1  and  O_2
REMARK    2  A    between atoms: O_2  and  C_3
REMARK    3  A    between atoms: C_9  and  C_10
REMARK    4  A    between atoms: C_10  and  C_11
REMARK    5  A    between atoms: C_10  and  O_12
REMARK    6  A    between atoms: O_12  and  C_13
REMARK    7  A    between atoms: C_18  and  N_19
REMARK    8  A    between atoms: C_26  and  C_27
REMARK    9  A    between atoms: C_27  and  O_29
REMARK                            x       y       z     vdW  Elec       q    Type
REMARK                         _______ _______ _______ _____ _____    ______ ____
ROOT
ATOM      1  C   UNL     1       2.140   7.422  19.748  0.00  0.00    +0.000 A 
ATOM      2  C   UNL     1       2.682   7.534  18.464  0.00  0.00    +0.000 A 
ATOM      3  C   UNL     1       2.395   8.649  17.676  0.00  0.00    +0.000 A 
ATOM      4  C   UNL     1       1.549   9.637  18.163  0.00  0.00    +0.000 A 
ATOM      5  F   UNL     1       1.319  10.721  17.407  0.00  0.00    +0.000 F 
ATOM      6  C   UNL     1       0.989   9.544  19.442  0.00  0.00    +0.000 A 
ATOM      7  C   UNL     1       1.328   8.451  20.253  0.00  0.00    +0.000 A 
ENDROOT
BRANCH   6   8
ATOM      8  N   UNL     1       0.055  10.540  19.868  0.00  0.00    +0.000 N 
ATOM      9  C   UNL     1       0.373  11.249  21.039  0.00  0.00    +0.000 A 
ATOM     10  O   UNL     1       1.442  11.163  21.645  0.00  0.00    +0.000 OA
ATOM     11  N   UNL     1      -0.559  12.140  21.505  0.00  0.00    +0.000 N 
ATOM     12  C   UNL     1      -1.763  12.336  20.883  0.00  0.00    +0.000 A 
ATOM     13  C   UNL     1      -2.732  13.202  21.311  0.00  0.00    +0.000 A 
ATOM     14  S   UNL     1      -4.090  13.144  20.290  0.00  0.00    +0.000 S 
ATOM     15  C   UNL     1      -3.381  11.937  19.253  0.00  0.00    +0.000 A 
ATOM     16  C   UNL     1      -2.099  11.624  19.703  0.00  0.00    +0.000 A 
ATOM     17  C   UNL     1      -1.140  10.680  19.144  0.00  0.00    +0.000 A 
ATOM     18  O   UNL     1      -1.423  10.043  18.134  0.00  0.00    +0.000 OA
ATOM     19  H   UNL     1      -0.315  12.651  22.344  0.00  0.00    +0.000 HD
BRANCH  15  20
ATOM     20  C   UNL     1      -4.236  11.491  18.150  0.00  0.00    +0.000 C 
ATOM     21  O   UNL     1      -5.272  10.850  18.279  0.00  0.00    +0.000 OA
BRANCH  20  22
ATOM     22  O   UNL     1      -3.812  11.819  16.908  0.00  0.00    +0.000 OA
ATOM     23  H   UNL     1      -3.730  11.094  16.250  0.00  0.00    +0.000 HD
ENDBRANCH  20  22
ENDBRANCH  15  20
ENDBRANCH   6   8
BRANCH   1  24
ATOM     24  O   UNL     1       2.347   6.354  20.584  0.00  0.00    +0.000 OA
BRANCH  24  25
ATOM     25  C   UNL     1       1.966   5.040  20.111  0.00  0.00    +0.000 C 
ATOM     26  C   UNL     1       2.047   4.011  21.249  0.00  0.00    +0.000 C 
BRANCH  25  33
ATOM     27  C   UNL     1       2.365   3.786  17.913  0.00  0.00    +0.000 A 
ATOM     28  C   UNL     1       3.226   3.291  16.923  0.00  0.00    +0.000 A 
ATOM     29  C   UNL     1       4.595   3.550  16.976  0.00  0.00    +0.000 A 
ATOM     30  C   UNL     1       5.108   4.314  18.015  0.00  0.00    +0.000 A 
ATOM     31  C   UNL     1       4.256   4.812  19.002  0.00  0.00    +0.000 A 
ATOM     32  F   UNL     1       4.811   5.507  20.004  0.00  0.00    +0.000 F 
ATOM     33  C   UNL     1       2.875   4.573  18.974  0.00  0.00    +0.000 A 
BRANCH  27  35
ATOM     34  C   UNL     1       0.562   2.380  18.580  0.00  0.00    +0.000 C 
ATOM     35  O   UNL     1       1.009   3.558  17.913  0.00  0.00    +0.000 OA
ENDBRANCH  27  35
ENDBRANCH  25  33
ENDBRANCH  24  25
ENDBRANCH   1  24
TORSDOF 7
ENDMDL
MODEL 6
REMARK VINA RESULT:      -7.2      2.881      4.335
REMARK  Name = 
REMARK  9 active torsions:
REMARK  status: ('A' for Active; 'I' for Inactive)
REMARK    1  A    between atoms: C_1  and  O_2
REMARK    2  A    between atoms: O_2  and  C_3
REMARK    3  A    between atoms: C_9  and  C_10
REMARK    4  A    between atoms: C_10  and  C_11
REMARK    5  A    between atoms: C_10  and  O_12
REMARK    6  A    between atoms: O_12  and  C_13
REMARK    7  A    between atoms: C_18  and  N_19
REMARK    8  A    between atoms: C_26  and  C_27
REMARK    9  A    between atoms: C_27  and  O_29
REMARK                            x       y       z     vdW  Elec       q    Type
REMARK                         _______ _______ _______ _____ _____    ______ ____
ROOT
ATOM      1  C   UNL     1       1.990   7.717  19.106  0.00  0.00    +0.000 A 
ATOM      2  C   UNL     1       2.814   8.147  18.061  0.00  0.00    +0.000 A 
ATOM      3  C   UNL     1       2.739   9.463  17.605  0.00  0.00    +0.000 A 
ATOM      4  C   UNL     1       1.827  10.340  18.177  0.00  0.00    +0.000 A 
ATOM      5  F   UNL     1       1.801  11.613  17.754  0.00  0.00    +0.000 F 
ATOM      6  C   UNL     1       0.988   9.931  19.220  0.00  0.00    +0.000 A 
ATOM      7  C   UNL     1       1.107   8.624  19.715  0.00  0.00    +0.000 A 
ENDROOT
BRANCH   6   8
ATOM      8  N   UNL     1       0.003  10.841  19.720  0.00  0.00    +0.000 N 
ATOM      9  C   UNL     1       0.309  11.512  20.915  0.00  0.00    +0.000 A 
ATOM     10  O   UNL     1       1.398  11.468  21.489  0.00  0.00    +0.000 OA
ATOM     11  N   UNL     1      -0.666  12.316  21.450  0.00  0.00    +0.000 N 
ATOM     12  C   UNL     1      -1.898  12.461  20.870  0.00  0.00    +0.000 A 
ATOM     13  C   UNL     1      -2.908  13.238  21.366  0.00  0.00    +0.000 A 
ATOM     14  S   UNL     1      -4.289  13.140  20.379  0.00  0.00    +0.000 S 
ATOM     15  C   UNL     1      -3.533  12.034  19.265  0.00  0.00    +0.000 A 
ATOM     16  C   UNL     1      -2.221  11.786  19.665  0.00  0.00    +0.000 A 
ATOM     17  C   UNL     1      -1.219  10.936  19.034  0.00  0.00    +0.000 A 
ATOM     18  O   UNL     1      -1.489  10.331  18.002  0.00  0.00    +0.000 OA
ATOM     19  H   UNL     1      -0.431  12.800  22.307  0.00  0.00    +0.000 HD
BRANCH  15  20
ATOM     20  C   UNL     1      -4.389  11.586  18.164  0.00  0.00    +0.000 C 
ATOM     21  O   UNL     1      -5.108  12.316  17.491  0.00  0.00    +0.000 OA
BRANCH  20  22
ATOM     22  O   UNL     1      -4.369  10.258  17.904  0.00  0.00    +0.000 OA
ATOM     23  H   UNL     1      -4.220   9.979  16.975  0.00  0.00    +0.000 HD
ENDBRANCH  20  22
ENDBRANCH  15  20
ENDBRANCH   6   8
BRANCH   1  24
ATOM     24  O   UNL     1       1.977   6.438  19.603  0.00  0.00    +0.000 OA
BRANCH  24  25
ATOM     25  C   UNL     1       2.545   5.388  18.786  0.00  0.00    +0.000 C 
ATOM     26  C   UNL     1       1.513   4.873  17.771  0.00  0.00    +0.000 C 
BRANCH  25  33
ATOM     27  C   UNL     1       4.200   3.507  19.325  0.00  0.00    +0.000 A 
ATOM     28  C   UNL     1       4.570   2.374  20.064  0.00  0.00    +0.000 A 
ATOM     29  C   UNL     1       3.768   1.911  21.105  0.00  0.00    +0.000 A 
ATOM     30  C   UNL     1       2.595   2.586  21.420  0.00  0.00    +0.000 A 
ATOM     31  C   UNL     1       2.224   3.715  20.691  0.00  0.00    +0.000 A 
ATOM     32  F   UNL     1       1.062   4.302  21.009  0.00  0.00    +0.000 F 
ATOM     33  C   UNL     1       3.011   4.209  19.640  0.00  0.00    +0.000 A 
BRANCH  27  35
ATOM     34  C   UNL     1       6.108   4.756  18.638  0.00  0.00    +0.000 C 
ATOM     35  O   UNL     1       4.950   4.005  18.285  0.00  0.00    +0.000 OA
ENDBRANCH  27  35
ENDBRANCH  25  33
ENDBRANCH  24  25
ENDBRANCH   1  24
TORSDOF 7
ENDMDL
MODEL 7
REMARK VINA RESULT:      -7.2      3.574      5.100
REMARK  Name = 
REMARK  9 active torsions:
REMARK  status: ('A' for Active; 'I' for Inactive)
REMARK    1  A    between atoms: C_1  and  O_2
REMARK    2  A    between atoms: O_2  and  C_3
REMARK    3  A    between atoms: C_9  and  C_10
REMARK    4  A    between atoms: C_10  and  C_11
REMARK    5  A    between atoms: C_10  and  O_12
REMARK    6  A    between atoms: O_12  and  C_13
REMARK    7  A    between atoms: C_18  and  N_19
REMARK    8  A    between atoms: C_26  and  C_27
REMARK    9  A    between atoms: C_27  and  O_29
REMARK                            x       y       z     vdW  Elec       q    Type
REMARK                         _______ _______ _______ _____ _____    ______ ____
ROOT
ATOM      1  C   UNL     1       0.789  10.237  19.410  0.00  0.00    +0.000 A 
ATOM      2  C   UNL     1       1.592  11.347  19.132  0.00  0.00    +0.000 A 
ATOM      3  C   UNL     1       1.014  12.542  18.702  0.00  0.00    +0.000 A 
ATOM      4  C   UNL     1      -0.362  12.619  18.531  0.00  0.00    +0.000 A 
ATOM      5  F   UNL     1      -0.903  13.788  18.160  0.00  0.00    +0.000 F 
ATOM      6  C   UNL     1      -1.187  11.519  18.798  0.00  0.00    +0.000 A 
ATOM      7  C   UNL     1      -0.606  10.338  19.285  0.00  0.00    +0.000 A 
ENDROOT
BRANCH   6   8
ATOM      8  N   UNL     1      -2.587  11.616  18.523  0.00  0.00    +0.000 N 
ATOM      9  C   UNL     1      -2.998  11.319  17.213  0.00  0.00    +0.000 A 
ATOM     10  O   UNL     1      -2.266  10.868  16.330  0.00  0.00    +0.000 OA
ATOM     11  N   UNL     1      -4.325  11.497  16.917  0.00  0.00    +0.000 N 
ATOM     12  C   UNL     1      -5.228  11.959  17.838  0.00  0.00    +0.000 A 
ATOM     13  C   UNL     1      -6.557  12.166  17.593  0.00  0.00    +0.000 A 
ATOM     14  S   UNL     1      -7.342  12.767  18.976  0.00  0.00    +0.000 S 
ATOM     15  C   UNL     1      -5.883  12.759  19.927  0.00  0.00    +0.000 A 
ATOM     16  C   UNL     1      -4.825  12.266  19.163  0.00  0.00    +0.000 A 
ATOM     17  C   UNL     1      -3.432  12.074  19.547  0.00  0.00    +0.000 A 
ATOM     18  O   UNL     1      -3.065  12.353  20.684  0.00  0.00    +0.000 OA
ATOM     19  H   UNL     1      -4.611  11.273  15.972  0.00  0.00    +0.000 HD
BRANCH  15  20
ATOM     20  C   UNL     1      -6.034  13.257  21.296  0.00  0.00    +0.000 C 
ATOM     21  O   UNL     1      -6.444  14.373  21.596  0.00  0.00    +0.000 OA
BRANCH  20  22
ATOM     22  O   UNL     1      -5.673  12.400  22.279  0.00  0.00    +0.000 OA
ATOM     23  H   UNL     1      -5.633  11.445  22.057  0.00  0.00    +0.000 HD
ENDBRANCH  20  22
ENDBRANCH  15  20
ENDBRANCH   6   8
BRANCH   1  24
ATOM     24  O   UNL     1       1.270   9.017  19.813  0.00  0.00    +0.000 OA
BRANCH  24  25
ATOM     25  C   UNL     1       2.194   8.331  18.936  0.00  0.00    +0.000 C 
ATOM     26  C   UNL     1       1.623   8.238  17.513  0.00  0.00    +0.000 C 
BRANCH  25  33
ATOM     27  C   UNL     1       3.464   6.109  18.802  0.00  0.00    +0.000 A 
ATOM     28  C   UNL     1       3.658   4.781  19.210  0.00  0.00    +0.000 A 
ATOM     29  C   UNL     1       2.880   4.228  20.226  0.00  0.00    +0.000 A 
ATOM     30  C   UNL     1       1.910   5.005  20.846  0.00  0.00    +0.000 A 
ATOM     31  C   UNL     1       1.714   6.327  20.447  0.00  0.00    +0.000 A 
ATOM     32  F   UNL     1       0.736   7.017  21.050  0.00  0.00    +0.000 F 
ATOM     33  C   UNL     1       2.483   6.914  19.432  0.00  0.00    +0.000 A 
BRANCH  27  35
ATOM     34  C   UNL     1       5.528   6.225  17.619  0.00  0.00    +0.000 C 
ATOM     35  O   UNL     1       4.198   6.704  17.803  0.00  0.00    +0.000 OA
ENDBRANCH  27  35
ENDBRANCH  25  33
ENDBRANCH  24  25
ENDBRANCH   1  24
TORSDOF 7
ENDMDL
MODEL 8
REMARK VINA RESULT:      -7.1      1.565      1.826
REMARK  Name = 
REMARK  9 active torsions:
REMARK  status: ('A' for Active; 'I' for Inactive)
REMARK    1  A    between atoms: C_1  and  O_2
REMARK    2  A    between atoms: O_2  and  C_3
REMARK    3  A    between atoms: C_9  and  C_10
REMARK    4  A    between atoms: C_10  and  C_11
REMARK    5  A    between atoms: C_10  and  O_12
REMARK    6  A    between atoms: O_12  and  C_13
REMARK    7  A    between atoms: C_18  and  N_19
REMARK    8  A    between atoms: C_26  and  C_27
REMARK    9  A    between atoms: C_27  and  O_29
REMARK                            x       y       z     vdW  Elec       q    Type
REMARK                         _______ _______ _______ _____ _____    ______ ____
ROOT
ATOM      1  C   UNL     1       1.853   7.735  19.835  0.00  0.00    +0.000 A 
ATOM      2  C   UNL     1       1.259   7.287  21.019  0.00  0.00    +0.000 A 
ATOM      3  C   UNL     1       0.378   8.112  21.718  0.00  0.00    +0.000 A 
ATOM      4  C   UNL     1       0.108   9.390  21.245  0.00  0.00    +0.000 A 
ATOM      5  F   UNL     1      -0.775  10.151  21.907  0.00  0.00    +0.000 F 
ATOM      6  C   UNL     1       0.695   9.863  20.065  0.00  0.00    +0.000 A 
ATOM      7  C   UNL     1       1.535   9.009  19.335  0.00  0.00    +0.000 A 
ENDROOT
BRANCH   6   8
ATOM      8  N   UNL     1       0.458  11.215  19.663  0.00  0.00    +0.000 N 
ATOM      9  C   UNL     1      -0.430  11.412  18.593  0.00  0.00    +0.000 A 
ATOM     10  O   UNL     1      -1.106  10.526  18.066  0.00  0.00    +0.000 OA
ATOM     11  N   UNL     1      -0.592  12.696  18.141  0.00  0.00    +0.000 N 
ATOM     12  C   UNL     1       0.084  13.757  18.682  0.00  0.00    +0.000 A 
ATOM     13  C   UNL     1      -0.031  15.053  18.263  0.00  0.00    +0.000 A 
ATOM     14  S   UNL     1       0.987  16.074  19.164  0.00  0.00    +0.000 S 
ATOM     15  C   UNL     1       1.602  14.765  20.135  0.00  0.00    +0.000 A 
ATOM     16  C   UNL     1       0.988  13.571  19.760  0.00  0.00    +0.000 A 
ATOM     17  C   UNL     1       1.185  12.233  20.302  0.00  0.00    +0.000 A 
ATOM     18  O   UNL     1       1.977  12.053  21.221  0.00  0.00    +0.000 OA
ATOM     19  H   UNL     1      -1.242  12.827  17.374  0.00  0.00    +0.000 HD
BRANCH  15  20
ATOM     20  C   UNL     1       2.615  15.150  21.121  0.00  0.00    +0.000 C 
ATOM     21  O   UNL     1       3.666  15.724  20.861  0.00  0.00    +0.000 OA
BRANCH  20  22
ATOM     22  O   UNL     1       2.342  14.822  22.405  0.00  0.00    +0.000 OA
ATOM     23  H   UNL     1       3.099  14.596  22.988  0.00  0.00    +0.000 HD
ENDBRANCH  20  22
ENDBRANCH  15  20
ENDBRANCH   6   8
BRANCH   1  24
ATOM     24  O   UNL     1       2.749   7.005  19.095  0.00  0.00    +0.000 OA
BRANCH  24  25
ATOM     25  C   UNL     1       3.389   5.874  19.731  0.00  0.00    +0.000 C 
ATOM     26  C   UNL     1       4.886   5.838  19.391  0.00  0.00    +0.000 C 
BRANCH  25  33
ATOM     27  C   UNL     1       2.907   4.097  17.948  0.00  0.00    +0.000 A 
ATOM     28  C   UNL     1       2.253   2.931  17.525  0.00  0.00    +0.000 A 
ATOM     29  C   UNL     1       1.439   2.214  18.400  0.00  0.00    +0.000 A 
ATOM     30  C   UNL     1       1.282   2.656  19.707  0.00  0.00    +0.000 A 
ATOM     31  C   UNL     1       1.932   3.814  20.135  0.00  0.00    +0.000 A 
ATOM     32  F   UNL     1       1.711   4.218  21.394  0.00  0.00    +0.000 F 
ATOM     33  C   UNL     1       2.761   4.554  19.281  0.00  0.00    +0.000 A 
BRANCH  27  35
ATOM     34  C   UNL     1       4.640   4.125  16.315  0.00  0.00    +0.000 C 
ATOM     35  O   UNL     1       3.716   4.846  17.127  0.00  0.00    +0.000 OA
ENDBRANCH  27  35
ENDBRANCH  25  33
ENDBRANCH  24  25
ENDBRANCH   1  24
TORSDOF 7
ENDMDL
MODEL 9
REMARK VINA RESULT:      -7.1      2.995      4.467
REMARK  Name = 
REMARK  9 active torsions:
REMARK  status: ('A' for Active; 'I' for Inactive)
REMARK    1  A    between atoms: C_1  and  O_2
REMARK    2  A    between atoms: O_2  and  C_3
REMARK    3  A    between atoms: C_9  and  C_10
REMARK    4  A    between atoms: C_10  and  C_11
REMARK    5  A    between atoms: C_10  and  O_12
REMARK    6  A    between atoms: O_12  and  C_13
REMARK    7  A    between atoms: C_18  and  N_19
REMARK    8  A    between atoms: C_26  and  C_27
REMARK    9  A    between atoms: C_27  and  O_29
REMARK                            x       y       z     vdW  Elec       q    Type
REMARK                         _______ _______ _______ _____ _____    ______ ____
ROOT
ATOM      1  C   UNL     1       1.668   8.617  19.412  0.00  0.00    +0.000 A 
ATOM      2  C   UNL     1       2.489   9.171  18.425  0.00  0.00    +0.000 A 
ATOM      3  C   UNL     1       2.273  10.476  17.983  0.00  0.00    +0.000 A 
ATOM      4  C   UNL     1       1.224  11.218  18.511  0.00  0.00    +0.000 A 
ATOM      5  F   UNL     1       1.060  12.485  18.105  0.00  0.00    +0.000 F 
ATOM      6  C   UNL     1       0.385  10.684  19.496  0.00  0.00    +0.000 A 
ATOM      7  C   UNL     1       0.642   9.391  19.979  0.00  0.00    +0.000 A 
ENDROOT
BRANCH   6   8
ATOM      8  N   UNL     1      -0.735  11.450  19.948  0.00  0.00    +0.000 N 
ATOM      9  C   UNL     1      -0.605  12.090  21.192  0.00  0.00    +0.000 A 
ATOM     10  O   UNL     1       0.433  12.141  21.853  0.00  0.00    +0.000 OA
ATOM     11  N   UNL     1      -1.706  12.751  21.674  0.00  0.00    +0.000 N 
ATOM     12  C   UNL     1      -2.897  12.785  20.999  0.00  0.00    +0.000 A 
ATOM     13  C   UNL     1      -4.027  13.417  21.440  0.00  0.00    +0.000 A 
ATOM     14  S   UNL     1      -5.305  13.213  20.337  0.00  0.00    +0.000 S 
ATOM     15  C   UNL     1      -4.340  12.258  19.246  0.00  0.00    +0.000 A 
ATOM     16  C   UNL     1      -3.043  12.139  19.745  0.00  0.00    +0.000 A 
ATOM     17  C   UNL     1      -1.902  11.441  19.166  0.00  0.00    +0.000 A 
ATOM     18  O   UNL     1      -2.018  10.862  18.091  0.00  0.00    +0.000 OA
ATOM     19  H   UNL     1      -1.598  13.215  22.568  0.00  0.00    +0.000 HD
BRANCH  15  20
ATOM     20  C   UNL     1      -5.047  11.772  18.059  0.00  0.00    +0.000 C 
ATOM     21  O   UNL     1      -6.063  11.086  18.078  0.00  0.00    +0.000 OA
BRANCH  20  22
ATOM     22  O   UNL     1      -4.504  12.115  16.868  0.00  0.00    +0.000 OA
ATOM     23  H   UNL     1      -5.094  12.116  16.083  0.00  0.00    +0.000 HD
ENDBRANCH  20  22
ENDBRANCH  15  20
ENDBRANCH   6   8
BRANCH   1  24
ATOM     24  O   UNL     1       1.789   7.337  19.890  0.00  0.00    +0.000 OA
BRANCH  24  25
ATOM     25  C   UNL     1       2.584   6.401  19.125  0.00  0.00    +0.000 C 
ATOM     26  C   UNL     1       1.944   6.142  17.753  0.00  0.00    +0.000 C 
BRANCH  25  33
ATOM     27  C   UNL     1       3.882   4.266  19.693  0.00  0.00    +0.000 A 
ATOM     28  C   UNL     1       3.959   3.002  20.295  0.00  0.00    +0.000 A 
ATOM     29  C   UNL     1       2.894   2.504  21.043  0.00  0.00    +0.000 A 
ATOM     30  C   UNL     1       1.748   3.273  21.201  0.00  0.00    +0.000 A 
ATOM     31  C   UNL     1       1.667   4.533  20.607  0.00  0.00    +0.000 A 
ATOM     32  F   UNL     1       0.522   5.214  20.755  0.00  0.00    +0.000 F 
ATOM     33  C   UNL     1       2.722   5.064  19.852  0.00  0.00    +0.000 A 
BRANCH  27  35
ATOM     34  C   UNL     1       5.206   4.140  17.717  0.00  0.00    +0.000 C 
ATOM     35  O   UNL     1       4.900   4.804  18.940  0.00  0.00    +0.000 OA
ENDBRANCH  27  35
ENDBRANCH  25  33
ENDBRANCH  24  25
ENDBRANCH   1  24
TORSDOF 7
ENDMDL
