MODEL 1
REMARK VINA RESULT:      -8.5      0.000      0.000
REMARK  Name = 
REMARK  3 active torsions:
REMARK  status: ('A' for Active; 'I' for Inactive)
REMARK    1  A    between atoms: C_1  and  N_2
REMARK    2  A    between atoms: C_19  and  C_20
REMARK    3  A    between atoms: C_20  and  N_21
REMARK                            x       y       z     vdW  Elec       q    Type
REMARK                         _______ _______ _______ _____ _____    ______ ____
ROOT
ATOM      1  C   UNL     1       1.639   4.528  20.289  0.00  0.00    +0.000 C 
ATOM      2  N   UNL     1       2.566   5.164  19.357  0.00  0.00    +0.000 N 
ATOM      3  C   UNL     1       2.551   6.540  19.046  0.00  0.00    +0.000 A 
ATOM      4  C   UNL     1       3.309   6.982  17.907  0.00  0.00    +0.000 A 
ATOM      5  C   UNL     1       3.205   8.324  17.498  0.00  0.00    +0.000 A 
ATOM      6  C   UNL     1       2.386   9.235  18.142  0.00  0.00    +0.000 A 
ATOM      7  C   UNL     1       1.665   8.864  19.263  0.00  0.00    +0.000 A 
ATOM      8  C   UNL     1       0.863   9.860  19.851  0.00  0.00    +0.000 A 
ATOM      9  C   UNL     1       0.133   9.611  21.004  0.00  0.00    +0.000 A 
ATOM     10  C   UNL     1       0.238   8.370  21.594  0.00  0.00    +0.000 A 
ATOM     11  C   UNL     1       1.042   7.378  21.008  0.00  0.00    +0.000 A 
ATOM     12  C   UNL     1       1.756   7.541  19.781  0.00  0.00    +0.000 A 
ATOM     13  C   UNL     1       4.144   6.042  17.113  0.00  0.00    +0.000 A 
ATOM     14  C   UNL     1       4.888   6.418  15.974  0.00  0.00    +0.000 A 
ATOM     15  C   UNL     1       5.619   5.498  15.217  0.00  0.00    +0.000 A 
ATOM     16  C   UNL     1       5.615   4.160  15.570  0.00  0.00    +0.000 A 
ATOM     17  C   UNL     1       4.914   3.761  16.702  0.00  0.00    +0.000 A 
ATOM     18  C   UNL     1       4.209   4.698  17.491  0.00  0.00    +0.000 A 
ATOM     19  C   UNL     1       3.578   4.248  18.785  0.00  0.00    +0.000 C 
ENDROOT
BRANCH  19  20
ATOM     20  C   UNL     1       4.598   3.774  19.825  0.00  0.00    +0.000 C 
BRANCH  20  21
ATOM     21  N   UNL     1       4.470   2.308  20.064  0.00  0.00    +0.000 N 
ATOM     22  O   UNL     1       5.149   1.821  20.977  0.00  0.00    +0.000 OA
ATOM     23  O   UNL     1       3.779   1.662  19.263  0.00  0.00    +0.000 OA
ENDBRANCH  20  21
ENDBRANCH  19  20
TORSDOF 2
ENDMDL
MODEL 2
REMARK VINA RESULT:      -7.8      1.883      3.908
REMARK  Name = 
REMARK  3 active torsions:
REMARK  status: ('A' for Active; 'I' for Inactive)
REMARK    1  A    between atoms: C_1  and  N_2
REMARK    2  A    between atoms: C_19  and  C_20
REMARK    3  A    between atoms: C_20  and  N_21
REMARK                            x       y       z     vdW  Elec       q    Type
REMARK                         _______ _______ _______ _____ _____    ______ ____
ROOT
ATOM      1  C   UNL     1       4.452   7.005  17.348  0.00  0.00    +0.000 C 
ATOM      2  N   UNL     1       3.646   6.251  18.304  0.00  0.00    +0.000 N 
ATOM      3  C   UNL     1       2.641   6.825  19.111  0.00  0.00    +0.000 A 
ATOM      4  C   UNL     1       2.133   6.046  20.208  0.00  0.00    +0.000 A 
ATOM      5  C   UNL     1       1.228   6.642  21.105  0.00  0.00    +0.000 A 
ATOM      6  C   UNL     1       0.819   7.959  20.982  0.00  0.00    +0.000 A 
ATOM      7  C   UNL     1       1.254   8.735  19.923  0.00  0.00    +0.000 A 
ATOM      8  C   UNL     1       0.782  10.061  19.881  0.00  0.00    +0.000 A 
ATOM      9  C   UNL     1       1.118  10.913  18.841  0.00  0.00    +0.000 A 
ATOM     10  C   UNL     1       1.900  10.425  17.815  0.00  0.00    +0.000 A 
ATOM     11  C   UNL     1       2.367   9.101  17.857  0.00  0.00    +0.000 A 
ATOM     12  C   UNL     1       2.126   8.195  18.936  0.00  0.00    +0.000 A 
ATOM     13  C   UNL     1       2.591   4.653  20.454  0.00  0.00    +0.000 A 
ATOM     14  C   UNL     1       2.142   3.854  21.529  0.00  0.00    +0.000 A 
ATOM     15  C   UNL     1       2.635   2.567  21.765  0.00  0.00    +0.000 A 
ATOM     16  C   UNL     1       3.611   2.042  20.936  0.00  0.00    +0.000 A 
ATOM     17  C   UNL     1       4.055   2.793  19.854  0.00  0.00    +0.000 A 
ATOM     18  C   UNL     1       3.527   4.078  19.591  0.00  0.00    +0.000 A 
ATOM     19  C   UNL     1       3.932   4.800  18.331  0.00  0.00    +0.000 C 
ENDROOT
BRANCH  19  20
ATOM     20  C   UNL     1       3.485   4.087  17.051  0.00  0.00    +0.000 C 
BRANCH  20  21
ATOM     21  N   UNL     1       2.141   3.466  17.231  0.00  0.00    +0.000 N 
ATOM     22  O   UNL     1       2.087   2.230  17.256  0.00  0.00    +0.000 OA
ATOM     23  O   UNL     1       1.162   4.226  17.231  0.00  0.00    +0.000 OA
ENDBRANCH  20  21
ENDBRANCH  19  20
TORSDOF 2
ENDMDL
MODEL 3
REMARK VINA RESULT:      -7.8      3.732      4.861
REMARK  Name = 
REMARK  3 active torsions:
REMARK  status: ('A' for Active; 'I' for Inactive)
REMARK    1  A    between atoms: C_1  and  N_2
REMARK    2  A    between atoms: C_19  and  C_20
REMARK    3  A    between atoms: C_20  and  N_21
REMARK                            x       y       z     vdW  Elec       q    Type
REMARK                         _______ _______ _______ _____ _____    ______ ____
ROOT
ATOM      1  C   UNL     1       6.004   5.319  19.796  0.00  0.00    +0.000 C 
ATOM      2  N   UNL     1       5.552   5.025  18.440  0.00  0.00    +0.000 N 
ATOM      3  C   UNL     1       4.366   4.320  18.139  0.00  0.00    +0.000 A 
ATOM      4  C   UNL     1       4.189   3.843  16.794  0.00  0.00    +0.000 A 
ATOM      5  C   UNL     1       3.081   3.027  16.502  0.00  0.00    +0.000 A 
ATOM      6  C   UNL     1       2.162   2.650  17.466  0.00  0.00    +0.000 A 
ATOM      7  C   UNL     1       2.273   3.112  18.765  0.00  0.00    +0.000 A 
ATOM      8  C   UNL     1       1.289   2.677  19.672  0.00  0.00    +0.000 A 
ATOM      9  C   UNL     1       1.278   3.114  20.988  0.00  0.00    +0.000 A 
ATOM     10  C   UNL     1       2.233   4.024  21.388  0.00  0.00    +0.000 A 
ATOM     11  C   UNL     1       3.212   4.460  20.480  0.00  0.00    +0.000 A 
ATOM     12  C   UNL     1       3.330   3.990  19.135  0.00  0.00    +0.000 A 
ATOM     13  C   UNL     1       5.180   4.136  15.726  0.00  0.00    +0.000 A 
ATOM     14  C   UNL     1       5.065   3.673  14.397  0.00  0.00    +0.000 A 
ATOM     15  C   UNL     1       6.043   3.919  13.429  0.00  0.00    +0.000 A 
ATOM     16  C   UNL     1       7.183   4.628  13.768  0.00  0.00    +0.000 A 
ATOM     17  C   UNL     1       7.313   5.120  15.061  0.00  0.00    +0.000 A 
ATOM     18  C   UNL     1       6.305   4.907  16.028  0.00  0.00    +0.000 A 
ATOM     19  C   UNL     1       6.420   5.575  17.376  0.00  0.00    +0.000 C 
ENDROOT
BRANCH  19  20
ATOM     20  C   UNL     1       6.367   7.104  17.302  0.00  0.00    +0.000 C 
BRANCH  20  21
ATOM     21  N   UNL     1       7.669   7.701  17.715  0.00  0.00    +0.000 N 
ATOM     22  O   UNL     1       8.312   7.110  18.591  0.00  0.00    +0.000 OA
ATOM     23  O   UNL     1       7.964   8.804  17.233  0.00  0.00    +0.000 OA
ENDBRANCH  20  21
ENDBRANCH  19  20
TORSDOF 2
ENDMDL
MODEL 4
REMARK VINA RESULT:      -7.4      1.376      5.393
REMARK  Name = 
REMARK  3 active torsions:
REMARK  status: ('A' for Active; 'I' for Inactive)
REMARK    1  A    between atoms: C_1  and  N_2
REMARK    2  A    between atoms: C_19  and  C_20
REMARK    3  A    between atoms: C_20  and  N_21
REMARK                            x       y       z     vdW  Elec       q    Type
REMARK                         _______ _______ _______ _____ _____    ______ ____
ROOT
ATOM      1  C   UNL     1       4.157   3.451  19.554  0.00  0.00    +0.000 C 
ATOM      2  N   UNL     1       3.494   4.707  19.218  0.00  0.00    +0.000 N 
ATOM      3  C   UNL     1       3.808   5.485  18.082  0.00  0.00    +0.000 A 
ATOM      4  C   UNL     1       3.299   6.828  18.024  0.00  0.00    +0.000 A 
ATOM      5  C   UNL     1       3.705   7.665  16.969  0.00  0.00    +0.000 A 
ATOM      6  C   UNL     1       4.592   7.250  15.991  0.00  0.00    +0.000 A 
ATOM      7  C   UNL     1       5.080   5.956  15.987  0.00  0.00    +0.000 A 
ATOM      8  C   UNL     1       5.974   5.626  14.950  0.00  0.00    +0.000 A 
ATOM      9  C   UNL     1       6.489   4.345  14.824  0.00  0.00    +0.000 A 
ATOM     10  C   UNL     1       6.078   3.378  15.716  0.00  0.00    +0.000 A 
ATOM     11  C   UNL     1       5.183   3.708  16.747  0.00  0.00    +0.000 A 
ATOM     12  C   UNL     1       4.676   5.024  16.984  0.00  0.00    +0.000 A 
ATOM     13  C   UNL     1       2.410   7.372  19.085  0.00  0.00    +0.000 A 
ATOM     14  C   UNL     1       1.902   8.690  19.088  0.00  0.00    +0.000 A 
ATOM     15  C   UNL     1       1.114   9.188  20.130  0.00  0.00    +0.000 A 
ATOM     16  C   UNL     1       0.821   8.382  21.216  0.00  0.00    +0.000 A 
ATOM     17  C   UNL     1       1.284   7.072  21.230  0.00  0.00    +0.000 A 
ATOM     18  C   UNL     1       2.046   6.555  20.158  0.00  0.00    +0.000 A 
ATOM     19  C   UNL     1       2.409   5.091  20.147  0.00  0.00    +0.000 C 
ENDROOT
BRANCH  19  20
ATOM     20  C   UNL     1       1.193   4.165  20.051  0.00  0.00    +0.000 C 
BRANCH  20  21
ATOM     21  N   UNL     1       1.384   2.948  20.892  0.00  0.00    +0.000 N 
ATOM     22  O   UNL     1       1.688   3.122  22.079  0.00  0.00    +0.000 OA
ATOM     23  O   UNL     1       1.333   1.851  20.319  0.00  0.00    +0.000 OA
ENDBRANCH  20  21
ENDBRANCH  19  20
TORSDOF 2
ENDMDL
MODEL 5
REMARK VINA RESULT:      -7.4      1.569      5.528
REMARK  Name = 
REMARK  3 active torsions:
REMARK  status: ('A' for Active; 'I' for Inactive)
REMARK    1  A    between atoms: C_1  and  N_2
REMARK    2  A    between atoms: C_19  and  C_20
REMARK    3  A    between atoms: C_20  and  N_21
REMARK                            x       y       z     vdW  Elec       q    Type
REMARK                         _______ _______ _______ _____ _____    ______ ____
ROOT
ATOM      1  C   UNL     1       4.316   3.192  19.267  0.00  0.00    +0.000 C 
ATOM      2  N   UNL     1       3.641   4.458  19.001  0.00  0.00    +0.000 N 
ATOM      3  C   UNL     1       3.960   5.310  17.922  0.00  0.00    +0.000 A 
ATOM      4  C   UNL     1       3.433   6.648  17.941  0.00  0.00    +0.000 A 
ATOM      5  C   UNL     1       3.843   7.555  16.947  0.00  0.00    +0.000 A 
ATOM      6  C   UNL     1       4.750   7.214  15.958  0.00  0.00    +0.000 A 
ATOM      7  C   UNL     1       5.256   5.929  15.880  0.00  0.00    +0.000 A 
ATOM      8  C   UNL     1       6.169   5.677  14.838  0.00  0.00    +0.000 A 
ATOM      9  C   UNL     1       6.704   4.413  14.639  0.00  0.00    +0.000 A 
ATOM     10  C   UNL     1       6.293   3.387  15.462  0.00  0.00    +0.000 A 
ATOM     11  C   UNL     1       5.379   3.639  16.498  0.00  0.00    +0.000 A 
ATOM     12  C   UNL     1       4.851   4.931  16.810  0.00  0.00    +0.000 A 
ATOM     13  C   UNL     1       2.522   7.112  19.020  0.00  0.00    +0.000 A 
ATOM     14  C   UNL     1       1.996   8.420  19.099  0.00  0.00    +0.000 A 
ATOM     15  C   UNL     1       1.187   8.841  20.158  0.00  0.00    +0.000 A 
ATOM     16  C   UNL     1       0.889   7.965  21.186  0.00  0.00    +0.000 A 
ATOM     17  C   UNL     1       1.369   6.662  21.125  0.00  0.00    +0.000 A 
ATOM     18  C   UNL     1       2.154   6.224  20.034  0.00  0.00    +0.000 A 
ATOM     19  C   UNL     1       2.537   4.769  19.937  0.00  0.00    +0.000 C 
ENDROOT
BRANCH  19  20
ATOM     20  C   UNL     1       1.336   3.834  19.763  0.00  0.00    +0.000 C 
BRANCH  20  21
ATOM     21  N   UNL     1       1.207   3.392  18.345  0.00  0.00    +0.000 N 
ATOM     22  O   UNL     1       0.918   4.255  17.506  0.00  0.00    +0.000 OA
ATOM     23  O   UNL     1       1.288   2.176  18.122  0.00  0.00    +0.000 OA
ENDBRANCH  20  21
ENDBRANCH  19  20
TORSDOF 2
ENDMDL
MODEL 6
REMARK VINA RESULT:      -7.3      1.601      1.651
REMARK  Name = 
REMARK  3 active torsions:
REMARK  status: ('A' for Active; 'I' for Inactive)
REMARK    1  A    between atoms: C_1  and  N_2
REMARK    2  A    between atoms: C_19  and  C_20
REMARK    3  A    between atoms: C_20  and  N_21
REMARK                            x       y       z     vdW  Elec       q    Type
REMARK                         _______ _______ _______ _____ _____    ______ ____
ROOT
ATOM      1  C   UNL     1       2.480   4.163  20.069  0.00  0.00    +0.000 C 
ATOM      2  N   UNL     1       3.233   4.886  19.049  0.00  0.00    +0.000 N 
ATOM      3  C   UNL     1       3.036   6.250  18.744  0.00  0.00    +0.000 A 
ATOM      4  C   UNL     1       3.622   6.761  17.534  0.00  0.00    +0.000 A 
ATOM      5  C   UNL     1       3.332   8.080  17.141  0.00  0.00    +0.000 A 
ATOM      6  C   UNL     1       2.488   8.902  17.867  0.00  0.00    +0.000 A 
ATOM      7  C   UNL     1       1.930   8.466  19.055  0.00  0.00    +0.000 A 
ATOM      8  C   UNL     1       1.088   9.375  19.724  0.00  0.00    +0.000 A 
ATOM      9  C   UNL     1       0.511   9.059  20.944  0.00  0.00    +0.000 A 
ATOM     10  C   UNL     1       0.810   7.842  21.519  0.00  0.00    +0.000 A 
ATOM     11  C   UNL     1       1.653   6.938  20.852  0.00  0.00    +0.000 A 
ATOM     12  C   UNL     1       2.216   7.166  19.558  0.00  0.00    +0.000 A 
ATOM     13  C   UNL     1       4.469   5.909  16.658  0.00  0.00    +0.000 A 
ATOM     14  C   UNL     1       5.049   6.354  15.449  0.00  0.00    +0.000 A 
ATOM     15  C   UNL     1       5.794   5.511  14.620  0.00  0.00    +0.000 A 
ATOM     16  C   UNL     1       5.972   4.184  14.969  0.00  0.00    +0.000 A 
ATOM     17  C   UNL     1       5.437   3.722  16.166  0.00  0.00    +0.000 A 
ATOM     18  C   UNL     1       4.718   4.584  17.024  0.00  0.00    +0.000 A 
ATOM     19  C   UNL     1       4.275   4.081  18.375  0.00  0.00    +0.000 C 
ENDROOT
BRANCH  19  20
ATOM     20  C   UNL     1       5.441   3.729  19.304  0.00  0.00    +0.000 C 
BRANCH  20  21
ATOM     21  N   UNL     1       6.531   4.741  19.196  0.00  0.00    +0.000 N 
ATOM     22  O   UNL     1       7.562   4.401  18.601  0.00  0.00    +0.000 OA
ATOM     23  O   UNL     1       6.373   5.809  19.803  0.00  0.00    +0.000 OA
ENDBRANCH  20  21
ENDBRANCH  19  20
TORSDOF 2
ENDMDL
MODEL 7
REMARK VINA RESULT:      -7.1      2.111      3.896
REMARK  Name = 
REMARK  3 active torsions:
REMARK  status: ('A' for Active; 'I' for Inactive)
REMARK    1  A    between atoms: C_1  and  N_2
REMARK    2  A    between atoms: C_19  and  C_20
REMARK    3  A    between atoms: C_20  and  N_21
REMARK                            x       y       z     vdW  Elec       q    Type
REMARK                         _______ _______ _______ _____ _____    ______ ____
ROOT
ATOM      1  C   UNL     1       4.701   7.283  17.239  0.00  0.00    +0.000 C 
ATOM      2  N   UNL     1       3.937   6.387  18.100  0.00  0.00    +0.000 N 
ATOM      3  C   UNL     1       2.857   6.802  18.909  0.00  0.00    +0.000 A 
ATOM      4  C   UNL     1       2.387   5.895  19.921  0.00  0.00    +0.000 A 
ATOM      5  C   UNL     1       1.402   6.335  20.825  0.00  0.00    +0.000 A 
ATOM      6  C   UNL     1       0.879   7.616  20.787  0.00  0.00    +0.000 A 
ATOM      7  C   UNL     1       1.276   8.510  19.810  0.00  0.00    +0.000 A 
ATOM      8  C   UNL     1       0.686   9.788  19.852  0.00  0.00    +0.000 A 
ATOM      9  C   UNL     1       0.977  10.748  18.895  0.00  0.00    +0.000 A 
ATOM     10  C   UNL     1       1.833  10.415  17.867  0.00  0.00    +0.000 A 
ATOM     11  C   UNL     1       2.418   9.138  17.825  0.00  0.00    +0.000 A 
ATOM     12  C   UNL     1       2.225   8.131  18.820  0.00  0.00    +0.000 A 
ATOM     13  C   UNL     1       2.962   4.533  20.077  0.00  0.00    +0.000 A 
ATOM     14  C   UNL     1       2.553   3.613  21.068  0.00  0.00    +0.000 A 
ATOM     15  C   UNL     1       3.154   2.361  21.223  0.00  0.00    +0.000 A 
ATOM     16  C   UNL     1       4.200   1.993  20.396  0.00  0.00    +0.000 A 
ATOM     17  C   UNL     1       4.609   2.865  19.393  0.00  0.00    +0.000 A 
ATOM     18  C   UNL     1       3.975   4.114  19.210  0.00  0.00    +0.000 A 
ATOM     19  C   UNL     1       4.353   4.969  18.027  0.00  0.00    +0.000 C 
ENDROOT
BRANCH  19  20
ATOM     20  C   UNL     1       4.015   4.324  16.679  0.00  0.00    +0.000 C 
BRANCH  20  21
ATOM     21  N   UNL     1       5.236   4.189  15.833  0.00  0.00    +0.000 N 
ATOM     22  O   UNL     1       6.312   4.006  16.416  0.00  0.00    +0.000 OA
ATOM     23  O   UNL     1       5.105   4.381  14.616  0.00  0.00    +0.000 OA
ENDBRANCH  20  21
ENDBRANCH  19  20
TORSDOF 2
ENDMDL
MODEL 8
REMARK VINA RESULT:      -6.7      3.750      4.837
REMARK  Name = 
REMARK  3 active torsions:
REMARK  status: ('A' for Active; 'I' for Inactive)
REMARK    1  A    between atoms: C_1  and  N_2
REMARK    2  A    between atoms: C_19  and  C_20
REMARK    3  A    between atoms: C_20  and  N_21
REMARK                            x       y       z     vdW  Elec       q    Type
REMARK                         _______ _______ _______ _____ _____    ______ ____
ROOT
ATOM      1  C   UNL     1       6.024   5.257  19.729  0.00  0.00    +0.000 C 
ATOM      2  N   UNL     1       5.538   4.916  18.396  0.00  0.00    +0.000 N 
ATOM      3  C   UNL     1       4.372   4.158  18.152  0.00  0.00    +0.000 A 
ATOM      4  C   UNL     1       4.168   3.645  16.825  0.00  0.00    +0.000 A 
ATOM      5  C   UNL     1       3.084   2.779  16.589  0.00  0.00    +0.000 A 
ATOM      6  C   UNL     1       2.214   2.388  17.593  0.00  0.00    +0.000 A 
ATOM      7  C   UNL     1       2.352   2.884  18.877  0.00  0.00    +0.000 A 
ATOM      8  C   UNL     1       1.417   2.431  19.827  0.00  0.00    +0.000 A 
ATOM      9  C   UNL     1       1.434   2.897  21.133  0.00  0.00    +0.000 A 
ATOM     10  C   UNL     1       2.366   3.852  21.480  0.00  0.00    +0.000 A 
ATOM     11  C   UNL     1       3.294   4.306  20.529  0.00  0.00    +0.000 A 
ATOM     12  C   UNL     1       3.385   3.811  19.191  0.00  0.00    +0.000 A 
ATOM     13  C   UNL     1       5.109   3.952  15.716  0.00  0.00    +0.000 A 
ATOM     14  C   UNL     1       4.968   3.455  14.402  0.00  0.00    +0.000 A 
ATOM     15  C   UNL     1       5.902   3.717  13.395  0.00  0.00    +0.000 A 
ATOM     16  C   UNL     1       7.022   4.478  13.679  0.00  0.00    +0.000 A 
ATOM     17  C   UNL     1       7.178   5.004  14.956  0.00  0.00    +0.000 A 
ATOM     18  C   UNL     1       6.213   4.773  15.962  0.00  0.00    +0.000 A 
ATOM     19  C   UNL     1       6.347   5.475  17.290  0.00  0.00    +0.000 C 
ENDROOT
BRANCH  19  20
ATOM     20  C   UNL     1       6.230   6.999  17.186  0.00  0.00    +0.000 C 
BRANCH  20  21
ATOM     21  N   UNL     1       4.894   7.394  16.658  0.00  0.00    +0.000 N 
ATOM     22  O   UNL     1       3.990   7.580  17.483  0.00  0.00    +0.000 OA
ATOM     23  O   UNL     1       4.751   7.401  15.427  0.00  0.00    +0.000 OA
ENDBRANCH  20  21
ENDBRANCH  19  20
TORSDOF 2
ENDMDL
MODEL 9
REMARK VINA RESULT:      -6.4      4.953      7.913
REMARK  Name = 
REMARK  3 active torsions:
REMARK  status: ('A' for Active; 'I' for Inactive)
REMARK    1  A    between atoms: C_1  and  N_2
REMARK    2  A    between atoms: C_19  and  C_20
REMARK    3  A    between atoms: C_20  and  N_21
REMARK                            x       y       z     vdW  Elec       q    Type
REMARK                         _______ _______ _______ _____ _____    ______ ____
ROOT
ATOM      1  C   UNL     1       0.556   9.431  22.734  0.00  0.00    +0.000 C 
ATOM      2  N   UNL     1       0.528  10.196  21.492  0.00  0.00    +0.000 N 
ATOM      3  C   UNL     1       1.033   9.721  20.262  0.00  0.00    +0.000 A 
ATOM      4  C   UNL     1       1.213  10.670  19.197  0.00  0.00    +0.000 A 
ATOM      5  C   UNL     1       1.837  10.249  18.008  0.00  0.00    +0.000 A 
ATOM      6  C   UNL     1       2.300   8.956  17.831  0.00  0.00    +0.000 A 
ATOM      7  C   UNL     1       2.117   8.001  18.814  0.00  0.00    +0.000 A 
ATOM      8  C   UNL     1       2.619   6.715  18.540  0.00  0.00    +0.000 A 
ATOM      9  C   UNL     1       2.452   5.670  19.437  0.00  0.00    +0.000 A 
ATOM     10  C   UNL     1       1.743   5.904  20.596  0.00  0.00    +0.000 A 
ATOM     11  C   UNL     1       1.239   7.187  20.865  0.00  0.00    +0.000 A 
ATOM     12  C   UNL     1       1.444   8.325  20.026  0.00  0.00    +0.000 A 
ATOM     13  C   UNL     1       0.819  12.096  19.347  0.00  0.00    +0.000 A 
ATOM     14  C   UNL     1       0.996  13.072  18.342  0.00  0.00    +0.000 A 
ATOM     15  C   UNL     1       0.666  14.416  18.535  0.00  0.00    +0.000 A 
ATOM     16  C   UNL     1       0.159  14.832  19.754  0.00  0.00    +0.000 A 
ATOM     17  C   UNL     1      -0.051  13.891  20.755  0.00  0.00    +0.000 A 
ATOM     18  C   UNL     1       0.244  12.525  20.546  0.00  0.00    +0.000 A 
ATOM     19  C   UNL     1      -0.129  11.517  21.604  0.00  0.00    +0.000 C 
ENDROOT
BRANCH  19  20
ATOM     20  C   UNL     1      -1.639  11.408  21.833  0.00  0.00    +0.000 C 
BRANCH  20  21
ATOM     21  N   UNL     1      -2.018  11.974  23.160  0.00  0.00    +0.000 N 
ATOM     22  O   UNL     1      -3.164  11.744  23.568  0.00  0.00    +0.000 OA
ATOM     23  O   UNL     1      -1.201  12.727  23.708  0.00  0.00    +0.000 OA
ENDBRANCH  20  21
ENDBRANCH  19  20
TORSDOF 2
ENDMDL
