MODEL 1
REMARK VINA RESULT:      -8.5      0.000      0.000
REMARK  Name = 
REMARK  5 active torsions:
REMARK  status: ('A' for Active; 'I' for Inactive)
REMARK    1  A    between atoms: C_2  and  C_14
REMARK    2  A    between atoms: N_3  and  N_4
REMARK    3  A    between atoms: N_4  and  S_5
REMARK    4  A    between atoms: S_5  and  C_8
REMARK    5  A    between atoms: C_18  and  C_19
REMARK                            x       y       z     vdW  Elec       q    Type
REMARK                         _______ _______ _______ _____ _____    ______ ____
ROOT
ATOM      1  O   UNL     1       4.829   2.970  20.133  0.00  0.00    +0.000 OA
ATOM      2  C   UNL     1       4.698   3.183  18.933  0.00  0.00    +0.000 C 
ATOM      3  N   UNL     1       3.689   2.632  18.164  0.00  0.00    +0.000 N 
ATOM      4  H   UNL     1       3.477   2.969  17.226  0.00  0.00    +0.000 HD
ENDROOT
BRANCH   2   5
ATOM      5  C   UNL     1       5.600   4.124  18.203  0.00  0.00    +0.000 A 
ATOM      6  C   UNL     1       6.194   5.184  18.897  0.00  0.00    +0.000 A 
ATOM      7  C   UNL     1       7.008   6.094  18.220  0.00  0.00    +0.000 A 
ATOM      8  C   UNL     1       7.238   5.948  16.848  0.00  0.00    +0.000 A 
ATOM      9  C   UNL     1       6.666   4.882  16.143  0.00  0.00    +0.000 A 
ATOM     10  C   UNL     1       5.853   3.970  16.832  0.00  0.00    +0.000 A 
BRANCH   9  11
ATOM     11  C   UNL     1       6.858   4.713  14.707  0.00  0.00    +0.000 A 
ATOM     12  C   UNL     1       6.173   3.802  13.926  0.00  0.00    +0.000 A 
ATOM     13  S   UNL     1       6.707   3.902  12.298  0.00  0.00    +0.000 S 
ATOM     14  C   UNL     1       7.786   5.153  12.751  0.00  0.00    +0.000 A 
ATOM     15  N   UNL     1       7.768   5.503  14.019  0.00  0.00    +0.000 NA
ENDBRANCH   9  11
ENDBRANCH   2   5
BRANCH   3  16
ATOM     16  N   UNL     1       2.696   1.766  18.778  0.00  0.00    +0.000 NA
ATOM     17  H   UNL     1       3.008   0.857  19.137  0.00  0.00    +0.000 HD
BRANCH  16  18
ATOM     18  S   UNL     1       1.377   2.549  19.491  0.00  0.00    +0.000 S 
ATOM     19  O   UNL     1       0.206   2.199  18.713  0.00  0.00    +0.000 OA
ATOM     20  O   UNL     1       1.424   2.269  20.911  0.00  0.00    +0.000 OA
BRANCH  18  21
ATOM     21  C   UNL     1       1.711   4.268  19.238  0.00  0.00    +0.000 A 
ATOM     22  C   UNL     1       1.954   5.096  20.339  0.00  0.00    +0.000 A 
ATOM     23  C   UNL     1       2.338   6.421  20.129  0.00  0.00    +0.000 A 
ATOM     24  C   UNL     1       2.488   6.910  18.830  0.00  0.00    +0.000 A 
ATOM     25  C   UNL     1       2.253   6.076  17.734  0.00  0.00    +0.000 A 
ATOM     26  C   UNL     1       1.866   4.752  17.935  0.00  0.00    +0.000 A 
ENDBRANCH  18  21
ENDBRANCH  16  18
ENDBRANCH   3  16
TORSDOF 5
ENDMDL
MODEL 2
REMARK VINA RESULT:      -8.1      0.451      1.083
REMARK  Name = 
REMARK  5 active torsions:
REMARK  status: ('A' for Active; 'I' for Inactive)
REMARK    1  A    between atoms: C_2  and  C_14
REMARK    2  A    between atoms: N_3  and  N_4
REMARK    3  A    between atoms: N_4  and  S_5
REMARK    4  A    between atoms: S_5  and  C_8
REMARK    5  A    between atoms: C_18  and  C_19
REMARK                            x       y       z     vdW  Elec       q    Type
REMARK                         _______ _______ _______ _____ _____    ______ ____
ROOT
ATOM      1  O   UNL     1       5.167   3.550  20.206  0.00  0.00    +0.000 OA
ATOM      2  C   UNL     1       5.015   3.609  18.991  0.00  0.00    +0.000 C 
ATOM      3  N   UNL     1       4.034   2.914  18.309  0.00  0.00    +0.000 N 
ATOM      4  H   UNL     1       3.795   3.122  17.341  0.00  0.00    +0.000 HD
ENDROOT
BRANCH   2   5
ATOM      5  C   UNL     1       5.857   4.502  18.139  0.00  0.00    +0.000 A 
ATOM      6  C   UNL     1       6.460   5.628  18.711  0.00  0.00    +0.000 A 
ATOM      7  C   UNL     1       7.217   6.494  17.919  0.00  0.00    +0.000 A 
ATOM      8  C   UNL     1       7.382   6.237  16.555  0.00  0.00    +0.000 A 
ATOM      9  C   UNL     1       6.801   5.105  15.971  0.00  0.00    +0.000 A 
ATOM     10  C   UNL     1       6.045   4.238  16.775  0.00  0.00    +0.000 A 
BRANCH   9  11
ATOM     11  C   UNL     1       6.924   4.819  14.546  0.00  0.00    +0.000 A 
ATOM     12  C   UNL     1       6.182   3.869  13.869  0.00  0.00    +0.000 A 
ATOM     13  S   UNL     1       6.646   3.827  12.217  0.00  0.00    +0.000 S 
ATOM     14  C   UNL     1       7.775   5.079  12.524  0.00  0.00    +0.000 A 
ATOM     15  N   UNL     1       7.822   5.527  13.760  0.00  0.00    +0.000 NA
ENDBRANCH   9  11
ENDBRANCH   2   5
BRANCH   3  16
ATOM     16  N   UNL     1       3.096   2.075  19.038  0.00  0.00    +0.000 NA
ATOM     17  H   UNL     1       3.479   1.344  19.647  0.00  0.00    +0.000 HD
BRANCH  16  18
ATOM     18  S   UNL     1       1.604   2.785  19.403  0.00  0.00    +0.000 S 
ATOM     19  O   UNL     1       0.706   2.470  18.311  0.00  0.00    +0.000 OA
ATOM     20  O   UNL     1       1.267   2.408  20.761  0.00  0.00    +0.000 OA
BRANCH  18  21
ATOM     21  C   UNL     1       1.934   4.523  19.359  0.00  0.00    +0.000 A 
ATOM     22  C   UNL     1       2.077   5.169  18.127  0.00  0.00    +0.000 A 
ATOM     23  C   UNL     1       2.213   6.558  18.093  0.00  0.00    +0.000 A 
ATOM     24  C   UNL     1       2.195   7.293  19.280  0.00  0.00    +0.000 A 
ATOM     25  C   UNL     1       2.043   6.643  20.506  0.00  0.00    +0.000 A 
ATOM     26  C   UNL     1       1.909   5.256  20.549  0.00  0.00    +0.000 A 
ENDBRANCH  18  21
ENDBRANCH  16  18
ENDBRANCH   3  16
TORSDOF 5
ENDMDL
MODEL 3
REMARK VINA RESULT:      -7.9      3.153      7.242
REMARK  Name = 
REMARK  5 active torsions:
REMARK  status: ('A' for Active; 'I' for Inactive)
REMARK    1  A    between atoms: C_2  and  C_14
REMARK    2  A    between atoms: N_3  and  N_4
REMARK    3  A    between atoms: N_4  and  S_5
REMARK    4  A    between atoms: S_5  and  C_8
REMARK    5  A    between atoms: C_18  and  C_19
REMARK                            x       y       z     vdW  Elec       q    Type
REMARK                         _______ _______ _______ _____ _____    ______ ____
ROOT
ATOM      1  O   UNL     1       5.829   4.205  19.325  0.00  0.00    +0.000 OA
ATOM      2  C   UNL     1       4.773   4.463  18.759  0.00  0.00    +0.000 C 
ATOM      3  N   UNL     1       4.564   4.273  17.406  0.00  0.00    +0.000 N 
ATOM      4  H   UNL     1       3.634   4.303  16.991  0.00  0.00    +0.000 HD
ENDROOT
BRANCH   2   5
ATOM      5  C   UNL     1       3.581   4.955  19.514  0.00  0.00    +0.000 A 
ATOM      6  C   UNL     1       2.854   4.062  20.309  0.00  0.00    +0.000 A 
ATOM      7  C   UNL     1       1.715   4.498  20.989  0.00  0.00    +0.000 A 
ATOM      8  C   UNL     1       1.299   5.830  20.884  0.00  0.00    +0.000 A 
ATOM      9  C   UNL     1       2.026   6.740  20.107  0.00  0.00    +0.000 A 
ATOM     10  C   UNL     1       3.171   6.294  19.431  0.00  0.00    +0.000 A 
BRANCH   9  11
ATOM     11  C   UNL     1       1.607   8.128  19.947  0.00  0.00    +0.000 A 
ATOM     12  C   UNL     1       1.631   8.822  18.752  0.00  0.00    +0.000 A 
ATOM     13  S   UNL     1       1.083  10.432  18.995  0.00  0.00    +0.000 S 
ATOM     14  C   UNL     1       0.841  10.076  20.653  0.00  0.00    +0.000 A 
ATOM     15  N   UNL     1       1.130   8.850  21.032  0.00  0.00    +0.000 NA
ENDBRANCH   9  11
ENDBRANCH   2   5
BRANCH   3  16
ATOM     16  N   UNL     1       5.623   3.718  16.577  0.00  0.00    +0.000 NA
ATOM     17  H   UNL     1       5.413   2.877  16.030  0.00  0.00    +0.000 HD
BRANCH  16  18
ATOM     18  S   UNL     1       6.777   4.823  16.021  0.00  0.00    +0.000 S 
ATOM     19  O   UNL     1       6.210   6.146  16.183  0.00  0.00    +0.000 OA
ATOM     20  O   UNL     1       8.038   4.484  16.649  0.00  0.00    +0.000 OA
BRANCH  18  21
ATOM     21  C   UNL     1       6.894   4.485  14.287  0.00  0.00    +0.000 A 
ATOM     22  C   UNL     1       6.015   3.569  13.700  0.00  0.00    +0.000 A 
ATOM     23  C   UNL     1       6.027   3.397  12.315  0.00  0.00    +0.000 A 
ATOM     24  C   UNL     1       6.903   4.144  11.525  0.00  0.00    +0.000 A 
ATOM     25  C   UNL     1       7.773   5.063  12.116  0.00  0.00    +0.000 A 
ATOM     26  C   UNL     1       7.768   5.239  13.499  0.00  0.00    +0.000 A 
ENDBRANCH  18  21
ENDBRANCH  16  18
ENDBRANCH   3  16
TORSDOF 5
ENDMDL
MODEL 4
REMARK VINA RESULT:      -7.8      3.680      7.216
REMARK  Name = 
REMARK  5 active torsions:
REMARK  status: ('A' for Active; 'I' for Inactive)
REMARK    1  A    between atoms: C_2  and  C_14
REMARK    2  A    between atoms: N_3  and  N_4
REMARK    3  A    between atoms: N_4  and  S_5
REMARK    4  A    between atoms: S_5  and  C_8
REMARK    5  A    between atoms: C_18  and  C_19
REMARK                            x       y       z     vdW  Elec       q    Type
REMARK                         _______ _______ _______ _____ _____    ______ ____
ROOT
ATOM      1  O   UNL     1       2.502   5.098  21.351  0.00  0.00    +0.000 OA
ATOM      2  C   UNL     1       2.264   5.409  20.189  0.00  0.00    +0.000 C 
ATOM      3  N   UNL     1       2.205   4.498  19.151  0.00  0.00    +0.000 N 
ATOM      4  H   UNL     1       1.816   4.738  18.240  0.00  0.00    +0.000 HD
ENDROOT
BRANCH   2   5
ATOM      5  C   UNL     1       1.951   6.818  19.805  0.00  0.00    +0.000 A 
ATOM      6  C   UNL     1       2.404   7.312  18.577  0.00  0.00    +0.000 A 
ATOM      7  C   UNL     1       2.154   8.640  18.222  0.00  0.00    +0.000 A 
ATOM      8  C   UNL     1       1.444   9.478  19.087  0.00  0.00    +0.000 A 
ATOM      9  C   UNL     1       0.968   8.993  20.312  0.00  0.00    +0.000 A 
ATOM     10  C   UNL     1       1.221   7.658  20.658  0.00  0.00    +0.000 A 
BRANCH   9  11
ATOM     11  C   UNL     1       0.251   9.845  21.254  0.00  0.00    +0.000 A 
ATOM     12  C   UNL     1      -0.017  11.185  21.054  0.00  0.00    +0.000 A 
ATOM     13  S   UNL     1      -0.857  11.827  22.407  0.00  0.00    +0.000 S 
ATOM     14  C   UNL     1      -0.815  10.279  23.140  0.00  0.00    +0.000 A 
ATOM     15  N   UNL     1      -0.232   9.325  22.447  0.00  0.00    +0.000 NA
ENDBRANCH   9  11
ENDBRANCH   2   5
BRANCH   3  16
ATOM     16  N   UNL     1       2.408   3.082  19.412  0.00  0.00    +0.000 NA
ATOM     17  H   UNL     1       1.587   2.468  19.392  0.00  0.00    +0.000 HD
BRANCH  16  18
ATOM     18  S   UNL     1       3.932   2.470  19.007  0.00  0.00    +0.000 S 
ATOM     19  O   UNL     1       4.637   2.232  20.250  0.00  0.00    +0.000 OA
ATOM     20  O   UNL     1       3.727   1.390  18.063  0.00  0.00    +0.000 OA
BRANCH  18  21
ATOM     21  C   UNL     1       4.726   3.814  18.174  0.00  0.00    +0.000 A 
ATOM     22  C   UNL     1       4.400   4.092  16.842  0.00  0.00    +0.000 A 
ATOM     23  C   UNL     1       4.935   5.226  16.228  0.00  0.00    +0.000 A 
ATOM     24  C   UNL     1       5.778   6.077  16.943  0.00  0.00    +0.000 A 
ATOM     25  C   UNL     1       6.093   5.800  18.275  0.00  0.00    +0.000 A 
ATOM     26  C   UNL     1       5.565   4.668  18.895  0.00  0.00    +0.000 A 
ENDBRANCH  18  21
ENDBRANCH  16  18
ENDBRANCH   3  16
TORSDOF 5
ENDMDL
MODEL 5
REMARK VINA RESULT:      -7.8      4.204      7.955
REMARK  Name = 
REMARK  5 active torsions:
REMARK  status: ('A' for Active; 'I' for Inactive)
REMARK    1  A    between atoms: C_2  and  C_14
REMARK    2  A    between atoms: N_3  and  N_4
REMARK    3  A    between atoms: N_4  and  S_5
REMARK    4  A    between atoms: S_5  and  C_8
REMARK    5  A    between atoms: C_18  and  C_19
REMARK                            x       y       z     vdW  Elec       q    Type
REMARK                         _______ _______ _______ _____ _____    ______ ____
ROOT
ATOM      1  O   UNL     1       1.943   5.964  20.692  0.00  0.00    +0.000 OA
ATOM      2  C   UNL     1       2.279   6.556  19.673  0.00  0.00    +0.000 C 
ATOM      3  N   UNL     1       3.024   5.978  18.662  0.00  0.00    +0.000 N 
ATOM      4  H   UNL     1       3.125   6.412  17.746  0.00  0.00    +0.000 HD
ENDROOT
BRANCH   2   5
ATOM      5  C   UNL     1       1.849   7.963  19.408  0.00  0.00    +0.000 A 
ATOM      6  C   UNL     1       2.192   8.569  18.195  0.00  0.00    +0.000 A 
ATOM      7  C   UNL     1       1.832   9.896  17.949  0.00  0.00    +0.000 A 
ATOM      8  C   UNL     1       1.121  10.621  18.911  0.00  0.00    +0.000 A 
ATOM      9  C   UNL     1       0.754  10.023  20.122  0.00  0.00    +0.000 A 
ATOM     10  C   UNL     1       1.117   8.689  20.358  0.00  0.00    +0.000 A 
BRANCH   9  11
ATOM     11  C   UNL     1       0.040  10.756  21.162  0.00  0.00    +0.000 A 
ATOM     12  C   UNL     1      -0.166  12.122  21.158  0.00  0.00    +0.000 A 
ATOM     13  S   UNL     1      -1.025  12.593  22.568  0.00  0.00    +0.000 S 
ATOM     14  C   UNL     1      -1.072  10.952  23.061  0.00  0.00    +0.000 A 
ATOM     15  N   UNL     1      -0.505  10.087  22.249  0.00  0.00    +0.000 NA
ENDBRANCH   9  11
ENDBRANCH   2   5
BRANCH   3  16
ATOM     16  N   UNL     1       3.431   4.586  18.764  0.00  0.00    +0.000 NA
ATOM     17  H   UNL     1       2.852   3.880  18.296  0.00  0.00    +0.000 HD
BRANCH  16  18
ATOM     18  S   UNL     1       5.089   4.317  18.970  0.00  0.00    +0.000 S 
ATOM     19  O   UNL     1       5.621   5.469  19.671  0.00  0.00    +0.000 OA
ATOM     20  O   UNL     1       5.246   2.987  19.522  0.00  0.00    +0.000 OA
BRANCH  18  21
ATOM     21  C   UNL     1       5.734   4.332  17.322  0.00  0.00    +0.000 A 
ATOM     22  C   UNL     1       4.874   4.120  16.240  0.00  0.00    +0.000 A 
ATOM     23  C   UNL     1       5.361   4.255  14.939  0.00  0.00    +0.000 A 
ATOM     24  C   UNL     1       6.694   4.610  14.725  0.00  0.00    +0.000 A 
ATOM     25  C   UNL     1       7.546   4.830  15.808  0.00  0.00    +0.000 A 
ATOM     26  C   UNL     1       7.068   4.694  17.111  0.00  0.00    +0.000 A 
ENDBRANCH  18  21
ENDBRANCH  16  18
ENDBRANCH   3  16
TORSDOF 5
ENDMDL
MODEL 6
REMARK VINA RESULT:      -7.8      3.721      7.232
REMARK  Name = 
REMARK  5 active torsions:
REMARK  status: ('A' for Active; 'I' for Inactive)
REMARK    1  A    between atoms: C_2  and  C_14
REMARK    2  A    between atoms: N_3  and  N_4
REMARK    3  A    between atoms: N_4  and  S_5
REMARK    4  A    between atoms: S_5  and  C_8
REMARK    5  A    between atoms: C_18  and  C_19
REMARK                            x       y       z     vdW  Elec       q    Type
REMARK                         _______ _______ _______ _____ _____    ______ ____
ROOT
ATOM      1  O   UNL     1       2.512   5.202  21.358  0.00  0.00    +0.000 OA
ATOM      2  C   UNL     1       2.276   5.511  20.195  0.00  0.00    +0.000 C 
ATOM      3  N   UNL     1       2.237   4.600  19.156  0.00  0.00    +0.000 N 
ATOM      4  H   UNL     1       1.850   4.835  18.243  0.00  0.00    +0.000 HD
ENDROOT
BRANCH   2   5
ATOM      5  C   UNL     1       1.945   6.916  19.811  0.00  0.00    +0.000 A 
ATOM      6  C   UNL     1       2.383   7.412  18.578  0.00  0.00    +0.000 A 
ATOM      7  C   UNL     1       2.116   8.735  18.221  0.00  0.00    +0.000 A 
ATOM      8  C   UNL     1       1.403   9.568  19.090  0.00  0.00    +0.000 A 
ATOM      9  C   UNL     1       0.942   9.081  20.320  0.00  0.00    +0.000 A 
ATOM     10  C   UNL     1       1.212   7.749  20.667  0.00  0.00    +0.000 A 
BRANCH   9  11
ATOM     11  C   UNL     1       0.223   9.926  21.266  0.00  0.00    +0.000 A 
ATOM     12  C   UNL     1      -0.011  11.277  21.090  0.00  0.00    +0.000 A 
ATOM     13  S   UNL     1      -0.867  11.907  22.439  0.00  0.00    +0.000 S 
ATOM     14  C   UNL     1      -0.876  10.342  23.137  0.00  0.00    +0.000 A 
ATOM     15  N   UNL     1      -0.298   9.392  22.436  0.00  0.00    +0.000 NA
ENDBRANCH   9  11
ENDBRANCH   2   5
BRANCH   3  16
ATOM     16  N   UNL     1       2.459   3.187  19.417  0.00  0.00    +0.000 NA
ATOM     17  H   UNL     1       1.639   2.573  19.467  0.00  0.00    +0.000 HD
BRANCH  16  18
ATOM     18  S   UNL     1       3.948   2.569  18.904  0.00  0.00    +0.000 S 
ATOM     19  O   UNL     1       4.729   2.300  20.095  0.00  0.00    +0.000 OA
ATOM     20  O   UNL     1       3.672   1.510  17.955  0.00  0.00    +0.000 OA
BRANCH  18  21
ATOM     21  C   UNL     1       4.702   3.921  18.048  0.00  0.00    +0.000 A 
ATOM     22  C   UNL     1       5.596   4.757  18.724  0.00  0.00    +0.000 A 
ATOM     23  C   UNL     1       6.282   5.745  18.015  0.00  0.00    +0.000 A 
ATOM     24  C   UNL     1       6.083   5.886  16.641  0.00  0.00    +0.000 A 
ATOM     25  C   UNL     1       5.196   5.043  15.969  0.00  0.00    +0.000 A 
ATOM     26  C   UNL     1       4.505   4.055  16.670  0.00  0.00    +0.000 A 
ENDBRANCH  18  21
ENDBRANCH  16  18
ENDBRANCH   3  16
TORSDOF 5
ENDMDL
MODEL 7
REMARK VINA RESULT:      -7.7      3.922      7.097
REMARK  Name = 
REMARK  5 active torsions:
REMARK  status: ('A' for Active; 'I' for Inactive)
REMARK    1  A    between atoms: C_2  and  C_14
REMARK    2  A    between atoms: N_3  and  N_4
REMARK    3  A    between atoms: N_4  and  S_5
REMARK    4  A    between atoms: S_5  and  C_8
REMARK    5  A    between atoms: C_18  and  C_19
REMARK                            x       y       z     vdW  Elec       q    Type
REMARK                         _______ _______ _______ _____ _____    ______ ____
ROOT
ATOM      1  O   UNL     1       3.743   5.832  19.999  0.00  0.00    +0.000 OA
ATOM      2  C   UNL     1       3.327   6.280  18.937  0.00  0.00    +0.000 C 
ATOM      3  N   UNL     1       3.496   5.645  17.720  0.00  0.00    +0.000 N 
ATOM      4  H   UNL     1       2.981   5.924  16.887  0.00  0.00    +0.000 HD
ENDROOT
BRANCH   2   5
ATOM      5  C   UNL     1       2.533   7.544  18.878  0.00  0.00    +0.000 A 
ATOM      6  C   UNL     1       2.544   8.309  17.706  0.00  0.00    +0.000 A 
ATOM      7  C   UNL     1       1.840   9.513  17.651  0.00  0.00    +0.000 A 
ATOM      8  C   UNL     1       1.115   9.957  18.761  0.00  0.00    +0.000 A 
ATOM      9  C   UNL     1       1.079   9.194  19.935  0.00  0.00    +0.000 A 
ATOM     10  C   UNL     1       1.786   7.984  19.981  0.00  0.00    +0.000 A 
BRANCH   9  11
ATOM     11  C   UNL     1       0.361   9.638  21.124  0.00  0.00    +0.000 A 
ATOM     12  C   UNL     1      -0.211  10.887  21.275  0.00  0.00    +0.000 A 
ATOM     13  S   UNL     1      -0.939  11.019  22.825  0.00  0.00    +0.000 S 
ATOM     14  C   UNL     1      -0.456   9.411  23.165  0.00  0.00    +0.000 A 
ATOM     15  N   UNL     1       0.195   8.787  22.208  0.00  0.00    +0.000 NA
ENDBRANCH   9  11
ENDBRANCH   2   5
BRANCH   3  16
ATOM     16  N   UNL     1       4.179   4.362  17.658  0.00  0.00    +0.000 NA
ATOM     17  H   UNL     1       5.098   4.285  18.105  0.00  0.00    +0.000 HD
BRANCH  16  18
ATOM     18  S   UNL     1       3.179   3.002  17.539  0.00  0.00    +0.000 S 
ATOM     19  O   UNL     1       2.107   3.342  16.626  0.00  0.00    +0.000 OA
ATOM     20  O   UNL     1       4.032   1.861  17.275  0.00  0.00    +0.000 OA
BRANCH  18  21
ATOM     21  C   UNL     1       2.488   2.835  19.159  0.00  0.00    +0.000 A 
ATOM     22  C   UNL     1       3.284   2.358  20.206  0.00  0.00    +0.000 A 
ATOM     23  C   UNL     1       2.774   2.345  21.505  0.00  0.00    +0.000 A 
ATOM     24  C   UNL     1       1.483   2.815  21.755  0.00  0.00    +0.000 A 
ATOM     25  C   UNL     1       0.696   3.298  20.708  0.00  0.00    +0.000 A 
ATOM     26  C   UNL     1       1.198   3.312  19.406  0.00  0.00    +0.000 A 
ENDBRANCH  18  21
ENDBRANCH  16  18
ENDBRANCH   3  16
TORSDOF 5
ENDMDL
MODEL 8
REMARK VINA RESULT:      -7.7      3.745      7.369
REMARK  Name = 
REMARK  5 active torsions:
REMARK  status: ('A' for Active; 'I' for Inactive)
REMARK    1  A    between atoms: C_2  and  C_14
REMARK    2  A    between atoms: N_3  and  N_4
REMARK    3  A    between atoms: N_4  and  S_5
REMARK    4  A    between atoms: S_5  and  C_8
REMARK    5  A    between atoms: C_18  and  C_19
REMARK                            x       y       z     vdW  Elec       q    Type
REMARK                         _______ _______ _______ _____ _____    ______ ____
ROOT
ATOM      1  O   UNL     1       4.170   6.185  19.704  0.00  0.00    +0.000 OA
ATOM      2  C   UNL     1       3.022   6.235  19.274  0.00  0.00    +0.000 C 
ATOM      3  N   UNL     1       2.279   5.116  18.949  0.00  0.00    +0.000 N 
ATOM      4  H   UNL     1       1.274   5.162  18.785  0.00  0.00    +0.000 HD
ENDROOT
BRANCH   2   5
ATOM      5  C   UNL     1       2.300   7.534  19.123  0.00  0.00    +0.000 A 
ATOM      6  C   UNL     1       2.368   8.220  17.906  0.00  0.00    +0.000 A 
ATOM      7  C   UNL     1       1.731   9.454  17.763  0.00  0.00    +0.000 A 
ATOM      8  C   UNL     1       1.017  10.006  18.831  0.00  0.00    +0.000 A 
ATOM      9  C   UNL     1       0.923   9.323  20.050  0.00  0.00    +0.000 A 
ATOM     10  C   UNL     1       1.563   8.082  20.183  0.00  0.00    +0.000 A 
BRANCH   9  11
ATOM     11  C   UNL     1       0.215   9.880  21.197  0.00  0.00    +0.000 A 
ATOM     12  C   UNL     1      -0.346  11.142  21.235  0.00  0.00    +0.000 A 
ATOM     13  S   UNL     1      -1.065  11.421  22.769  0.00  0.00    +0.000 S 
ATOM     14  C   UNL     1      -0.593   9.847  23.252  0.00  0.00    +0.000 A 
ATOM     15  N   UNL     1       0.048   9.132  22.354  0.00  0.00    +0.000 NA
ENDBRANCH   9  11
ENDBRANCH   2   5
BRANCH   3  16
ATOM     16  N   UNL     1       2.842   3.788  19.133  0.00  0.00    +0.000 NA
ATOM     17  H   UNL     1       2.562   3.259  19.966  0.00  0.00    +0.000 HD
BRANCH  16  18
ATOM     18  S   UNL     1       3.276   2.970  17.717  0.00  0.00    +0.000 S 
ATOM     19  O   UNL     1       3.678   1.634  18.106  0.00  0.00    +0.000 OA
ATOM     20  O   UNL     1       2.204   3.163  16.762  0.00  0.00    +0.000 OA
BRANCH  18  21
ATOM     21  C   UNL     1       4.712   3.831  17.146  0.00  0.00    +0.000 A 
ATOM     22  C   UNL     1       5.792   4.027  18.013  0.00  0.00    +0.000 A 
ATOM     23  C   UNL     1       6.970   4.595  17.524  0.00  0.00    +0.000 A 
ATOM     24  C   UNL     1       7.068   4.954  16.179  0.00  0.00    +0.000 A 
ATOM     25  C   UNL     1       5.990   4.748  15.316  0.00  0.00    +0.000 A 
ATOM     26  C   UNL     1       4.809   4.183  15.797  0.00  0.00    +0.000 A 
ENDBRANCH  18  21
ENDBRANCH  16  18
ENDBRANCH   3  16
TORSDOF 5
ENDMDL
MODEL 9
REMARK VINA RESULT:      -7.7      5.645      8.414
REMARK  Name = 
REMARK  5 active torsions:
REMARK  status: ('A' for Active; 'I' for Inactive)
REMARK    1  A    between atoms: C_2  and  C_14
REMARK    2  A    between atoms: N_3  and  N_4
REMARK    3  A    between atoms: N_4  and  S_5
REMARK    4  A    between atoms: S_5  and  C_8
REMARK    5  A    between atoms: C_18  and  C_19
REMARK                            x       y       z     vdW  Elec       q    Type
REMARK                         _______ _______ _______ _____ _____    ______ ____
ROOT
ATOM      1  O   UNL     1       1.426   9.110  22.356  0.00  0.00    +0.000 OA
ATOM      2  C   UNL     1       1.044   9.195  21.194  0.00  0.00    +0.000 C 
ATOM      3  N   UNL     1       1.425   8.315  20.198  0.00  0.00    +0.000 N 
ATOM      4  H   UNL     1       0.952   8.279  19.297  0.00  0.00    +0.000 HD
ENDROOT
BRANCH   2   5
ATOM      5  C   UNL     1       0.066  10.241  20.767  0.00  0.00    +0.000 A 
ATOM      6  C   UNL     1      -0.159  11.349  21.591  0.00  0.00    +0.000 A 
ATOM      7  C   UNL     1      -1.099  12.314  21.224  0.00  0.00    +0.000 A 
ATOM      8  C   UNL     1      -1.813  12.182  20.029  0.00  0.00    +0.000 A 
ATOM      9  C   UNL     1      -1.586  11.089  19.184  0.00  0.00    +0.000 A 
ATOM     10  C   UNL     1      -0.637  10.126  19.559  0.00  0.00    +0.000 A 
BRANCH   9  11
ATOM     11  C   UNL     1      -2.333  10.900  17.945  0.00  0.00    +0.000 A 
ATOM     12  C   UNL     1      -1.940  10.072  16.911  0.00  0.00    +0.000 A 
ATOM     13  S   UNL     1      -3.079  10.151  15.628  0.00  0.00    +0.000 S 
ATOM     14  C   UNL     1      -4.007  11.257  16.550  0.00  0.00    +0.000 A 
ATOM     15  N   UNL     1      -3.536  11.561  17.739  0.00  0.00    +0.000 NA
ENDBRANCH   9  11
ENDBRANCH   2   5
BRANCH   3  16
ATOM     16  N   UNL     1       2.308   7.203  20.508  0.00  0.00    +0.000 NA
ATOM     17  H   UNL     1       2.207   6.751  21.423  0.00  0.00    +0.000 HD
BRANCH  16  18
ATOM     18  S   UNL     1       2.863   6.312  19.181  0.00  0.00    +0.000 S 
ATOM     19  O   UNL     1       2.388   6.986  17.990  0.00  0.00    +0.000 OA
ATOM     20  O   UNL     1       4.280   6.082  19.377  0.00  0.00    +0.000 OA
BRANCH  18  21
ATOM     21  C   UNL     1       2.010   4.767  19.314  0.00  0.00    +0.000 A 
ATOM     22  C   UNL     1       1.946   3.914  18.208  0.00  0.00    +0.000 A 
ATOM     23  C   UNL     1       1.381   2.645  18.351  0.00  0.00    +0.000 A 
ATOM     24  C   UNL     1       0.897   2.231  19.593  0.00  0.00    +0.000 A 
ATOM     25  C   UNL     1       0.972   3.083  20.697  0.00  0.00    +0.000 A 
ATOM     26  C   UNL     1       1.532   4.353  20.561  0.00  0.00    +0.000 A 
ENDBRANCH  18  21
ENDBRANCH  16  18
ENDBRANCH   3  16
TORSDOF 5
ENDMDL
