MODEL 1
REMARK VINA RESULT:      -8.8      0.000      0.000
REMARK  Name = 
REMARK  7 active torsions:
REMARK  status: ('A' for Active; 'I' for Inactive)
REMARK    1  A    between atoms: C_1  and  O_2
REMARK    2  A    between atoms: O_2  and  N_3
REMARK    3  A    between atoms: N_3  and  C_4
REMARK    4  A    between atoms: C_5  and  C_7
REMARK    5  A    between atoms: C_11  and  C_12
REMARK    6  A    between atoms: C_15  and  C_16
REMARK    7  A    between atoms: C_16  and  C_17
REMARK                            x       y       z     vdW  Elec       q    Type
REMARK                         _______ _______ _______ _____ _____    ______ ____
ROOT
ATOM      1  C   UNL     1       1.023  10.159  19.866  0.00  0.00    +0.000 C 
ATOM      2  C   UNL     1       0.875  10.108  21.380  0.00  0.00    +0.000 C 
ATOM      3  S   UNL     1       0.891   8.343  21.809  0.00  0.00    +0.000 S 
ATOM      4  C   UNL     1       1.529   7.844  20.274  0.00  0.00    +0.000 A 
ATOM      5  C   UNL     1       1.950   6.601  19.939  0.00  0.00    +0.000 A 
ATOM      6  C   UNL     1       2.614   6.451  18.614  0.00  0.00    +0.000 A 
ATOM      7  C   UNL     1       2.648   7.494  17.758  0.00  0.00    +0.000 A 
ATOM      8  C   UNL     1       2.113   8.820  18.131  0.00  0.00    +0.000 A 
ATOM      9  O   UNL     1       2.187   9.762  17.348  0.00  0.00    +0.000 OA
ATOM     10  N   UNL     1       1.592   8.901  19.398  0.00  0.00    +0.000 N 
ENDROOT
BRANCH   1  13
ATOM     11  N   UNL     1      -0.550  11.711  18.738  0.00  0.00    +0.000 N 
ATOM     12  C   UNL     1      -1.883  12.228  18.498  0.00  0.00    +0.000 C 
ATOM     13  C   UNL     1      -0.352  10.427  19.214  0.00  0.00    +0.000 C 
ATOM     14  O   UNL     1      -1.230   9.562  19.145  0.00  0.00    +0.000 OA
BRANCH  11  16
ATOM     15  C   UNL     1      -0.055  13.950  18.575  0.00  0.00    +0.000 C 
ATOM     16  O   UNL     1       0.357  12.709  19.161  0.00  0.00    +0.000 OA
ENDBRANCH  11  16
ENDBRANCH   1  13
BRANCH   5  17
ATOM     17  C   UNL     1       1.878   5.400  20.811  0.00  0.00    +0.000 C 
ATOM     18  C   UNL     1       0.874   4.294  20.546  0.00  0.00    +0.000 C 
ATOM     19  C   UNL     1       2.320   4.052  20.275  0.00  0.00    +0.000 C 
ENDBRANCH   5  17
BRANCH   6  20
ATOM     20  C   UNL     1       3.293   5.154  18.190  0.00  0.00    +0.000 C 
BRANCH  20  21
ATOM     21  C   UNL     1       4.823   5.153  18.107  0.00  0.00    +0.000 A 
ATOM     22  C   UNL     1       5.612   5.417  19.242  0.00  0.00    +0.000 A 
ATOM     23  C   UNL     1       6.999   5.505  19.155  0.00  0.00    +0.000 A 
ATOM     24  C   UNL     1       7.633   5.318  17.933  0.00  0.00    +0.000 A 
ATOM     25  C   UNL     1       6.895   5.026  16.781  0.00  0.00    +0.000 A 
ATOM     26  C   UNL     1       7.563   4.829  15.563  0.00  0.00    +0.000 A 
ATOM     27  C   UNL     1       6.866   4.529  14.400  0.00  0.00    +0.000 A 
ATOM     28  C   UNL     1       5.481   4.426  14.438  0.00  0.00    +0.000 A 
ATOM     29  C   UNL     1       4.799   4.630  15.643  0.00  0.00    +0.000 A 
ATOM     30  C   UNL     1       5.477   4.934  16.850  0.00  0.00    +0.000 A 
ENDBRANCH  20  21
ENDBRANCH   6  20
TORSDOF 5
ENDMDL
MODEL 2
REMARK VINA RESULT:      -8.0      2.473      8.434
REMARK  Name = 
REMARK  7 active torsions:
REMARK  status: ('A' for Active; 'I' for Inactive)
REMARK    1  A    between atoms: C_1  and  O_2
REMARK    2  A    between atoms: O_2  and  N_3
REMARK    3  A    between atoms: N_3  and  C_4
REMARK    4  A    between atoms: C_5  and  C_7
REMARK    5  A    between atoms: C_11  and  C_12
REMARK    6  A    between atoms: C_15  and  C_16
REMARK    7  A    between atoms: C_16  and  C_17
REMARK                            x       y       z     vdW  Elec       q    Type
REMARK                         _______ _______ _______ _____ _____    ______ ____
ROOT
ATOM      1  C   UNL     1       3.386   5.415  18.362  0.00  0.00    +0.000 C 
ATOM      2  C   UNL     1       2.744   4.447  19.345  0.00  0.00    +0.000 C 
ATOM      3  S   UNL     1       1.980   5.488  20.623  0.00  0.00    +0.000 S 
ATOM      4  C   UNL     1       2.065   6.938  19.673  0.00  0.00    +0.000 A 
ATOM      5  C   UNL     1       1.507   8.136  19.975  0.00  0.00    +0.000 A 
ATOM      6  C   UNL     1       1.574   9.190  18.925  0.00  0.00    +0.000 A 
ATOM      7  C   UNL     1       2.287   8.974  17.800  0.00  0.00    +0.000 A 
ATOM      8  C   UNL     1       2.944   7.677  17.536  0.00  0.00    +0.000 A 
ATOM      9  O   UNL     1       3.558   7.493  16.490  0.00  0.00    +0.000 OA
ATOM     10  N   UNL     1       2.768   6.728  18.511  0.00  0.00    +0.000 N 
ENDROOT
BRANCH   1  13
ATOM     11  N   UNL     1       5.708   5.174  17.525  0.00  0.00    +0.000 N 
ATOM     12  C   UNL     1       7.095   4.785  17.698  0.00  0.00    +0.000 C 
ATOM     13  C   UNL     1       4.908   5.483  18.612  0.00  0.00    +0.000 C 
ATOM     14  O   UNL     1       5.385   5.766  19.714  0.00  0.00    +0.000 OA
BRANCH  11  16
ATOM     15  C   UNL     1       6.129   3.964  15.617  0.00  0.00    +0.000 C 
ATOM     16  O   UNL     1       5.094   4.538  16.424  0.00  0.00    +0.000 OA
ENDBRANCH  11  16
ENDBRANCH   1  13
BRANCH   5  17
ATOM     17  C   UNL     1       0.769   8.455  21.224  0.00  0.00    +0.000 C 
ATOM     18  C   UNL     1       1.503   8.784  22.509  0.00  0.00    +0.000 C 
ATOM     19  C   UNL     1       0.794   9.868  21.773  0.00  0.00    +0.000 C 
ENDBRANCH   5  17
BRANCH   6  20
ATOM     20  C   UNL     1       0.834  10.516  19.060  0.00  0.00    +0.000 C 
BRANCH  20  21
ATOM     21  C   UNL     1      -0.628  10.558  18.602  0.00  0.00    +0.000 A 
ATOM     22  C   UNL     1      -1.065   9.801  17.500  0.00  0.00    +0.000 A 
ATOM     23  C   UNL     1      -2.371   9.902  17.024  0.00  0.00    +0.000 A 
ATOM     24  C   UNL     1      -3.274  10.753  17.647  0.00  0.00    +0.000 A 
ATOM     25  C   UNL     1      -2.895  11.506  18.764  0.00  0.00    +0.000 A 
ATOM     26  C   UNL     1      -3.833  12.349  19.381  0.00  0.00    +0.000 A 
ATOM     27  C   UNL     1      -3.497  13.105  20.496  0.00  0.00    +0.000 A 
ATOM     28  C   UNL     1      -2.208  13.034  21.009  0.00  0.00    +0.000 A 
ATOM     29  C   UNL     1      -1.258  12.207  20.399  0.00  0.00    +0.000 A 
ATOM     30  C   UNL     1      -1.565  11.418  19.263  0.00  0.00    +0.000 A 
ENDBRANCH  20  21
ENDBRANCH   6  20
TORSDOF 5
ENDMDL
MODEL 3
REMARK VINA RESULT:      -7.6      3.007      8.052
REMARK  Name = 
REMARK  7 active torsions:
REMARK  status: ('A' for Active; 'I' for Inactive)
REMARK    1  A    between atoms: C_1  and  O_2
REMARK    2  A    between atoms: O_2  and  N_3
REMARK    3  A    between atoms: N_3  and  C_4
REMARK    4  A    between atoms: C_5  and  C_7
REMARK    5  A    between atoms: C_11  and  C_12
REMARK    6  A    between atoms: C_15  and  C_16
REMARK    7  A    between atoms: C_16  and  C_17
REMARK                            x       y       z     vdW  Elec       q    Type
REMARK                         _______ _______ _______ _____ _____    ______ ____
ROOT
ATOM      1  C   UNL     1       4.230   4.452  16.815  0.00  0.00    +0.000 C 
ATOM      2  C   UNL     1       3.847   2.996  17.032  0.00  0.00    +0.000 C 
ATOM      3  S   UNL     1       3.256   2.900  18.747  0.00  0.00    +0.000 S 
ATOM      4  C   UNL     1       3.064   4.616  18.912  0.00  0.00    +0.000 A 
ATOM      5  C   UNL     1       2.486   5.270  19.949  0.00  0.00    +0.000 A 
ATOM      6  C   UNL     1       2.287   6.737  19.791  0.00  0.00    +0.000 A 
ATOM      7  C   UNL     1       2.797   7.372  18.715  0.00  0.00    +0.000 A 
ATOM      8  C   UNL     1       3.486   6.636  17.635  0.00  0.00    +0.000 A 
ATOM      9  O   UNL     1       3.912   7.232  16.651  0.00  0.00    +0.000 OA
ATOM     10  N   UNL     1       3.558   5.277  17.812  0.00  0.00    +0.000 N 
ENDROOT
BRANCH   1  13
ATOM     11  N   UNL     1       6.386   5.063  15.752  0.00  0.00    +0.000 N 
ATOM     12  C   UNL     1       7.806   4.863  15.534  0.00  0.00    +0.000 C 
ATOM     13  C   UNL     1       5.764   4.609  16.902  0.00  0.00    +0.000 C 
ATOM     14  O   UNL     1       6.401   4.324  17.919  0.00  0.00    +0.000 OA
BRANCH  11  16
ATOM     15  C   UNL     1       6.134   3.954  13.754  0.00  0.00    +0.000 C 
ATOM     16  O   UNL     1       5.639   5.035  14.553  0.00  0.00    +0.000 OA
ENDBRANCH  11  16
ENDBRANCH   1  13
BRANCH   5  17
ATOM     17  C   UNL     1       1.966   4.635  21.188  0.00  0.00    +0.000 C 
ATOM     18  C   UNL     1       1.114   3.382  21.132  0.00  0.00    +0.000 C 
ATOM     19  C   UNL     1       2.514   3.294  21.634  0.00  0.00    +0.000 C 
ENDBRANCH   5  17
BRANCH   6  20
ATOM     20  C   UNL     1       1.492   7.560  20.798  0.00  0.00    +0.000 C 
BRANCH  20  21
ATOM     21  C   UNL     1       0.916   8.897  20.318  0.00  0.00    +0.000 A 
ATOM     22  C   UNL     1       1.162   9.367  19.015  0.00  0.00    +0.000 A 
ATOM     23  C   UNL     1       0.717  10.621  18.601  0.00  0.00    +0.000 A 
ATOM     24  C   UNL     1       0.004  11.430  19.478  0.00  0.00    +0.000 A 
ATOM     25  C   UNL     1      -0.290  10.995  20.775  0.00  0.00    +0.000 A 
ATOM     26  C   UNL     1      -1.023  11.828  21.634  0.00  0.00    +0.000 A 
ATOM     27  C   UNL     1      -1.342  11.429  22.925  0.00  0.00    +0.000 A 
ATOM     28  C   UNL     1      -0.923  10.185  23.381  0.00  0.00    +0.000 A 
ATOM     29  C   UNL     1      -0.182   9.347  22.539  0.00  0.00    +0.000 A 
ATOM     30  C   UNL     1       0.158   9.719  21.215  0.00  0.00    +0.000 A 
ENDBRANCH  20  21
ENDBRANCH   6  20
TORSDOF 5
ENDMDL
MODEL 4
REMARK VINA RESULT:      -7.6      0.569      2.023
REMARK  Name = 
REMARK  7 active torsions:
REMARK  status: ('A' for Active; 'I' for Inactive)
REMARK    1  A    between atoms: C_1  and  O_2
REMARK    2  A    between atoms: O_2  and  N_3
REMARK    3  A    between atoms: N_3  and  C_4
REMARK    4  A    between atoms: C_5  and  C_7
REMARK    5  A    between atoms: C_11  and  C_12
REMARK    6  A    between atoms: C_15  and  C_16
REMARK    7  A    between atoms: C_16  and  C_17
REMARK                            x       y       z     vdW  Elec       q    Type
REMARK                         _______ _______ _______ _____ _____    ______ ____
ROOT
ATOM      1  C   UNL     1       1.319   9.904  19.777  0.00  0.00    +0.000 C 
ATOM      2  C   UNL     1       1.339   9.863  21.298  0.00  0.00    +0.000 C 
ATOM      3  S   UNL     1       1.279   8.101  21.737  0.00  0.00    +0.000 S 
ATOM      4  C   UNL     1       1.704   7.559  20.144  0.00  0.00    +0.000 A 
ATOM      5  C   UNL     1       1.996   6.288  19.774  0.00  0.00    +0.000 A 
ATOM      6  C   UNL     1       2.495   6.092  18.384  0.00  0.00    +0.000 A 
ATOM      7  C   UNL     1       2.506   7.130  17.521  0.00  0.00    +0.000 A 
ATOM      8  C   UNL     1       2.111   8.490  17.941  0.00  0.00    +0.000 A 
ATOM      9  O   UNL     1       2.162   9.425  17.147  0.00  0.00    +0.000 OA
ATOM     10  N   UNL     1       1.743   8.608  19.258  0.00  0.00    +0.000 N 
ENDROOT
BRANCH   1  13
ATOM     11  N   UNL     1      -0.195  11.440  18.552  0.00  0.00    +0.000 N 
ATOM     12  C   UNL     1      -1.464  12.123  18.389  0.00  0.00    +0.000 C 
ATOM     13  C   UNL     1      -0.097  10.267  19.281  0.00  0.00    +0.000 C 
ATOM     14  O   UNL     1      -1.086   9.576  19.539  0.00  0.00    +0.000 OA
BRANCH  11  16
ATOM     15  C   UNL     1       0.383  13.663  18.640  0.00  0.00    +0.000 C 
ATOM     16  O   UNL     1       0.903  12.329  18.599  0.00  0.00    +0.000 OA
ENDBRANCH  11  16
ENDBRANCH   1  13
BRANCH   5  17
ATOM     17  C   UNL     1       1.939   5.095  20.658  0.00  0.00    +0.000 C 
ATOM     18  C   UNL     1       0.806   4.092  20.552  0.00  0.00    +0.000 C 
ATOM     19  C   UNL     1       2.167   3.715  20.075  0.00  0.00    +0.000 C 
ENDBRANCH   5  17
BRANCH   6  20
ATOM     20  C   UNL     1       3.029   4.750  17.896  0.00  0.00    +0.000 C 
BRANCH  20  21
ATOM     21  C   UNL     1       4.355   4.756  17.128  0.00  0.00    +0.000 A 
ATOM     22  C   UNL     1       4.396   4.477  15.749  0.00  0.00    +0.000 A 
ATOM     23  C   UNL     1       5.606   4.393  15.063  0.00  0.00    +0.000 A 
ATOM     24  C   UNL     1       6.803   4.599  15.737  0.00  0.00    +0.000 A 
ATOM     25  C   UNL     1       6.813   4.907  17.102  0.00  0.00    +0.000 A 
ATOM     26  C   UNL     1       8.037   5.123  17.753  0.00  0.00    +0.000 A 
ATOM     27  C   UNL     1       8.088   5.439  19.104  0.00  0.00    +0.000 A 
ATOM     28  C   UNL     1       6.906   5.538  19.829  0.00  0.00    +0.000 A 
ATOM     29  C   UNL     1       5.678   5.315  19.196  0.00  0.00    +0.000 A 
ATOM     30  C   UNL     1       5.587   4.995  17.819  0.00  0.00    +0.000 A 
ENDBRANCH  20  21
ENDBRANCH   6  20
TORSDOF 5
ENDMDL
MODEL 5
REMARK VINA RESULT:      -7.5      2.667      4.601
REMARK  Name = 
REMARK  7 active torsions:
REMARK  status: ('A' for Active; 'I' for Inactive)
REMARK    1  A    between atoms: C_1  and  O_2
REMARK    2  A    between atoms: O_2  and  N_3
REMARK    3  A    between atoms: N_3  and  C_4
REMARK    4  A    between atoms: C_5  and  C_7
REMARK    5  A    between atoms: C_11  and  C_12
REMARK    6  A    between atoms: C_15  and  C_16
REMARK    7  A    between atoms: C_16  and  C_17
REMARK                            x       y       z     vdW  Elec       q    Type
REMARK                         _______ _______ _______ _____ _____    ______ ____
ROOT
ATOM      1  C   UNL     1      -1.277  11.050  21.543  0.00  0.00    +0.000 C 
ATOM      2  C   UNL     1      -2.013  11.443  20.271  0.00  0.00    +0.000 C 
ATOM      3  S   UNL     1      -0.907  10.978  18.906  0.00  0.00    +0.000 S 
ATOM      4  C   UNL     1       0.091   9.958  19.894  0.00  0.00    +0.000 A 
ATOM      5  C   UNL     1       1.076   9.132  19.465  0.00  0.00    +0.000 A 
ATOM      6  C   UNL     1       1.684   8.229  20.481  0.00  0.00    +0.000 A 
ATOM      7  C   UNL     1       1.345   8.355  21.781  0.00  0.00    +0.000 A 
ATOM      8  C   UNL     1       0.315   9.319  22.223  0.00  0.00    +0.000 A 
ATOM      9  O   UNL     1      -0.001   9.391  23.407  0.00  0.00    +0.000 OA
ATOM     10  N   UNL     1      -0.258  10.057  21.219  0.00  0.00    +0.000 N 
ENDROOT
BRANCH   1  13
ATOM     11  N   UNL     1      -1.405  12.908  23.181  0.00  0.00    +0.000 N 
ATOM     12  C   UNL     1      -1.167  14.284  23.574  0.00  0.00    +0.000 C 
ATOM     13  C   UNL     1      -0.648  12.302  22.193  0.00  0.00    +0.000 C 
ATOM     14  O   UNL     1       0.444  12.753  21.838  0.00  0.00    +0.000 OA
BRANCH  11  16
ATOM     15  C   UNL     1      -3.407  13.462  24.166  0.00  0.00    +0.000 C 
ATOM     16  O   UNL     1      -2.765  12.537  23.280  0.00  0.00    +0.000 OA
ENDBRANCH  11  16
ENDBRANCH   1  13
BRANCH   5  17
ATOM     17  C   UNL     1       1.541   8.997  18.060  0.00  0.00    +0.000 C 
ATOM     18  C   UNL     1       2.459  10.028  17.433  0.00  0.00    +0.000 C 
ATOM     19  C   UNL     1       2.996   8.680  17.775  0.00  0.00    +0.000 C 
ENDBRANCH   5  17
BRANCH   6  20
ATOM     20  C   UNL     1       2.670   7.129  20.103  0.00  0.00    +0.000 C 
BRANCH  20  21
ATOM     21  C   UNL     1       2.098   5.738  19.811  0.00  0.00    +0.000 A 
ATOM     22  C   UNL     1       1.060   5.202  20.594  0.00  0.00    +0.000 A 
ATOM     23  C   UNL     1       0.595   3.904  20.391  0.00  0.00    +0.000 A 
ATOM     24  C   UNL     1       1.150   3.116  19.390  0.00  0.00    +0.000 A 
ATOM     25  C   UNL     1       2.165   3.614  18.567  0.00  0.00    +0.000 A 
ATOM     26  C   UNL     1       2.698   2.799  17.555  0.00  0.00    +0.000 A 
ATOM     27  C   UNL     1       3.700   3.261  16.713  0.00  0.00    +0.000 A 
ATOM     28  C   UNL     1       4.192   4.550  16.875  0.00  0.00    +0.000 A 
ATOM     29  C   UNL     1       3.679   5.371  17.885  0.00  0.00    +0.000 A 
ATOM     30  C   UNL     1       2.653   4.937  18.761  0.00  0.00    +0.000 A 
ENDBRANCH  20  21
ENDBRANCH   6  20
TORSDOF 5
ENDMDL
MODEL 6
REMARK VINA RESULT:      -7.0      5.045      8.135
REMARK  Name = 
REMARK  7 active torsions:
REMARK  status: ('A' for Active; 'I' for Inactive)
REMARK    1  A    between atoms: C_1  and  O_2
REMARK    2  A    between atoms: O_2  and  N_3
REMARK    3  A    between atoms: N_3  and  C_4
REMARK    4  A    between atoms: C_5  and  C_7
REMARK    5  A    between atoms: C_11  and  C_12
REMARK    6  A    between atoms: C_15  and  C_16
REMARK    7  A    between atoms: C_16  and  C_17
REMARK                            x       y       z     vdW  Elec       q    Type
REMARK                         _______ _______ _______ _____ _____    ______ ____
ROOT
ATOM      1  C   UNL     1      -5.709  12.607  20.487  0.00  0.00    +0.000 C 
ATOM      2  C   UNL     1      -6.470  11.525  19.735  0.00  0.00    +0.000 C 
ATOM      3  S   UNL     1      -5.453  11.137  18.281  0.00  0.00    +0.000 S 
ATOM      4  C   UNL     1      -4.033  11.912  18.908  0.00  0.00    +0.000 A 
ATOM      5  C   UNL     1      -2.788  11.874  18.374  0.00  0.00    +0.000 A 
ATOM      6  C   UNL     1      -1.693  12.480  19.181  0.00  0.00    +0.000 A 
ATOM      7  C   UNL     1      -1.985  13.148  20.316  0.00  0.00    +0.000 A 
ATOM      8  C   UNL     1      -3.367  13.231  20.833  0.00  0.00    +0.000 A 
ATOM      9  O   UNL     1      -3.602  13.816  21.885  0.00  0.00    +0.000 OA
ATOM     10  N   UNL     1      -4.309  12.579  20.078  0.00  0.00    +0.000 N 
ENDROOT
BRANCH   1  13
ATOM     11  N   UNL     1      -6.855  14.647  21.309  0.00  0.00    +0.000 N 
ATOM     12  C   UNL     1      -7.831  15.710  21.166  0.00  0.00    +0.000 C 
ATOM     13  C   UNL     1      -6.344  13.986  20.205  0.00  0.00    +0.000 C 
ATOM     14  O   UNL     1      -6.420  14.460  19.069  0.00  0.00    +0.000 OA
BRANCH  11  16
ATOM     15  C   UNL     1      -6.855  14.781  23.604  0.00  0.00    +0.000 C 
ATOM     16  O   UNL     1      -7.035  13.896  22.493  0.00  0.00    +0.000 OA
ENDBRANCH  11  16
ENDBRANCH   1  13
BRANCH   5  17
ATOM     17  C   UNL     1      -2.416  11.213  17.096  0.00  0.00    +0.000 C 
ATOM     18  C   UNL     1      -2.201   9.713  17.020  0.00  0.00    +0.000 C 
ATOM     19  C   UNL     1      -3.414  10.313  16.395  0.00  0.00    +0.000 C 
ENDBRANCH   5  17
BRANCH   6  20
ATOM     20  C   UNL     1      -0.226  12.347  18.786  0.00  0.00    +0.000 C 
BRANCH  20  21
ATOM     21  C   UNL     1       0.468  11.014  19.084  0.00  0.00    +0.000 A 
ATOM     22  C   UNL     1       1.177  10.325  18.083  0.00  0.00    +0.000 A 
ATOM     23  C   UNL     1       1.734   9.071  18.323  0.00  0.00    +0.000 A 
ATOM     24  C   UNL     1       1.608   8.482  19.575  0.00  0.00    +0.000 A 
ATOM     25  C   UNL     1       0.937   9.141  20.612  0.00  0.00    +0.000 A 
ATOM     26  C   UNL     1       0.837   8.527  21.870  0.00  0.00    +0.000 A 
ATOM     27  C   UNL     1       0.186   9.151  22.925  0.00  0.00    +0.000 A 
ATOM     28  C   UNL     1      -0.383  10.405  22.734  0.00  0.00    +0.000 A 
ATOM     29  C   UNL     1      -0.300  11.026  21.482  0.00  0.00    +0.000 A 
ATOM     30  C   UNL     1       0.359  10.421  20.384  0.00  0.00    +0.000 A 
ENDBRANCH  20  21
ENDBRANCH   6  20
TORSDOF 5
ENDMDL
MODEL 7
REMARK VINA RESULT:      -6.9      3.015      5.732
REMARK  Name = 
REMARK  7 active torsions:
REMARK  status: ('A' for Active; 'I' for Inactive)
REMARK    1  A    between atoms: C_1  and  O_2
REMARK    2  A    between atoms: O_2  and  N_3
REMARK    3  A    between atoms: N_3  and  C_4
REMARK    4  A    between atoms: C_5  and  C_7
REMARK    5  A    between atoms: C_11  and  C_12
REMARK    6  A    between atoms: C_15  and  C_16
REMARK    7  A    between atoms: C_16  and  C_17
REMARK                            x       y       z     vdW  Elec       q    Type
REMARK                         _______ _______ _______ _____ _____    ______ ____
ROOT
ATOM      1  C   UNL     1       0.351  15.083  20.481  0.00  0.00    +0.000 C 
ATOM      2  C   UNL     1      -0.992  14.991  21.190  0.00  0.00    +0.000 C 
ATOM      3  S   UNL     1      -1.858  13.598  20.409  0.00  0.00    +0.000 S 
ATOM      4  C   UNL     1      -0.427  12.959  19.666  0.00  0.00    +0.000 A 
ATOM      5  C   UNL     1      -0.313  11.776  19.014  0.00  0.00    +0.000 A 
ATOM      6  C   UNL     1       1.059  11.366  18.603  0.00  0.00    +0.000 A 
ATOM      7  C   UNL     1       2.092  12.219  18.761  0.00  0.00    +0.000 A 
ATOM      8  C   UNL     1       1.917  13.534  19.412  0.00  0.00    +0.000 A 
ATOM      9  O   UNL     1       2.878  14.279  19.575  0.00  0.00    +0.000 OA
ATOM     10  N   UNL     1       0.641  13.807  19.838  0.00  0.00    +0.000 N 
ENDROOT
BRANCH   1  13
ATOM     11  N   UNL     1       1.178  17.290  19.708  0.00  0.00    +0.000 N 
ATOM     12  C   UNL     1       0.972  18.591  19.101  0.00  0.00    +0.000 C 
ATOM     13  C   UNL     1       0.322  16.233  19.451  0.00  0.00    +0.000 C 
ATOM     14  O   UNL     1      -0.434  16.228  18.475  0.00  0.00    +0.000 OA
BRANCH  11  16
ATOM     15  C   UNL     1       1.223  18.549  21.631  0.00  0.00    +0.000 C 
ATOM     16  O   UNL     1       1.742  17.372  21.001  0.00  0.00    +0.000 OA
ENDBRANCH  11  16
ENDBRANCH   1  13
BRANCH   5  17
ATOM     17  C   UNL     1      -1.423  10.824  18.750  0.00  0.00    +0.000 C 
ATOM     18  C   UNL     1      -2.582  11.199  17.847  0.00  0.00    +0.000 C 
ATOM     19  C   UNL     1      -1.575  10.207  17.374  0.00  0.00    +0.000 C 
ENDBRANCH   5  17
BRANCH   6  20
ATOM     20  C   UNL     1       1.353   9.985  18.027  0.00  0.00    +0.000 C 
BRANCH  20  21
ATOM     21  C   UNL     1       1.518   8.827  19.018  0.00  0.00    +0.000 A 
ATOM     22  C   UNL     1       0.842   8.828  20.252  0.00  0.00    +0.000 A 
ATOM     23  C   UNL     1       1.055   7.824  21.195  0.00  0.00    +0.000 A 
ATOM     24  C   UNL     1       1.940   6.788  20.919  0.00  0.00    +0.000 A 
ATOM     25  C   UNL     1       2.614   6.728  19.694  0.00  0.00    +0.000 A 
ATOM     26  C   UNL     1       3.491   5.663  19.439  0.00  0.00    +0.000 A 
ATOM     27  C   UNL     1       4.172   5.565  18.233  0.00  0.00    +0.000 A 
ATOM     28  C   UNL     1       3.988   6.541  17.261  0.00  0.00    +0.000 A 
ATOM     29  C   UNL     1       3.124   7.615  17.505  0.00  0.00    +0.000 A 
ATOM     30  C   UNL     1       2.410   7.746  18.721  0.00  0.00    +0.000 A 
ENDBRANCH  20  21
ENDBRANCH   6  20
TORSDOF 5
ENDMDL
MODEL 8
REMARK VINA RESULT:      -6.9      8.472     10.084
REMARK  Name = 
REMARK  7 active torsions:
REMARK  status: ('A' for Active; 'I' for Inactive)
REMARK    1  A    between atoms: C_1  and  O_2
REMARK    2  A    between atoms: O_2  and  N_3
REMARK    3  A    between atoms: N_3  and  C_4
REMARK    4  A    between atoms: C_5  and  C_7
REMARK    5  A    between atoms: C_11  and  C_12
REMARK    6  A    between atoms: C_15  and  C_16
REMARK    7  A    between atoms: C_16  and  C_17
REMARK                            x       y       z     vdW  Elec       q    Type
REMARK                         _______ _______ _______ _____ _____    ______ ____
ROOT
ATOM      1  C   UNL     1       5.569  13.655  24.881  0.00  0.00    +0.000 C 
ATOM      2  C   UNL     1       4.988  14.971  24.389  0.00  0.00    +0.000 C 
ATOM      3  S   UNL     1       6.360  15.829  23.563  0.00  0.00    +0.000 S 
ATOM      4  C   UNL     1       7.349  14.408  23.450  0.00  0.00    +0.000 A 
ATOM      5  C   UNL     1       8.517  14.288  22.774  0.00  0.00    +0.000 A 
ATOM      6  C   UNL     1       9.103  12.921  22.684  0.00  0.00    +0.000 A 
ATOM      7  C   UNL     1       8.545  11.904  23.373  0.00  0.00    +0.000 A 
ATOM      8  C   UNL     1       7.307  12.089  24.160  0.00  0.00    +0.000 A 
ATOM      9  O   UNL     1       6.800  11.140  24.751  0.00  0.00    +0.000 OA
ATOM     10  N   UNL     1       6.782  13.355  24.128  0.00  0.00    +0.000 N 
ENDROOT
BRANCH   1  13
ATOM     11  N   UNL     1       5.284  12.758  27.177  0.00  0.00    +0.000 N 
ATOM     12  C   UNL     1       5.109  12.936  28.605  0.00  0.00    +0.000 C 
ATOM     13  C   UNL     1       5.862  13.745  26.395  0.00  0.00    +0.000 C 
ATOM     14  O   UNL     1       6.541  14.651  26.885  0.00  0.00    +0.000 OA
BRANCH  11  16
ATOM     15  C   UNL     1       4.185  10.744  27.313  0.00  0.00    +0.000 C 
ATOM     16  O   UNL     1       4.261  11.980  26.592  0.00  0.00    +0.000 OA
ENDBRANCH  11  16
ENDBRANCH   1  13
BRANCH   5  17
ATOM     17  C   UNL     1       9.215  15.383  22.052  0.00  0.00    +0.000 C 
ATOM     18  C   UNL     1       9.447  16.732  22.705  0.00  0.00    +0.000 C 
ATOM     19  C   UNL     1      10.600  15.812  22.493  0.00  0.00    +0.000 C 
ENDBRANCH   5  17
BRANCH   6  20
ATOM     20  C   UNL     1      10.311  12.613  21.806  0.00  0.00    +0.000 C 
BRANCH  20  21
ATOM     21  C   UNL     1      10.040  12.095  20.390  0.00  0.00    +0.000 A 
ATOM     22  C   UNL     1       9.340  10.893  20.178  0.00  0.00    +0.000 A 
ATOM     23  C   UNL     1       9.168  10.371  18.898  0.00  0.00    +0.000 A 
ATOM     24  C   UNL     1       9.681  11.045  17.797  0.00  0.00    +0.000 A 
ATOM     25  C   UNL     1      10.361  12.258  17.954  0.00  0.00    +0.000 A 
ATOM     26  C   UNL     1      10.857  12.923  16.822  0.00  0.00    +0.000 A 
ATOM     27  C   UNL     1      11.530  14.133  16.935  0.00  0.00    +0.000 A 
ATOM     28  C   UNL     1      11.722  14.695  18.192  0.00  0.00    +0.000 A 
ATOM     29  C   UNL     1      11.242  14.038  19.331  0.00  0.00    +0.000 A 
ATOM     30  C   UNL     1      10.548  12.806  19.254  0.00  0.00    +0.000 A 
ENDBRANCH  20  21
ENDBRANCH   6  20
TORSDOF 5
ENDMDL
MODEL 9
REMARK VINA RESULT:      -6.9      6.394      8.900
REMARK  Name = 
REMARK  7 active torsions:
REMARK  status: ('A' for Active; 'I' for Inactive)
REMARK    1  A    between atoms: C_1  and  O_2
REMARK    2  A    between atoms: O_2  and  N_3
REMARK    3  A    between atoms: N_3  and  C_4
REMARK    4  A    between atoms: C_5  and  C_7
REMARK    5  A    between atoms: C_11  and  C_12
REMARK    6  A    between atoms: C_15  and  C_16
REMARK    7  A    between atoms: C_16  and  C_17
REMARK                            x       y       z     vdW  Elec       q    Type
REMARK                         _______ _______ _______ _____ _____    ______ ____
ROOT
ATOM      1  C   UNL     1       2.774  14.230  20.161  0.00  0.00    +0.000 C 
ATOM      2  C   UNL     1       2.626  14.817  21.557  0.00  0.00    +0.000 C 
ATOM      3  S   UNL     1       0.891  14.538  22.019  0.00  0.00    +0.000 S 
ATOM      4  C   UNL     1       0.613  13.367  20.769  0.00  0.00    +0.000 A 
ATOM      5  C   UNL     1      -0.491  12.596  20.614  0.00  0.00    +0.000 A 
ATOM      6  C   UNL     1      -0.432  11.544  19.562  0.00  0.00    +0.000 A 
ATOM      7  C   UNL     1       0.629  11.484  18.730  0.00  0.00    +0.000 A 
ATOM      8  C   UNL     1       1.786  12.391  18.883  0.00  0.00    +0.000 A 
ATOM      9  O   UNL     1       2.753  12.294  18.135  0.00  0.00    +0.000 OA
ATOM     10  N   UNL     1       1.695  13.278  19.926  0.00  0.00    +0.000 N 
ENDROOT
BRANCH   1  13
ATOM     11  N   UNL     1       3.946  15.567  18.432  0.00  0.00    +0.000 N 
ATOM     12  C   UNL     1       4.219  16.818  17.751  0.00  0.00    +0.000 C 
ATOM     13  C   UNL     1       2.758  15.363  19.112  0.00  0.00    +0.000 C 
ATOM     14  O   UNL     1       1.761  16.061  18.908  0.00  0.00    +0.000 OA
BRANCH  11  16
ATOM     15  C   UNL     1       5.946  14.588  17.860  0.00  0.00    +0.000 C 
ATOM     16  O   UNL     1       5.111  14.966  18.961  0.00  0.00    +0.000 OA
ENDBRANCH  11  16
ENDBRANCH   1  13
BRANCH   5  17
ATOM     17  C   UNL     1      -1.714  12.660  21.455  0.00  0.00    +0.000 C 
ATOM     18  C   UNL     1      -1.871  11.785  22.684  0.00  0.00    +0.000 C 
ATOM     19  C   UNL     1      -1.639  13.248  22.850  0.00  0.00    +0.000 C 
ENDBRANCH   5  17
BRANCH   6  20
ATOM     20  C   UNL     1      -1.526  10.495  19.403  0.00  0.00    +0.000 C 
BRANCH  20  21
ATOM     21  C   UNL     1      -2.392  10.564  18.140  0.00  0.00    +0.000 A 
ATOM     22  C   UNL     1      -1.986   9.937  16.947  0.00  0.00    +0.000 A 
ATOM     23  C   UNL     1      -2.723  10.070  15.773  0.00  0.00    +0.000 A 
ATOM     24  C   UNL     1      -3.892  10.822  15.766  0.00  0.00    +0.000 A 
ATOM     25  C   UNL     1      -4.351  11.441  16.934  0.00  0.00    +0.000 A 
ATOM     26  C   UNL     1      -5.542  12.184  16.900  0.00  0.00    +0.000 A 
ATOM     27  C   UNL     1      -6.034  12.805  18.039  0.00  0.00    +0.000 A 
ATOM     28  C   UNL     1      -5.335  12.697  19.235  0.00  0.00    +0.000 A 
ATOM     29  C   UNL     1      -4.141  11.969  19.283  0.00  0.00    +0.000 A 
ATOM     30  C   UNL     1      -3.610  11.318  18.142  0.00  0.00    +0.000 A 
ENDBRANCH  20  21
ENDBRANCH   6  20
TORSDOF 5
ENDMDL
