MODEL 1
REMARK VINA RESULT:      -7.3      0.000      0.000
REMARK  Name = 
REMARK  6 active torsions:
REMARK  status: ('A' for Active; 'I' for Inactive)
REMARK    1  A    between atoms: C_2  and  C_14
REMARK    2  A    between atoms: N_3  and  N_4
REMARK    3  A    between atoms: C_5  and  C_6
REMARK    4  A    between atoms: C_9  and  O_10
REMARK    5  A    between atoms: C_12  and  O_13
REMARK    6  A    between atoms: C_16  and  C_17
REMARK                            x       y       z     vdW  Elec       q    Type
REMARK                         _______ _______ _______ _____ _____    ______ ____
ROOT
ATOM      1  O   UNL     1       6.358   5.663  16.790  0.00  0.00    +0.000 OA
ATOM      2  C   UNL     1       6.045   4.733  16.050  0.00  0.00    +0.000 C 
ATOM      3  N   UNL     1       5.205   3.681  16.401  0.00  0.00    +0.000 N 
ATOM      4  H   UNL     1       5.021   2.965  15.702  0.00  0.00    +0.000 HD
ENDROOT
BRANCH   2   5
ATOM      5  C   UNL     1       6.539   4.649  14.661  0.00  0.00    +0.000 A 
ATOM      6  C   UNL     1       6.079   3.752  13.651  0.00  0.00    +0.000 A 
ATOM      7  C   UNL     1       6.903   3.965  12.572  0.00  0.00    +0.000 A 
ATOM      8  N   UNL     1       7.732   4.986  12.937  0.00  0.00    +0.000 N 
ATOM      9  N   UNL     1       7.542   5.426  14.196  0.00  0.00    +0.000 NA
ATOM     10  H   UNL     1       8.466   5.412  12.381  0.00  0.00    +0.000 HD
BRANCH   7  11
ATOM     11  C   UNL     1       6.976   3.223  11.251  0.00  0.00    +0.000 C 
ATOM     12  C   UNL     1       7.646   1.863  11.241  0.00  0.00    +0.000 C 
ATOM     13  C   UNL     1       6.180   1.962  11.004  0.00  0.00    +0.000 C 
ENDBRANCH   7  11
ENDBRANCH   2   5
BRANCH   3  14
ATOM     14  N   UNL     1       4.654   3.623  17.651  0.00  0.00    +0.000 NA
ATOM     15  C   UNL     1       3.504   3.034  17.751  0.00  0.00    +0.000 C 
BRANCH  15  16
ATOM     16  C   UNL     1       2.824   2.902  19.064  0.00  0.00    +0.000 A 
ATOM     17  C   UNL     1       1.452   3.174  19.168  0.00  0.00    +0.000 A 
ATOM     18  C   UNL     1       0.803   3.077  20.401  0.00  0.00    +0.000 A 
ATOM     19  C   UNL     1       1.529   2.704  21.528  0.00  0.00    +0.000 A 
ATOM     20  C   UNL     1       2.891   2.420  21.440  0.00  0.00    +0.000 A 
ATOM     21  C   UNL     1       3.537   2.523  20.206  0.00  0.00    +0.000 A 
BRANCH  19  22
ATOM     22  O   UNL     1       0.938   2.605  22.754  0.00  0.00    +0.000 OA
ATOM     23  H   UNL     1       1.118   1.721  23.115  0.00  0.00    +0.000 HD
ENDBRANCH  19  22
BRANCH  21  24
ATOM     24  O   UNL     1       4.876   2.253  20.123  0.00  0.00    +0.000 OA
ATOM     25  H   UNL     1       5.197   2.537  19.249  0.00  0.00    +0.000 HD
ENDBRANCH  21  24
ENDBRANCH  15  16
ENDBRANCH   3  14
TORSDOF 6
ENDMDL
MODEL 2
REMARK VINA RESULT:      -7.1      5.877      8.912
REMARK  Name = 
REMARK  6 active torsions:
REMARK  status: ('A' for Active; 'I' for Inactive)
REMARK    1  A    between atoms: C_2  and  C_14
REMARK    2  A    between atoms: N_3  and  N_4
REMARK    3  A    between atoms: C_5  and  C_6
REMARK    4  A    between atoms: C_9  and  O_10
REMARK    5  A    between atoms: C_12  and  O_13
REMARK    6  A    between atoms: C_16  and  C_17
REMARK                            x       y       z     vdW  Elec       q    Type
REMARK                         _______ _______ _______ _____ _____    ______ ____
ROOT
ATOM      1  O   UNL     1       8.193   6.206  19.203  0.00  0.00    +0.000 OA
ATOM      2  C   UNL     1       7.615   6.467  18.149  0.00  0.00    +0.000 C 
ATOM      3  N   UNL     1       7.717   7.671  17.460  0.00  0.00    +0.000 N 
ATOM      4  H   UNL     1       7.188   7.771  16.597  0.00  0.00    +0.000 HD
ENDROOT
BRANCH   2   5
ATOM      5  C   UNL     1       6.738   5.484  17.484  0.00  0.00    +0.000 A 
ATOM      6  C   UNL     1       5.328   5.354  17.658  0.00  0.00    +0.000 A 
ATOM      7  C   UNL     1       4.972   4.243  16.931  0.00  0.00    +0.000 A 
ATOM      8  N   UNL     1       6.117   3.822  16.318  0.00  0.00    +0.000 N 
ATOM      9  N   UNL     1       7.207   4.548  16.630  0.00  0.00    +0.000 NA
ATOM     10  H   UNL     1       6.226   3.028  15.695  0.00  0.00    +0.000 HD
BRANCH   7  11
ATOM     11  C   UNL     1       3.630   3.541  16.832  0.00  0.00    +0.000 C 
ATOM     12  C   UNL     1       3.308   2.485  17.870  0.00  0.00    +0.000 C 
ATOM     13  C   UNL     1       2.543   3.761  17.858  0.00  0.00    +0.000 C 
ENDBRANCH   7  11
ENDBRANCH   2   5
BRANCH   3  14
ATOM     14  N   UNL     1       8.504   8.680  17.941  0.00  0.00    +0.000 NA
ATOM     15  C   UNL     1       8.085   9.890  17.737  0.00  0.00    +0.000 C 
BRANCH  15  16
ATOM     16  C   UNL     1       8.855  11.059  18.231  0.00  0.00    +0.000 A 
ATOM     17  C   UNL     1       9.846  10.877  19.208  0.00  0.00    +0.000 A 
ATOM     18  C   UNL     1      10.563  11.971  19.699  0.00  0.00    +0.000 A 
ATOM     19  C   UNL     1      10.289  13.244  19.210  0.00  0.00    +0.000 A 
ATOM     20  C   UNL     1       9.315  13.440  18.232  0.00  0.00    +0.000 A 
ATOM     21  C   UNL     1       8.597  12.345  17.746  0.00  0.00    +0.000 A 
BRANCH  19  22
ATOM     22  O   UNL     1      10.958  14.341  19.666  0.00  0.00    +0.000 OA
ATOM     23  H   UNL     1      11.844  14.068  19.956  0.00  0.00    +0.000 HD
ENDBRANCH  19  22
BRANCH  21  24
ATOM     24  O   UNL     1       7.634  12.540  16.793  0.00  0.00    +0.000 OA
ATOM     25  H   UNL     1       7.996  13.115  16.097  0.00  0.00    +0.000 HD
ENDBRANCH  21  24
ENDBRANCH  15  16
ENDBRANCH   3  14
TORSDOF 6
ENDMDL
MODEL 3
REMARK VINA RESULT:      -7.0      6.171      9.340
REMARK  Name = 
REMARK  6 active torsions:
REMARK  status: ('A' for Active; 'I' for Inactive)
REMARK    1  A    between atoms: C_2  and  C_14
REMARK    2  A    between atoms: N_3  and  N_4
REMARK    3  A    between atoms: C_5  and  C_6
REMARK    4  A    between atoms: C_9  and  O_10
REMARK    5  A    between atoms: C_12  and  O_13
REMARK    6  A    between atoms: C_16  and  C_17
REMARK                            x       y       z     vdW  Elec       q    Type
REMARK                         _______ _______ _______ _____ _____    ______ ____
ROOT
ATOM      1  O   UNL     1       7.827   6.980  16.280  0.00  0.00    +0.000 OA
ATOM      2  C   UNL     1       7.494   6.845  17.455  0.00  0.00    +0.000 C 
ATOM      3  N   UNL     1       7.816   7.726  18.483  0.00  0.00    +0.000 N 
ATOM      4  H   UNL     1       7.485   7.506  19.420  0.00  0.00    +0.000 HD
ENDROOT
BRANCH   2   5
ATOM      5  C   UNL     1       6.677   5.699  17.901  0.00  0.00    +0.000 A 
ATOM      6  C   UNL     1       5.400   5.320  17.392  0.00  0.00    +0.000 A 
ATOM      7  C   UNL     1       4.987   4.275  18.183  0.00  0.00    +0.000 A 
ATOM      8  N   UNL     1       6.020   4.033  19.041  0.00  0.00    +0.000 N 
ATOM      9  N   UNL     1       7.061   4.876  18.902  0.00  0.00    +0.000 NA
ATOM     10  H   UNL     1       6.066   3.322  19.764  0.00  0.00    +0.000 HD
BRANCH   7  11
ATOM     11  C   UNL     1       3.659   3.540  18.199  0.00  0.00    +0.000 C 
ATOM     12  C   UNL     1       2.546   4.112  19.054  0.00  0.00    +0.000 C 
ATOM     13  C   UNL     1       2.418   4.132  17.571  0.00  0.00    +0.000 C 
ENDBRANCH   7  11
ENDBRANCH   2   5
BRANCH   3  14
ATOM     14  N   UNL     1       8.558   8.846  18.227  0.00  0.00    +0.000 NA
ATOM     15  C   UNL     1       8.920   9.548  19.255  0.00  0.00    +0.000 C 
BRANCH  15  16
ATOM     16  C   UNL     1       9.740  10.775  19.092  0.00  0.00    +0.000 A 
ATOM     17  C   UNL     1      10.176  11.155  17.814  0.00  0.00    +0.000 A 
ATOM     18  C   UNL     1      10.968  12.294  17.647  0.00  0.00    +0.000 A 
ATOM     19  C   UNL     1      11.320  13.051  18.760  0.00  0.00    +0.000 A 
ATOM     20  C   UNL     1      10.887  12.692  20.036  0.00  0.00    +0.000 A 
ATOM     21  C   UNL     1      10.099  11.551  20.199  0.00  0.00    +0.000 A 
BRANCH  19  22
ATOM     22  O   UNL     1      12.098  14.165  18.645  0.00  0.00    +0.000 OA
ATOM     23  H   UNL     1      11.527  14.925  18.445  0.00  0.00    +0.000 HD
ENDBRANCH  19  22
BRANCH  21  24
ATOM     24  O   UNL     1       9.682  11.193  21.453  0.00  0.00    +0.000 OA
ATOM     25  H   UNL     1      10.438  10.816  21.936  0.00  0.00    +0.000 HD
ENDBRANCH  21  24
ENDBRANCH  15  16
ENDBRANCH   3  14
TORSDOF 6
ENDMDL
MODEL 4
REMARK VINA RESULT:      -7.0      4.266      4.565
REMARK  Name = 
REMARK  6 active torsions:
REMARK  status: ('A' for Active; 'I' for Inactive)
REMARK    1  A    between atoms: C_2  and  C_14
REMARK    2  A    between atoms: N_3  and  N_4
REMARK    3  A    between atoms: C_5  and  C_6
REMARK    4  A    between atoms: C_9  and  O_10
REMARK    5  A    between atoms: C_12  and  O_13
REMARK    6  A    between atoms: C_16  and  C_17
REMARK                            x       y       z     vdW  Elec       q    Type
REMARK                         _______ _______ _______ _____ _____    ______ ____
ROOT
ATOM      1  O   UNL     1       6.358   6.550  18.136  0.00  0.00    +0.000 OA
ATOM      2  C   UNL     1       5.666   6.419  17.128  0.00  0.00    +0.000 C 
ATOM      3  N   UNL     1       4.375   6.915  16.976  0.00  0.00    +0.000 N 
ATOM      4  H   UNL     1       3.899   6.741  16.094  0.00  0.00    +0.000 HD
ENDROOT
BRANCH   2   5
ATOM      5  C   UNL     1       6.164   5.709  15.934  0.00  0.00    +0.000 A 
ATOM      6  C   UNL     1       5.426   4.799  15.120  0.00  0.00    +0.000 A 
ATOM      7  C   UNL     1       6.330   4.312  14.206  0.00  0.00    +0.000 A 
ATOM      8  N   UNL     1       7.496   4.977  14.451  0.00  0.00    +0.000 N 
ATOM      9  N   UNL     1       7.435   5.831  15.491  0.00  0.00    +0.000 NA
ATOM     10  H   UNL     1       8.378   4.874  13.960  0.00  0.00    +0.000 HD
BRANCH   7  11
ATOM     11  C   UNL     1       6.158   3.223  13.163  0.00  0.00    +0.000 C 
ATOM     12  C   UNL     1       5.225   3.499  12.002  0.00  0.00    +0.000 C 
ATOM     13  C   UNL     1       6.688   3.383  11.756  0.00  0.00    +0.000 C 
ENDBRANCH   7  11
ENDBRANCH   2   5
BRANCH   3  14
ATOM     14  N   UNL     1       3.776   7.609  17.991  0.00  0.00    +0.000 NA
ATOM     15  C   UNL     1       2.488   7.737  17.924  0.00  0.00    +0.000 C 
BRANCH  15  16
ATOM     16  C   UNL     1       1.736   8.460  18.981  0.00  0.00    +0.000 A 
ATOM     17  C   UNL     1       1.095   9.669  18.675  0.00  0.00    +0.000 A 
ATOM     18  C   UNL     1       0.403  10.372  19.664  0.00  0.00    +0.000 A 
ATOM     19  C   UNL     1       0.352   9.861  20.957  0.00  0.00    +0.000 A 
ATOM     20  C   UNL     1       0.974   8.655  21.275  0.00  0.00    +0.000 A 
ATOM     21  C   UNL     1       1.669   7.957  20.284  0.00  0.00    +0.000 A 
BRANCH  19  22
ATOM     22  O   UNL     1      -0.306  10.517  21.956  0.00  0.00    +0.000 OA
ATOM     23  H   UNL     1       0.337  10.769  22.640  0.00  0.00    +0.000 HD
ENDBRANCH  19  22
BRANCH  21  24
ATOM     24  O   UNL     1       2.289   6.778  20.599  0.00  0.00    +0.000 OA
ATOM     25  H   UNL     1       1.802   6.355  21.327  0.00  0.00    +0.000 HD
ENDBRANCH  21  24
ENDBRANCH  15  16
ENDBRANCH   3  14
TORSDOF 6
ENDMDL
MODEL 5
REMARK VINA RESULT:      -7.0      6.117      9.571
REMARK  Name = 
REMARK  6 active torsions:
REMARK  status: ('A' for Active; 'I' for Inactive)
REMARK    1  A    between atoms: C_2  and  C_14
REMARK    2  A    between atoms: N_3  and  N_4
REMARK    3  A    between atoms: C_5  and  C_6
REMARK    4  A    between atoms: C_9  and  O_10
REMARK    5  A    between atoms: C_12  and  O_13
REMARK    6  A    between atoms: C_16  and  C_17
REMARK                            x       y       z     vdW  Elec       q    Type
REMARK                         _______ _______ _______ _____ _____    ______ ____
ROOT
ATOM      1  O   UNL     1       7.786   6.918  16.296  0.00  0.00    +0.000 OA
ATOM      2  C   UNL     1       7.449   6.959  17.478  0.00  0.00    +0.000 C 
ATOM      3  N   UNL     1       7.742   7.996  18.357  0.00  0.00    +0.000 N 
ATOM      4  H   UNL     1       7.411   7.915  19.315  0.00  0.00    +0.000 HD
ENDROOT
BRANCH   2   5
ATOM      5  C   UNL     1       6.658   5.875  18.094  0.00  0.00    +0.000 A 
ATOM      6  C   UNL     1       5.375   5.418  17.671  0.00  0.00    +0.000 A 
ATOM      7  C   UNL     1       4.995   4.484  18.606  0.00  0.00    +0.000 A 
ATOM      8  N   UNL     1       6.050   4.370  19.463  0.00  0.00    +0.000 N 
ATOM      9  N   UNL     1       7.076   5.197  19.185  0.00  0.00    +0.000 NA
ATOM     10  H   UNL     1       6.123   3.764  20.274  0.00  0.00    +0.000 HD
BRANCH   7  11
ATOM     11  C   UNL     1       3.678   3.745  18.754  0.00  0.00    +0.000 C 
ATOM     12  C   UNL     1       3.422   2.567  17.834  0.00  0.00    +0.000 C 
ATOM     13  C   UNL     1       3.616   2.333  19.291  0.00  0.00    +0.000 C 
ENDBRANCH   7  11
ENDBRANCH   2   5
BRANCH   3  14
ATOM     14  N   UNL     1       8.458   9.081  17.933  0.00  0.00    +0.000 NA
ATOM     15  C   UNL     1       8.890   9.885  18.853  0.00  0.00    +0.000 C 
BRANCH  15  16
ATOM     16  C   UNL     1       9.690  11.087  18.503  0.00  0.00    +0.000 A 
ATOM     17  C   UNL     1      11.019  11.189  18.942  0.00  0.00    +0.000 A 
ATOM     18  C   UNL     1      11.777  12.323  18.640  0.00  0.00    +0.000 A 
ATOM     19  C   UNL     1      11.204  13.351  17.899  0.00  0.00    +0.000 A 
ATOM     20  C   UNL     1       9.888  13.261  17.447  0.00  0.00    +0.000 A 
ATOM     21  C   UNL     1       9.132  12.127  17.754  0.00  0.00    +0.000 A 
BRANCH  19  22
ATOM     22  O   UNL     1      11.904  14.480  17.589  0.00  0.00    +0.000 OA
ATOM     23  H   UNL     1      11.778  15.131  18.299  0.00  0.00    +0.000 HD
ENDBRANCH  19  22
BRANCH  21  24
ATOM     24  O   UNL     1       7.837  12.043  17.318  0.00  0.00    +0.000 OA
ATOM     25  H   UNL     1       7.380  11.354  17.831  0.00  0.00    +0.000 HD
ENDBRANCH  21  24
ENDBRANCH  15  16
ENDBRANCH   3  14
TORSDOF 6
ENDMDL
MODEL 6
REMARK VINA RESULT:      -6.9      7.035      9.625
REMARK  Name = 
REMARK  6 active torsions:
REMARK  status: ('A' for Active; 'I' for Inactive)
REMARK    1  A    between atoms: C_2  and  C_14
REMARK    2  A    between atoms: N_3  and  N_4
REMARK    3  A    between atoms: C_5  and  C_6
REMARK    4  A    between atoms: C_9  and  O_10
REMARK    5  A    between atoms: C_12  and  O_13
REMARK    6  A    between atoms: C_16  and  C_17
REMARK                            x       y       z     vdW  Elec       q    Type
REMARK                         _______ _______ _______ _____ _____    ______ ____
ROOT
ATOM      1  O   UNL     1       1.033  10.082  19.776  0.00  0.00    +0.000 OA
ATOM      2  C   UNL     1       0.556  10.081  18.643  0.00  0.00    +0.000 C 
ATOM      3  N   UNL     1       1.127   9.463  17.535  0.00  0.00    +0.000 N 
ATOM      4  H   UNL     1       0.639   9.533  16.646  0.00  0.00    +0.000 HD
ENDROOT
BRANCH   2   5
ATOM      5  C   UNL     1      -0.725  10.751  18.342  0.00  0.00    +0.000 A 
ATOM      6  C   UNL     1      -1.938  10.117  17.939  0.00  0.00    +0.000 A 
ATOM      7  C   UNL     1      -2.812  11.143  17.668  0.00  0.00    +0.000 A 
ATOM      8  N   UNL     1      -2.143  12.290  17.982  0.00  0.00    +0.000 N 
ATOM      9  N   UNL     1      -0.876  12.093  18.394  0.00  0.00    +0.000 NA
ATOM     10  H   UNL     1      -2.488  13.242  17.914  0.00  0.00    +0.000 HD
BRANCH   7  11
ATOM     11  C   UNL     1      -4.213  11.091  17.085  0.00  0.00    +0.000 C 
ATOM     12  C   UNL     1      -5.365  10.840  18.037  0.00  0.00    +0.000 C 
ATOM     13  C   UNL     1      -5.233  12.167  17.376  0.00  0.00    +0.000 C 
ENDBRANCH   7  11
ENDBRANCH   2   5
BRANCH   3  14
ATOM     14  N   UNL     1       2.311   8.788  17.654  0.00  0.00    +0.000 NA
ATOM     15  C   UNL     1       2.233   7.535  17.978  0.00  0.00    +0.000 C 
BRANCH  15  16
ATOM     16  C   UNL     1       3.456   6.705  18.119  0.00  0.00    +0.000 A 
ATOM     17  C   UNL     1       4.433   6.729  17.113  0.00  0.00    +0.000 A 
ATOM     18  C   UNL     1       5.579   5.937  17.221  0.00  0.00    +0.000 A 
ATOM     19  C   UNL     1       5.744   5.123  18.336  0.00  0.00    +0.000 A 
ATOM     20  C   UNL     1       4.788   5.095  19.351  0.00  0.00    +0.000 A 
ATOM     21  C   UNL     1       3.643   5.886  19.238  0.00  0.00    +0.000 A 
BRANCH  19  22
ATOM     22  O   UNL     1       6.843   4.327  18.479  0.00  0.00    +0.000 OA
ATOM     23  H   UNL     1       7.169   4.084  17.597  0.00  0.00    +0.000 HD
ENDBRANCH  19  22
BRANCH  21  24
ATOM     24  O   UNL     1       2.699   5.850  20.228  0.00  0.00    +0.000 OA
ATOM     25  H   UNL     1       3.103   5.477  21.031  0.00  0.00    +0.000 HD
ENDBRANCH  21  24
ENDBRANCH  15  16
ENDBRANCH   3  14
TORSDOF 6
ENDMDL
MODEL 7
REMARK VINA RESULT:      -6.9      4.395      4.931
REMARK  Name = 
REMARK  6 active torsions:
REMARK  status: ('A' for Active; 'I' for Inactive)
REMARK    1  A    between atoms: C_2  and  C_14
REMARK    2  A    between atoms: N_3  and  N_4
REMARK    3  A    between atoms: C_5  and  C_6
REMARK    4  A    between atoms: C_9  and  O_10
REMARK    5  A    between atoms: C_12  and  O_13
REMARK    6  A    between atoms: C_16  and  C_17
REMARK                            x       y       z     vdW  Elec       q    Type
REMARK                         _______ _______ _______ _____ _____    ______ ____
ROOT
ATOM      1  O   UNL     1       5.307   5.086  18.451  0.00  0.00    +0.000 OA
ATOM      2  C   UNL     1       5.101   5.683  17.396  0.00  0.00    +0.000 C 
ATOM      3  N   UNL     1       4.219   6.747  17.239  0.00  0.00    +0.000 N 
ATOM      4  H   UNL     1       4.131   7.160  16.314  0.00  0.00    +0.000 HD
ENDROOT
BRANCH   2   5
ATOM      5  C   UNL     1       5.811   5.323  16.153  0.00  0.00    +0.000 A 
ATOM      6  C   UNL     1       5.388   4.365  15.184  0.00  0.00    +0.000 A 
ATOM      7  C   UNL     1       6.414   4.292  14.272  0.00  0.00    +0.000 A 
ATOM      8  N   UNL     1       7.329   5.222  14.672  0.00  0.00    +0.000 N 
ATOM      9  N   UNL     1       6.999   5.866  15.808  0.00  0.00    +0.000 NA
ATOM     10  H   UNL     1       8.213   5.447  14.227  0.00  0.00    +0.000 HD
BRANCH   7  11
ATOM     11  C   UNL     1       6.590   3.360  13.087  0.00  0.00    +0.000 C 
ATOM     12  C   UNL     1       5.520   3.373  12.014  0.00  0.00    +0.000 C 
ATOM     13  C   UNL     1       6.882   3.886  11.701  0.00  0.00    +0.000 C 
ENDBRANCH   7  11
ENDBRANCH   2   5
BRANCH   3  14
ATOM     14  N   UNL     1       3.495   7.208  18.304  0.00  0.00    +0.000 NA
ATOM     15  C   UNL     1       2.563   8.070  18.041  0.00  0.00    +0.000 C 
BRANCH  15  16
ATOM     16  C   UNL     1       1.708   8.625  19.121  0.00  0.00    +0.000 A 
ATOM     17  C   UNL     1       1.711   8.023  20.388  0.00  0.00    +0.000 A 
ATOM     18  C   UNL     1       0.894   8.520  21.407  0.00  0.00    +0.000 A 
ATOM     19  C   UNL     1       0.079   9.618  21.157  0.00  0.00    +0.000 A 
ATOM     20  C   UNL     1       0.072  10.234  19.906  0.00  0.00    +0.000 A 
ATOM     21  C   UNL     1       0.886   9.732  18.888  0.00  0.00    +0.000 A 
BRANCH  19  22
ATOM     22  O   UNL     1      -0.740  10.131  22.119  0.00  0.00    +0.000 OA
ATOM     23  H   UNL     1      -0.269  10.842  22.584  0.00  0.00    +0.000 HD
ENDBRANCH  19  22
BRANCH  21  24
ATOM     24  O   UNL     1       0.871  10.330  17.657  0.00  0.00    +0.000 OA
ATOM     25  H   UNL     1       0.382   9.760  17.039  0.00  0.00    +0.000 HD
ENDBRANCH  21  24
ENDBRANCH  15  16
ENDBRANCH   3  14
TORSDOF 6
ENDMDL
MODEL 8
REMARK VINA RESULT:      -6.7      6.056      8.910
REMARK  Name = 
REMARK  6 active torsions:
REMARK  status: ('A' for Active; 'I' for Inactive)
REMARK    1  A    between atoms: C_2  and  C_14
REMARK    2  A    between atoms: N_3  and  N_4
REMARK    3  A    between atoms: C_5  and  C_6
REMARK    4  A    between atoms: C_9  and  O_10
REMARK    5  A    between atoms: C_12  and  O_13
REMARK    6  A    between atoms: C_16  and  C_17
REMARK                            x       y       z     vdW  Elec       q    Type
REMARK                         _______ _______ _______ _____ _____    ______ ____
ROOT
ATOM      1  O   UNL     1       8.191   6.167  19.367  0.00  0.00    +0.000 OA
ATOM      2  C   UNL     1       7.652   6.556  18.333  0.00  0.00    +0.000 C 
ATOM      3  N   UNL     1       7.842   7.807  17.755  0.00  0.00    +0.000 N 
ATOM      4  H   UNL     1       7.338   8.017  16.897  0.00  0.00    +0.000 HD
ENDROOT
BRANCH   2   5
ATOM      5  C   UNL     1       6.727   5.694  17.570  0.00  0.00    +0.000 A 
ATOM      6  C   UNL     1       5.346   5.477  17.851  0.00  0.00    +0.000 A 
ATOM      7  C   UNL     1       4.936   4.523  16.950  0.00  0.00    +0.000 A 
ATOM      8  N   UNL     1       6.018   4.278  16.156  0.00  0.00    +0.000 N 
ATOM      9  N   UNL     1       7.122   4.968  16.501  0.00  0.00    +0.000 NA
ATOM     10  H   UNL     1       6.076   3.631  15.376  0.00  0.00    +0.000 HD
BRANCH   7  11
ATOM     11  C   UNL     1       3.604   3.804  16.842  0.00  0.00    +0.000 C 
ATOM     12  C   UNL     1       3.319   2.694  17.834  0.00  0.00    +0.000 C 
ATOM     13  C   UNL     1       2.533   3.956  17.898  0.00  0.00    +0.000 C 
ENDBRANCH   7  11
ENDBRANCH   2   5
BRANCH   3  14
ATOM     14  N   UNL     1       8.682   8.717  18.336  0.00  0.00    +0.000 NA
ATOM     15  C   UNL     1       8.530   9.954  17.981  0.00  0.00    +0.000 C 
BRANCH  15  16
ATOM     16  C   UNL     1       9.378  11.026  18.561  0.00  0.00    +0.000 A 
ATOM     17  C   UNL     1       9.942  11.998  17.722  0.00  0.00    +0.000 A 
ATOM     18  C   UNL     1      10.761  12.999  18.251  0.00  0.00    +0.000 A 
ATOM     19  C   UNL     1      11.012  13.025  19.618  0.00  0.00    +0.000 A 
ATOM     20  C   UNL     1      10.452  12.072  20.468  0.00  0.00    +0.000 A 
ATOM     21  C   UNL     1       9.637  11.071  19.935  0.00  0.00    +0.000 A 
BRANCH  19  22
ATOM     22  O   UNL     1      11.813  13.979  20.177  0.00  0.00    +0.000 OA
ATOM     23  H   UNL     1      11.425  14.853  20.002  0.00  0.00    +0.000 HD
ENDBRANCH  19  22
BRANCH  21  24
ATOM     24  O   UNL     1       9.096  10.129  20.768  0.00  0.00    +0.000 OA
ATOM     25  H   UNL     1       8.634   9.464  20.228  0.00  0.00    +0.000 HD
ENDBRANCH  21  24
ENDBRANCH  15  16
ENDBRANCH   3  14
TORSDOF 6
ENDMDL
MODEL 9
REMARK VINA RESULT:      -6.7      1.070      1.501
REMARK  Name = 
REMARK  6 active torsions:
REMARK  status: ('A' for Active; 'I' for Inactive)
REMARK    1  A    between atoms: C_2  and  C_14
REMARK    2  A    between atoms: N_3  and  N_4
REMARK    3  A    between atoms: C_5  and  C_6
REMARK    4  A    between atoms: C_9  and  O_10
REMARK    5  A    between atoms: C_12  and  O_13
REMARK    6  A    between atoms: C_16  and  C_17
REMARK                            x       y       z     vdW  Elec       q    Type
REMARK                         _______ _______ _______ _____ _____    ______ ____
ROOT
ATOM      1  O   UNL     1       5.660   5.854  16.711  0.00  0.00    +0.000 OA
ATOM      2  C   UNL     1       5.770   4.783  16.117  0.00  0.00    +0.000 C 
ATOM      3  N   UNL     1       5.358   3.550  16.611  0.00  0.00    +0.000 N 
ATOM      4  H   UNL     1       5.504   2.730  16.026  0.00  0.00    +0.000 HD
ENDROOT
BRANCH   2   5
ATOM      5  C   UNL     1       6.359   4.706  14.765  0.00  0.00    +0.000 A 
ATOM      6  C   UNL     1       5.909   3.882  13.692  0.00  0.00    +0.000 A 
ATOM      7  C   UNL     1       6.826   4.064  12.684  0.00  0.00    +0.000 A 
ATOM      8  N   UNL     1       7.699   5.004  13.146  0.00  0.00    +0.000 N 
ATOM      9  N   UNL     1       7.450   5.417  14.404  0.00  0.00    +0.000 NA
ATOM     10  H   UNL     1       8.504   5.389  12.661  0.00  0.00    +0.000 HD
BRANCH   7  11
ATOM     11  C   UNL     1       6.941   3.361  11.344  0.00  0.00    +0.000 C 
ATOM     12  C   UNL     1       7.659   2.027  11.306  0.00  0.00    +0.000 C 
ATOM     13  C   UNL     1       6.194   2.080  11.053  0.00  0.00    +0.000 C 
ENDBRANCH   7  11
ENDBRANCH   2   5
BRANCH   3  14
ATOM     14  N   UNL     1       4.779   3.457  17.846  0.00  0.00    +0.000 NA
ATOM     15  C   UNL     1       3.531   3.109  17.877  0.00  0.00    +0.000 C 
BRANCH  15  16
ATOM     16  C   UNL     1       2.810   2.963  19.166  0.00  0.00    +0.000 A 
ATOM     17  C   UNL     1       3.529   2.687  20.339  0.00  0.00    +0.000 A 
ATOM     18  C   UNL     1       2.862   2.525  21.555  0.00  0.00    +0.000 A 
ATOM     19  C   UNL     1       1.477   2.642  21.596  0.00  0.00    +0.000 A 
ATOM     20  C   UNL     1       0.748   2.926  20.443  0.00  0.00    +0.000 A 
ATOM     21  C   UNL     1       1.417   3.084  19.227  0.00  0.00    +0.000 A 
BRANCH  19  22
ATOM     22  O   UNL     1       0.783   2.483  22.761  0.00  0.00    +0.000 OA
ATOM     23  H   UNL     1       1.383   2.650  23.506  0.00  0.00    +0.000 HD
ENDBRANCH  19  22
BRANCH  21  24
ATOM     24  O   UNL     1       0.701   3.352  18.093  0.00  0.00    +0.000 OA
ATOM     25  H   UNL     1       0.565   4.314  18.030  0.00  0.00    +0.000 HD
ENDBRANCH  21  24
ENDBRANCH  15  16
ENDBRANCH   3  14
TORSDOF 6
ENDMDL
