MODEL 1
REMARK VINA RESULT:      -6.8      0.000      0.000
REMARK  Name = 
REMARK  7 active torsions:
REMARK  status: ('A' for Active; 'I' for Inactive)
REMARK    1  A    between atoms: C_1  and  C_2
REMARK    2  A    between atoms: C_2  and  C_3
REMARK    3  A    between atoms: C_2  and  C_4
REMARK    4  A    between atoms: C_2  and  N_5
REMARK    5  A    between atoms: C_9  and  N_10
REMARK    6  A    between atoms: C_11  and  C_13
REMARK    7  A    between atoms: C_13  and  C_14
REMARK                            x       y       z     vdW  Elec       q    Type
REMARK                         _______ _______ _______ _____ _____    ______ ____
ROOT
ATOM      1  N   UNL     1       6.349   5.594  16.218  0.00  0.00    +0.000 N 
ATOM      2  N   UNL     1       7.382   5.698  15.340  0.00  0.00    +0.000 NA
ATOM      3  C   UNL     1       6.969   5.031  14.277  0.00  0.00    +0.000 A 
ATOM      4  C   UNL     1       5.675   4.513  14.421  0.00  0.00    +0.000 A 
ATOM      5  C   UNL     1       5.242   4.922  15.668  0.00  0.00    +0.000 A 
ATOM      6  C   UNL     1       5.199   3.705  13.274  0.00  0.00    +0.000 C 
ATOM      7  S   UNL     1       6.690   3.480  12.193  0.00  0.00    +0.000 S 
ATOM      8  C   UNL     1       7.720   4.766  13.034  0.00  0.00    +0.000 C 
ENDROOT
BRANCH   1  10
ATOM      9  C   UNL     1       7.577   7.365  17.502  0.00  0.00    +0.000 C 
ATOM     10  C   UNL     1       6.525   6.218  17.545  0.00  0.00    +0.000 C 
ATOM     11  C   UNL     1       7.039   5.190  18.568  0.00  0.00    +0.000 C 
ATOM     12  C   UNL     1       5.205   6.843  18.028  0.00  0.00    +0.000 C 
ENDBRANCH   1  10
BRANCH   5  13
ATOM     13  N   UNL     1       3.996   4.712  16.276  0.00  0.00    +0.000 N 
ATOM     14  C   UNL     1       3.689   3.602  17.157  0.00  0.00    +0.000 C 
ATOM     15  O   UNL     1       4.531   2.753  17.421  0.00  0.00    +0.000 OA
ATOM     16  H   UNL     1       3.236   5.341  16.053  0.00  0.00    +0.000 HD
BRANCH  14  17
ATOM     17  C   UNL     1       2.262   3.468  17.626  0.00  0.00    +0.000 C 
BRANCH  17  18
ATOM     18  C   UNL     1       2.167   3.361  19.111  0.00  0.00    +0.000 A 
ATOM     19  C   UNL     1       1.574   2.363  19.859  0.00  0.00    +0.000 A 
ATOM     20  C   UNL     1       1.569   2.663  21.253  0.00  0.00    +0.000 A 
ATOM     21  C   UNL     1       2.170   3.872  21.521  0.00  0.00    +0.000 A 
ATOM     22  S   UNL     1       2.759   4.626  20.104  0.00  0.00    +0.000 S 
ENDBRANCH  17  18
ENDBRANCH  14  17
ENDBRANCH   5  13
TORSDOF 4
ENDMDL
MODEL 2
REMARK VINA RESULT:      -6.4      3.753      5.412
REMARK  Name = 
REMARK  7 active torsions:
REMARK  status: ('A' for Active; 'I' for Inactive)
REMARK    1  A    between atoms: C_1  and  C_2
REMARK    2  A    between atoms: C_2  and  C_3
REMARK    3  A    between atoms: C_2  and  C_4
REMARK    4  A    between atoms: C_2  and  N_5
REMARK    5  A    between atoms: C_9  and  N_10
REMARK    6  A    between atoms: C_11  and  C_13
REMARK    7  A    between atoms: C_13  and  C_14
REMARK                            x       y       z     vdW  Elec       q    Type
REMARK                         _______ _______ _______ _____ _____    ______ ____
ROOT
ATOM      1  N   UNL     1       4.958   4.921  17.875  0.00  0.00    +0.000 N 
ATOM      2  N   UNL     1       4.905   3.573  18.040  0.00  0.00    +0.000 NA
ATOM      3  C   UNL     1       3.611   3.308  18.102  0.00  0.00    +0.000 A 
ATOM      4  C   UNL     1       2.808   4.447  17.954  0.00  0.00    +0.000 A 
ATOM      5  C   UNL     1       3.682   5.499  17.752  0.00  0.00    +0.000 A 
ATOM      6  C   UNL     1       1.353   4.201  18.079  0.00  0.00    +0.000 C 
ATOM      7  S   UNL     1       1.211   2.451  18.681  0.00  0.00    +0.000 S 
ATOM      8  C   UNL     1       2.972   1.998  18.337  0.00  0.00    +0.000 C 
ENDROOT
BRANCH   1  10
ATOM      9  C   UNL     1       6.236   6.973  17.203  0.00  0.00    +0.000 C 
ATOM     10  C   UNL     1       6.298   5.540  17.809  0.00  0.00    +0.000 C 
ATOM     11  C   UNL     1       7.234   4.722  16.902  0.00  0.00    +0.000 C 
ATOM     12  C   UNL     1       6.900   5.678  19.218  0.00  0.00    +0.000 C 
ENDBRANCH   1  10
BRANCH   5  13
ATOM     13  N   UNL     1       3.387   6.847  17.499  0.00  0.00    +0.000 N 
ATOM     14  C   UNL     1       2.649   7.710  18.399  0.00  0.00    +0.000 C 
ATOM     15  O   UNL     1       2.219   7.289  19.466  0.00  0.00    +0.000 OA
ATOM     16  H   UNL     1       3.658   7.242  16.608  0.00  0.00    +0.000 HD
BRANCH  14  17
ATOM     17  C   UNL     1       2.321   9.098  17.911  0.00  0.00    +0.000 C 
BRANCH  17  18
ATOM     18  C   UNL     1       1.015   9.586  18.442  0.00  0.00    +0.000 A 
ATOM     19  C   UNL     1      -0.215   9.587  17.813  0.00  0.00    +0.000 A 
ATOM     20  C   UNL     1      -1.215  10.249  18.584  0.00  0.00    +0.000 A 
ATOM     21  C   UNL     1      -0.717  10.717  19.779  0.00  0.00    +0.000 A 
ATOM     22  S   UNL     1       0.938  10.337  19.980  0.00  0.00    +0.000 S 
ENDBRANCH  17  18
ENDBRANCH  14  17
ENDBRANCH   5  13
TORSDOF 4
ENDMDL
MODEL 3
REMARK VINA RESULT:      -6.4      1.148      1.210
REMARK  Name = 
REMARK  7 active torsions:
REMARK  status: ('A' for Active; 'I' for Inactive)
REMARK    1  A    between atoms: C_1  and  C_2
REMARK    2  A    between atoms: C_2  and  C_3
REMARK    3  A    between atoms: C_2  and  C_4
REMARK    4  A    between atoms: C_2  and  N_5
REMARK    5  A    between atoms: C_9  and  N_10
REMARK    6  A    between atoms: C_11  and  C_13
REMARK    7  A    between atoms: C_13  and  C_14
REMARK                            x       y       z     vdW  Elec       q    Type
REMARK                         _______ _______ _______ _____ _____    ______ ____
ROOT
ATOM      1  N   UNL     1       6.826   5.077  16.490  0.00  0.00    +0.000 N 
ATOM      2  N   UNL     1       7.429   5.791  15.502  0.00  0.00    +0.000 NA
ATOM      3  C   UNL     1       7.118   5.137  14.397  0.00  0.00    +0.000 A 
ATOM      4  C   UNL     1       6.299   4.024  14.628  0.00  0.00    +0.000 A 
ATOM      5  C   UNL     1       6.059   4.009  15.990  0.00  0.00    +0.000 A 
ATOM      6  C   UNL     1       5.978   3.227  13.422  0.00  0.00    +0.000 C 
ATOM      7  S   UNL     1       7.070   3.915  12.088  0.00  0.00    +0.000 S 
ATOM      8  C   UNL     1       7.560   5.435  13.021  0.00  0.00    +0.000 C 
ENDROOT
BRANCH   1  10
ATOM      9  C   UNL     1       7.602   6.989  17.918  0.00  0.00    +0.000 C 
ATOM     10  C   UNL     1       7.024   5.544  17.878  0.00  0.00    +0.000 C 
ATOM     11  C   UNL     1       8.034   4.648  18.616  0.00  0.00    +0.000 C 
ATOM     12  C   UNL     1       5.685   5.578  18.633  0.00  0.00    +0.000 C 
ENDBRANCH   1  10
BRANCH   5  13
ATOM     13  N   UNL     1       5.256   3.129  16.730  0.00  0.00    +0.000 N 
ATOM     14  C   UNL     1       3.847   3.334  17.002  0.00  0.00    +0.000 C 
ATOM     15  O   UNL     1       3.263   4.329  16.590  0.00  0.00    +0.000 OA
ATOM     16  H   UNL     1       5.689   2.318  17.152  0.00  0.00    +0.000 HD
BRANCH  14  17
ATOM     17  C   UNL     1       3.169   2.345  17.916  0.00  0.00    +0.000 C 
BRANCH  17  18
ATOM     18  C   UNL     1       2.537   3.010  19.092  0.00  0.00    +0.000 A 
ATOM     19  C   UNL     1       1.399   3.793  19.120  0.00  0.00    +0.000 A 
ATOM     20  C   UNL     1       1.167   4.364  20.405  0.00  0.00    +0.000 A 
ATOM     21  C   UNL     1       2.129   3.986  21.316  0.00  0.00    +0.000 A 
ATOM     22  S   UNL     1       3.286   2.930  20.631  0.00  0.00    +0.000 S 
ENDBRANCH  17  18
ENDBRANCH  14  17
ENDBRANCH   5  13
TORSDOF 4
ENDMDL
MODEL 4
REMARK VINA RESULT:      -6.4      1.238      1.670
REMARK  Name = 
REMARK  7 active torsions:
REMARK  status: ('A' for Active; 'I' for Inactive)
REMARK    1  A    between atoms: C_1  and  C_2
REMARK    2  A    between atoms: C_2  and  C_3
REMARK    3  A    between atoms: C_2  and  C_4
REMARK    4  A    between atoms: C_2  and  N_5
REMARK    5  A    between atoms: C_9  and  N_10
REMARK    6  A    between atoms: C_11  and  C_13
REMARK    7  A    between atoms: C_13  and  C_14
REMARK                            x       y       z     vdW  Elec       q    Type
REMARK                         _______ _______ _______ _____ _____    ______ ____
ROOT
ATOM      1  N   UNL     1       6.873   5.107  16.327  0.00  0.00    +0.000 N 
ATOM      2  N   UNL     1       7.417   5.813  15.300  0.00  0.00    +0.000 NA
ATOM      3  C   UNL     1       7.103   5.109  14.226  0.00  0.00    +0.000 A 
ATOM      4  C   UNL     1       6.341   3.970  14.517  0.00  0.00    +0.000 A 
ATOM      5  C   UNL     1       6.141   3.990  15.884  0.00  0.00    +0.000 A 
ATOM      6  C   UNL     1       6.022   3.121  13.346  0.00  0.00    +0.000 C 
ATOM      7  S   UNL     1       7.046   3.809  11.960  0.00  0.00    +0.000 S 
ATOM      8  C   UNL     1       7.494   5.380  12.828  0.00  0.00    +0.000 C 
ENDROOT
BRANCH   1  10
ATOM      9  C   UNL     1       5.756   5.703  18.493  0.00  0.00    +0.000 C 
ATOM     10  C   UNL     1       7.089   5.628  17.693  0.00  0.00    +0.000 C 
ATOM     11  C   UNL     1       7.654   7.059  17.649  0.00  0.00    +0.000 C 
ATOM     12  C   UNL     1       8.031   4.702  18.481  0.00  0.00    +0.000 C 
ENDBRANCH   1  10
BRANCH   5  13
ATOM     13  N   UNL     1       5.398   3.102  16.676  0.00  0.00    +0.000 N 
ATOM     14  C   UNL     1       3.996   3.268  17.003  0.00  0.00    +0.000 C 
ATOM     15  O   UNL     1       3.363   4.235  16.597  0.00  0.00    +0.000 OA
ATOM     16  H   UNL     1       5.874   2.314  17.096  0.00  0.00    +0.000 HD
BRANCH  14  17
ATOM     17  C   UNL     1       3.389   2.278  17.965  0.00  0.00    +0.000 C 
BRANCH  17  18
ATOM     18  C   UNL     1       2.654   2.952  19.074  0.00  0.00    +0.000 A 
ATOM     19  C   UNL     1       3.178   3.610  20.170  0.00  0.00    +0.000 A 
ATOM     20  C   UNL     1       2.168   4.022  21.088  0.00  0.00    +0.000 A 
ATOM     21  C   UNL     1       0.908   3.675  20.654  0.00  0.00    +0.000 A 
ATOM     22  S   UNL     1       0.943   2.884  19.139  0.00  0.00    +0.000 S 
ENDBRANCH  17  18
ENDBRANCH  14  17
ENDBRANCH   5  13
TORSDOF 4
ENDMDL
MODEL 5
REMARK VINA RESULT:      -6.4      3.972      6.055
REMARK  Name = 
REMARK  7 active torsions:
REMARK  status: ('A' for Active; 'I' for Inactive)
REMARK    1  A    between atoms: C_1  and  C_2
REMARK    2  A    between atoms: C_2  and  C_3
REMARK    3  A    between atoms: C_2  and  C_4
REMARK    4  A    between atoms: C_2  and  N_5
REMARK    5  A    between atoms: C_9  and  N_10
REMARK    6  A    between atoms: C_11  and  C_13
REMARK    7  A    between atoms: C_13  and  C_14
REMARK                            x       y       z     vdW  Elec       q    Type
REMARK                         _______ _______ _______ _____ _____    ______ ____
ROOT
ATOM      1  N   UNL     1       4.645   5.010  18.080  0.00  0.00    +0.000 N 
ATOM      2  N   UNL     1       4.866   3.843  18.742  0.00  0.00    +0.000 NA
ATOM      3  C   UNL     1       3.776   3.677  19.471  0.00  0.00    +0.000 A 
ATOM      4  C   UNL     1       2.828   4.691  19.284  0.00  0.00    +0.000 A 
ATOM      5  C   UNL     1       3.367   5.540  18.336  0.00  0.00    +0.000 A 
ATOM      6  C   UNL     1       1.619   4.574  20.131  0.00  0.00    +0.000 C 
ATOM      7  S   UNL     1       2.005   3.218  21.337  0.00  0.00    +0.000 S 
ATOM      8  C   UNL     1       3.498   2.596  20.438  0.00  0.00    +0.000 C 
ENDROOT
BRANCH   1  10
ATOM      9  C   UNL     1       5.332   5.364  15.693  0.00  0.00    +0.000 C 
ATOM     10  C   UNL     1       5.722   5.498  17.194  0.00  0.00    +0.000 C 
ATOM     11  C   UNL     1       7.006   4.672  17.389  0.00  0.00    +0.000 C 
ATOM     12  C   UNL     1       6.000   6.989  17.451  0.00  0.00    +0.000 C 
ENDBRANCH   1  10
BRANCH   5  13
ATOM     13  N   UNL     1       2.798   6.684  17.758  0.00  0.00    +0.000 N 
ATOM     14  C   UNL     1       2.297   7.820  18.507  0.00  0.00    +0.000 C 
ATOM     15  O   UNL     1       2.337   7.837  19.731  0.00  0.00    +0.000 OA
ATOM     16  H   UNL     1       2.677   6.710  16.754  0.00  0.00    +0.000 HD
BRANCH  14  17
ATOM     17  C   UNL     1       1.608   8.912  17.727  0.00  0.00    +0.000 C 
BRANCH  17  18
ATOM     18  C   UNL     1       1.013   9.948  18.619  0.00  0.00    +0.000 A 
ATOM     19  C   UNL     1      -0.145   9.867  19.368  0.00  0.00    +0.000 A 
ATOM     20  C   UNL     1      -0.466  11.103  20.002  0.00  0.00    +0.000 A 
ATOM     21  C   UNL     1       0.464  12.079  19.725  0.00  0.00    +0.000 A 
ATOM     22  S   UNL     1       1.729  11.501  18.731  0.00  0.00    +0.000 S 
ENDBRANCH  17  18
ENDBRANCH  14  17
ENDBRANCH   5  13
TORSDOF 4
ENDMDL
MODEL 6
REMARK VINA RESULT:      -6.3      3.754      5.737
REMARK  Name = 
REMARK  7 active torsions:
REMARK  status: ('A' for Active; 'I' for Inactive)
REMARK    1  A    between atoms: C_1  and  C_2
REMARK    2  A    between atoms: C_2  and  C_3
REMARK    3  A    between atoms: C_2  and  C_4
REMARK    4  A    between atoms: C_2  and  N_5
REMARK    5  A    between atoms: C_9  and  N_10
REMARK    6  A    between atoms: C_11  and  C_13
REMARK    7  A    between atoms: C_13  and  C_14
REMARK                            x       y       z     vdW  Elec       q    Type
REMARK                         _______ _______ _______ _____ _____    ______ ____
ROOT
ATOM      1  N   UNL     1       5.048   5.100  17.966  0.00  0.00    +0.000 N 
ATOM      2  N   UNL     1       5.093   3.768  18.231  0.00  0.00    +0.000 NA
ATOM      3  C   UNL     1       4.161   3.592  19.151  0.00  0.00    +0.000 A 
ATOM      4  C   UNL     1       3.481   4.773  19.479  0.00  0.00    +0.000 A 
ATOM      5  C   UNL     1       4.021   5.754  18.669  0.00  0.00    +0.000 A 
ATOM      6  C   UNL     1       2.470   4.630  20.552  0.00  0.00    +0.000 C 
ATOM      7  S   UNL     1       2.731   2.924  21.234  0.00  0.00    +0.000 S 
ATOM      8  C   UNL     1       3.814   2.340  19.852  0.00  0.00    +0.000 C 
ENDROOT
BRANCH   1  10
ATOM      9  C   UNL     1       6.961   4.504  16.455  0.00  0.00    +0.000 C 
ATOM     10  C   UNL     1       6.019   5.626  16.984  0.00  0.00    +0.000 C 
ATOM     11  C   UNL     1       6.924   6.691  17.627  0.00  0.00    +0.000 C 
ATOM     12  C   UNL     1       5.290   6.208  15.761  0.00  0.00    +0.000 C 
ENDBRANCH   1  10
BRANCH   5  13
ATOM     13  N   UNL     1       3.657   7.105  18.567  0.00  0.00    +0.000 N 
ATOM     14  C   UNL     1       2.397   7.578  18.029  0.00  0.00    +0.000 C 
ATOM     15  O   UNL     1       1.553   6.794  17.612  0.00  0.00    +0.000 OA
ATOM     16  H   UNL     1       4.331   7.809  18.835  0.00  0.00    +0.000 HD
BRANCH  14  17
ATOM     17  C   UNL     1       2.224   9.070  17.884  0.00  0.00    +0.000 C 
BRANCH  17  18
ATOM     18  C   UNL     1       0.973   9.555  18.536  0.00  0.00    +0.000 A 
ATOM     19  C   UNL     1      -0.182  10.013  17.932  0.00  0.00    +0.000 A 
ATOM     20  C   UNL     1      -1.125  10.512  18.878  0.00  0.00    +0.000 A 
ATOM     21  C   UNL     1      -0.662  10.406  20.170  0.00  0.00    +0.000 A 
ATOM     22  S   UNL     1       0.886   9.684  20.243  0.00  0.00    +0.000 S 
ENDBRANCH  17  18
ENDBRANCH  14  17
ENDBRANCH   5  13
TORSDOF 4
ENDMDL
MODEL 7
REMARK VINA RESULT:      -6.3      3.736      6.165
REMARK  Name = 
REMARK  7 active torsions:
REMARK  status: ('A' for Active; 'I' for Inactive)
REMARK    1  A    between atoms: C_1  and  C_2
REMARK    2  A    between atoms: C_2  and  C_3
REMARK    3  A    between atoms: C_2  and  C_4
REMARK    4  A    between atoms: C_2  and  N_5
REMARK    5  A    between atoms: C_9  and  N_10
REMARK    6  A    between atoms: C_11  and  C_13
REMARK    7  A    between atoms: C_13  and  C_14
REMARK                            x       y       z     vdW  Elec       q    Type
REMARK                         _______ _______ _______ _____ _____    ______ ____
ROOT
ATOM      1  N   UNL     1       4.630   4.956  18.141  0.00  0.00    +0.000 N 
ATOM      2  N   UNL     1       4.876   3.819  18.844  0.00  0.00    +0.000 NA
ATOM      3  C   UNL     1       3.786   3.648  19.571  0.00  0.00    +0.000 A 
ATOM      4  C   UNL     1       2.813   4.631  19.344  0.00  0.00    +0.000 A 
ATOM      5  C   UNL     1       3.337   5.460  18.370  0.00  0.00    +0.000 A 
ATOM      6  C   UNL     1       1.601   4.511  20.186  0.00  0.00    +0.000 C 
ATOM      7  S   UNL     1       2.014   3.207  21.440  0.00  0.00    +0.000 S 
ATOM      8  C   UNL     1       3.529   2.595  20.573  0.00  0.00    +0.000 C 
ENDROOT
BRANCH   1  10
ATOM      9  C   UNL     1       5.943   6.969  17.422  0.00  0.00    +0.000 C 
ATOM     10  C   UNL     1       5.701   5.441  17.246  0.00  0.00    +0.000 C 
ATOM     11  C   UNL     1       5.319   5.226  15.771  0.00  0.00    +0.000 C 
ATOM     12  C   UNL     1       7.032   4.739  17.565  0.00  0.00    +0.000 C 
ENDBRANCH   1  10
BRANCH   5  13
ATOM     13  N   UNL     1       2.743   6.569  17.750  0.00  0.00    +0.000 N 
ATOM     14  C   UNL     1       2.267   7.745  18.450  0.00  0.00    +0.000 C 
ATOM     15  O   UNL     1       2.354   7.833  19.669  0.00  0.00    +0.000 OA
ATOM     16  H   UNL     1       2.582   6.537  16.752  0.00  0.00    +0.000 HD
BRANCH  14  17
ATOM     17  C   UNL     1       1.546   8.790  17.636  0.00  0.00    +0.000 C 
BRANCH  17  18
ATOM     18  C   UNL     1       1.276  10.027  18.424  0.00  0.00    +0.000 A 
ATOM     19  C   UNL     1       2.014  11.195  18.458  0.00  0.00    +0.000 A 
ATOM     20  C   UNL     1       1.519  12.119  19.424  0.00  0.00    +0.000 A 
ATOM     21  C   UNL     1       0.414  11.629  20.084  0.00  0.00    +0.000 A 
ATOM     22  S   UNL     1      -0.038  10.079  19.522  0.00  0.00    +0.000 S 
ENDBRANCH  17  18
ENDBRANCH  14  17
ENDBRANCH   5  13
TORSDOF 4
ENDMDL
MODEL 8
REMARK VINA RESULT:      -6.3      3.889      5.892
REMARK  Name = 
REMARK  7 active torsions:
REMARK  status: ('A' for Active; 'I' for Inactive)
REMARK    1  A    between atoms: C_1  and  C_2
REMARK    2  A    between atoms: C_2  and  C_3
REMARK    3  A    between atoms: C_2  and  C_4
REMARK    4  A    between atoms: C_2  and  N_5
REMARK    5  A    between atoms: C_9  and  N_10
REMARK    6  A    between atoms: C_11  and  C_13
REMARK    7  A    between atoms: C_13  and  C_14
REMARK                            x       y       z     vdW  Elec       q    Type
REMARK                         _______ _______ _______ _____ _____    ______ ____
ROOT
ATOM      1  N   UNL     1       5.118   5.045  18.540  0.00  0.00    +0.000 N 
ATOM      2  N   UNL     1       5.172   3.837  19.162  0.00  0.00    +0.000 NA
ATOM      3  C   UNL     1       3.931   3.630  19.567  0.00  0.00    +0.000 A 
ATOM      4  C   UNL     1       3.053   4.659  19.202  0.00  0.00    +0.000 A 
ATOM      5  C   UNL     1       3.812   5.564  18.484  0.00  0.00    +0.000 A 
ATOM      6  C   UNL     1       1.665   4.493  19.692  0.00  0.00    +0.000 C 
ATOM      7  S   UNL     1       1.738   3.061  20.869  0.00  0.00    +0.000 S 
ATOM      8  C   UNL     1       3.422   2.491  20.357  0.00  0.00    +0.000 C 
ENDROOT
BRANCH   1  10
ATOM      9  C   UNL     1       6.172   6.968  17.320  0.00  0.00    +0.000 C 
ATOM     10  C   UNL     1       6.384   5.584  18.001  0.00  0.00    +0.000 C 
ATOM     11  C   UNL     1       6.960   4.649  16.923  0.00  0.00    +0.000 C 
ATOM     12  C   UNL     1       7.406   5.795  19.131  0.00  0.00    +0.000 C 
ENDBRANCH   1  10
BRANCH   5  13
ATOM     13  N   UNL     1       3.401   6.746  17.850  0.00  0.00    +0.000 N 
ATOM     14  C   UNL     1       2.612   7.785  18.482  0.00  0.00    +0.000 C 
ATOM     15  O   UNL     1       2.243   7.679  19.645  0.00  0.00    +0.000 OA
ATOM     16  H   UNL     1       3.618   6.870  16.870  0.00  0.00    +0.000 HD
BRANCH  14  17
ATOM     17  C   UNL     1       2.159   8.932  17.614  0.00  0.00    +0.000 C 
BRANCH  17  18
ATOM     18  C   UNL     1       0.976   9.636  18.188  0.00  0.00    +0.000 A 
ATOM     19  C   UNL     1      -0.356   9.473  17.861  0.00  0.00    +0.000 A 
ATOM     20  C   UNL     1      -1.196  10.410  18.530  0.00  0.00    +0.000 A 
ATOM     21  C   UNL     1      -0.477  11.247  19.354  0.00  0.00    +0.000 A 
ATOM     22  S   UNL     1       1.194  10.886  19.340  0.00  0.00    +0.000 S 
ENDBRANCH  17  18
ENDBRANCH  14  17
ENDBRANCH   5  13
TORSDOF 4
ENDMDL
MODEL 9
REMARK VINA RESULT:      -6.2      4.123      5.841
REMARK  Name = 
REMARK  7 active torsions:
REMARK  status: ('A' for Active; 'I' for Inactive)
REMARK    1  A    between atoms: C_1  and  C_2
REMARK    2  A    between atoms: C_2  and  C_3
REMARK    3  A    between atoms: C_2  and  C_4
REMARK    4  A    between atoms: C_2  and  N_5
REMARK    5  A    between atoms: C_9  and  N_10
REMARK    6  A    between atoms: C_11  and  C_13
REMARK    7  A    between atoms: C_13  and  C_14
REMARK                            x       y       z     vdW  Elec       q    Type
REMARK                         _______ _______ _______ _____ _____    ______ ____
ROOT
ATOM      1  N   UNL     1       2.991   4.021  19.044  0.00  0.00    +0.000 N 
ATOM      2  N   UNL     1       3.680   3.294  18.125  0.00  0.00    +0.000 NA
ATOM      3  C   UNL     1       4.383   4.196  17.463  0.00  0.00    +0.000 A 
ATOM      4  C   UNL     1       4.196   5.500  17.942  0.00  0.00    +0.000 A 
ATOM      5  C   UNL     1       3.327   5.386  19.011  0.00  0.00    +0.000 A 
ATOM      6  C   UNL     1       4.918   6.549  17.186  0.00  0.00    +0.000 C 
ATOM      7  S   UNL     1       5.583   5.687  15.683  0.00  0.00    +0.000 S 
ATOM      8  C   UNL     1       5.270   3.973  16.304  0.00  0.00    +0.000 C 
ENDROOT
BRANCH   1  10
ATOM      9  C   UNL     1       2.695   3.038  21.334  0.00  0.00    +0.000 C 
ATOM     10  C   UNL     1       2.066   3.285  19.931  0.00  0.00    +0.000 C 
ATOM     11  C   UNL     1       1.737   1.900  19.348  0.00  0.00    +0.000 C 
ATOM     12  C   UNL     1       0.777   4.093  20.156  0.00  0.00    +0.000 C 
ENDBRANCH   1  10
BRANCH   5  13
ATOM     13  N   UNL     1       2.858   6.391  19.870  0.00  0.00    +0.000 N 
ATOM     14  C   UNL     1       2.101   7.550  19.442  0.00  0.00    +0.000 C 
ATOM     15  O   UNL     1       1.826   7.725  18.262  0.00  0.00    +0.000 OA
ATOM     16  H   UNL     1       3.102   6.342  20.851  0.00  0.00    +0.000 HD
BRANCH  14  17
ATOM     17  C   UNL     1       1.781   8.590  20.487  0.00  0.00    +0.000 C 
BRANCH  17  18
ATOM     18  C   UNL     1       0.838   9.627  19.976  0.00  0.00    +0.000 A 
ATOM     19  C   UNL     1      -0.538   9.661  20.092  0.00  0.00    +0.000 A 
ATOM     20  C   UNL     1      -1.115  10.745  19.368  0.00  0.00    +0.000 A 
ATOM     21  C   UNL     1      -0.159  11.507  18.735  0.00  0.00    +0.000 A 
ATOM     22  S   UNL     1       1.424  10.934  19.035  0.00  0.00    +0.000 S 
ENDBRANCH  17  18
ENDBRANCH  14  17
ENDBRANCH   5  13
TORSDOF 4
ENDMDL
