MODEL 1
REMARK VINA RESULT:      -8.4      0.000      0.000
REMARK  Name = 
REMARK  11 active torsions:
REMARK  status: ('A' for Active; 'I' for Inactive)
REMARK    1  A    between atoms: C_1  and  C_2
REMARK    2  A    between atoms: C_5  and  C_6
REMARK    3  A    between atoms: N_8  and  C_9
REMARK    4  A    between atoms: C_9  and  C_10
REMARK    5  A    between atoms: C_10  and  C_11
REMARK    6  A    between atoms: C_11  and  C_12
REMARK    7  A    between atoms: C_12  and  N_13
REMARK    8  A    between atoms: C_14  and  C_15
REMARK    9  A    between atoms: C_18  and  O_19
REMARK   10  A    between atoms: C_22  and  C_23
REMARK   11  A    between atoms: C_26  and  O_27
REMARK                            x       y       z     vdW  Elec       q    Type
REMARK                         _______ _______ _______ _____ _____    ______ ____
ROOT
ATOM      1  N   UNL     1       4.059   5.174  18.550  0.00  0.00    +0.000 N 
ATOM      2  C   UNL     1       4.440   4.163  17.654  0.00  0.00    +0.000 A 
ATOM      3  C   UNL     1       3.830   2.985  18.105  0.00  0.00    +0.000 A 
ATOM      4  C   UNL     1       3.859   1.621  17.490  0.00  0.00    +0.000 C 
ATOM      5  C   UNL     1       3.118   3.282  19.306  0.00  0.00    +0.000 A 
ATOM      6  C   UNL     1       2.341   2.494  20.183  0.00  0.00    +0.000 A 
ATOM      7  C   UNL     1       1.750   3.092  21.294  0.00  0.00    +0.000 A 
ATOM      8  C   UNL     1       1.907   4.444  21.548  0.00  0.00    +0.000 A 
ATOM      9  C   UNL     1       2.671   5.243  20.692  0.00  0.00    +0.000 A 
ATOM     10  C   UNL     1       3.273   4.640  19.568  0.00  0.00    +0.000 A 
ENDROOT
BRANCH   2  11
ATOM     11  C   UNL     1       5.353   4.314  16.496  0.00  0.00    +0.000 A 
ATOM     12  C   UNL     1       6.710   4.636  16.684  0.00  0.00    +0.000 A 
ATOM     13  C   UNL     1       7.555   4.915  15.607  0.00  0.00    +0.000 A 
ATOM     14  C   UNL     1       7.041   4.875  14.322  0.00  0.00    +0.000 A 
ATOM     15  C   UNL     1       5.745   4.458  14.096  0.00  0.00    +0.000 A 
ATOM     16  C   UNL     1       4.918   4.155  15.177  0.00  0.00    +0.000 A 
BRANCH  14  17
ATOM     17  O   UNL     1       7.784   5.265  13.254  0.00  0.00    +0.000 OA
ATOM     18  H   UNL     1       8.514   4.633  13.158  0.00  0.00    +0.000 HD
ENDBRANCH  14  17
ENDBRANCH   2  11
BRANCH   7  19
ATOM     19  O   UNL     1       0.996   2.363  22.167  0.00  0.00    +0.000 OA
ATOM     20  H   UNL     1       1.564   2.095  22.908  0.00  0.00    +0.000 HD
ENDBRANCH   7  19
BRANCH   1  21
ATOM     21  C   UNL     1       4.348   6.611  18.504  0.00  0.00    +0.000 C 
BRANCH  21  22
ATOM     22  C   UNL     1       3.452   7.403  17.549  0.00  0.00    +0.000 C 
BRANCH  22  23
ATOM     23  C   UNL     1       2.144   7.917  18.169  0.00  0.00    +0.000 C 
BRANCH  23  24
ATOM     24  C   UNL     1       1.923   9.390  17.856  0.00  0.00    +0.000 C 
BRANCH  24  27
ATOM     25  C   UNL     1      -0.151  10.440  18.627  0.00  0.00    +0.000 C 
ATOM     26  O   UNL     1       0.374  10.854  19.667  0.00  0.00    +0.000 OA
ATOM     27  N   UNL     1       0.524   9.705  17.686  0.00  0.00    +0.000 N 
ATOM     28  H   UNL     1       0.079   9.445  16.825  0.00  0.00    +0.000 HD
BRANCH  25  33
ATOM     29  C   UNL     1      -5.684  11.754  17.486  0.00  0.00    +0.000 C 
ATOM     30  C   UNL     1      -4.252  11.419  17.788  0.00  0.00    +0.000 A 
ATOM     31  C   UNL     1      -3.587  11.994  18.873  0.00  0.00    +0.000 A 
ATOM     32  C   UNL     1      -2.253  11.666  19.139  0.00  0.00    +0.000 A 
ATOM     33  C   UNL     1      -1.580  10.766  18.316  0.00  0.00    +0.000 A 
ATOM     34  C   UNL     1      -2.238  10.185  17.238  0.00  0.00    +0.000 A 
ATOM     35  C   UNL     1      -3.573  10.507  16.969  0.00  0.00    +0.000 A 
ENDBRANCH  25  33
ENDBRANCH  24  27
ENDBRANCH  23  24
ENDBRANCH  22  23
ENDBRANCH  21  22
ENDBRANCH   1  21
TORSDOF 9
ENDMDL
MODEL 2
REMARK VINA RESULT:      -8.0      1.462      2.144
REMARK  Name = 
REMARK  11 active torsions:
REMARK  status: ('A' for Active; 'I' for Inactive)
REMARK    1  A    between atoms: C_1  and  C_2
REMARK    2  A    between atoms: C_5  and  C_6
REMARK    3  A    between atoms: N_8  and  C_9
REMARK    4  A    between atoms: C_9  and  C_10
REMARK    5  A    between atoms: C_10  and  C_11
REMARK    6  A    between atoms: C_11  and  C_12
REMARK    7  A    between atoms: C_12  and  N_13
REMARK    8  A    between atoms: C_14  and  C_15
REMARK    9  A    between atoms: C_18  and  O_19
REMARK   10  A    between atoms: C_22  and  C_23
REMARK   11  A    between atoms: C_26  and  O_27
REMARK                            x       y       z     vdW  Elec       q    Type
REMARK                         _______ _______ _______ _____ _____    ______ ____
ROOT
ATOM      1  N   UNL     1       4.004   5.192  18.562  0.00  0.00    +0.000 N 
ATOM      2  C   UNL     1       4.395   4.179  17.673  0.00  0.00    +0.000 A 
ATOM      3  C   UNL     1       3.795   2.999  18.130  0.00  0.00    +0.000 A 
ATOM      4  C   UNL     1       3.837   1.631  17.524  0.00  0.00    +0.000 C 
ATOM      5  C   UNL     1       3.078   3.297  19.328  0.00  0.00    +0.000 A 
ATOM      6  C   UNL     1       2.306   2.508  20.209  0.00  0.00    +0.000 A 
ATOM      7  C   UNL     1       1.708   3.109  21.314  0.00  0.00    +0.000 A 
ATOM      8  C   UNL     1       1.853   4.464  21.561  0.00  0.00    +0.000 A 
ATOM      9  C   UNL     1       2.612   5.263  20.700  0.00  0.00    +0.000 A 
ATOM     10  C   UNL     1       3.221   4.658  19.581  0.00  0.00    +0.000 A 
ENDROOT
BRANCH   2  11
ATOM     11  C   UNL     1       5.309   4.330  16.516  0.00  0.00    +0.000 A 
ATOM     12  C   UNL     1       6.677   4.605  16.706  0.00  0.00    +0.000 A 
ATOM     13  C   UNL     1       7.527   4.884  15.634  0.00  0.00    +0.000 A 
ATOM     14  C   UNL     1       7.009   4.892  14.350  0.00  0.00    +0.000 A 
ATOM     15  C   UNL     1       5.699   4.522  14.119  0.00  0.00    +0.000 A 
ATOM     16  C   UNL     1       4.867   4.218  15.195  0.00  0.00    +0.000 A 
BRANCH  14  17
ATOM     17  O   UNL     1       7.761   5.286  13.290  0.00  0.00    +0.000 OA
ATOM     18  H   UNL     1       8.690   5.277  13.571  0.00  0.00    +0.000 HD
ENDBRANCH  14  17
ENDBRANCH   2  11
BRANCH   7  19
ATOM     19  O   UNL     1       0.958   2.379  22.191  0.00  0.00    +0.000 OA
ATOM     20  H   UNL     1       1.534   2.097  22.921  0.00  0.00    +0.000 HD
ENDBRANCH   7  19
BRANCH   1  21
ATOM     21  C   UNL     1       4.281   6.631  18.507  0.00  0.00    +0.000 C 
BRANCH  21  22
ATOM     22  C   UNL     1       3.423   7.399  17.499  0.00  0.00    +0.000 C 
BRANCH  22  23
ATOM     23  C   UNL     1       2.086   7.915  18.050  0.00  0.00    +0.000 C 
BRANCH  23  24
ATOM     24  C   UNL     1       1.925   9.409  17.808  0.00  0.00    +0.000 C 
BRANCH  24  27
ATOM     25  C   UNL     1      -0.116  10.309  18.818  0.00  0.00    +0.000 C 
ATOM     26  O   UNL     1      -0.805  10.014  17.834  0.00  0.00    +0.000 OA
ATOM     27  N   UNL     1       1.231  10.063  18.893  0.00  0.00    +0.000 N 
ATOM     28  H   UNL     1       1.741  10.258  19.735  0.00  0.00    +0.000 HD
BRANCH  25  33
ATOM     29  C   UNL     1      -2.605  12.753  23.452  0.00  0.00    +0.000 C 
ATOM     30  C   UNL     1      -1.965  12.125  22.248  0.00  0.00    +0.000 A 
ATOM     31  C   UNL     1      -2.333  12.501  20.954  0.00  0.00    +0.000 A 
ATOM     32  C   UNL     1      -1.722  11.907  19.844  0.00  0.00    +0.000 A 
ATOM     33  C   UNL     1      -0.747  10.929  20.027  0.00  0.00    +0.000 A 
ATOM     34  C   UNL     1      -0.372  10.554  21.312  0.00  0.00    +0.000 A 
ATOM     35  C   UNL     1      -0.977  11.148  22.426  0.00  0.00    +0.000 A 
ENDBRANCH  25  33
ENDBRANCH  24  27
ENDBRANCH  23  24
ENDBRANCH  22  23
ENDBRANCH  21  22
ENDBRANCH   1  21
TORSDOF 9
ENDMDL
MODEL 3
REMARK VINA RESULT:      -7.9      3.248     10.906
REMARK  Name = 
REMARK  11 active torsions:
REMARK  status: ('A' for Active; 'I' for Inactive)
REMARK    1  A    between atoms: C_1  and  C_2
REMARK    2  A    between atoms: C_5  and  C_6
REMARK    3  A    between atoms: N_8  and  C_9
REMARK    4  A    between atoms: C_9  and  C_10
REMARK    5  A    between atoms: C_10  and  C_11
REMARK    6  A    between atoms: C_11  and  C_12
REMARK    7  A    between atoms: C_12  and  N_13
REMARK    8  A    between atoms: C_14  and  C_15
REMARK    9  A    between atoms: C_18  and  O_19
REMARK   10  A    between atoms: C_22  and  C_23
REMARK   11  A    between atoms: C_26  and  O_27
REMARK                            x       y       z     vdW  Elec       q    Type
REMARK                         _______ _______ _______ _____ _____    ______ ____
ROOT
ATOM      1  N   UNL     1      -1.750  11.493  19.812  0.00  0.00    +0.000 N 
ATOM      2  C   UNL     1      -2.718  12.291  20.442  0.00  0.00    +0.000 A 
ATOM      3  C   UNL     1      -3.814  12.345  19.570  0.00  0.00    +0.000 A 
ATOM      4  C   UNL     1      -5.137  13.016  19.770  0.00  0.00    +0.000 C 
ATOM      5  C   UNL     1      -3.482  11.615  18.390  0.00  0.00    +0.000 A 
ATOM      6  C   UNL     1      -4.186  11.347  17.195  0.00  0.00    +0.000 A 
ATOM      7  C   UNL     1      -3.580  10.572  16.208  0.00  0.00    +0.000 A 
ATOM      8  C   UNL     1      -2.305  10.059  16.379  0.00  0.00    +0.000 A 
ATOM      9  C   UNL     1      -1.592  10.312  17.555  0.00  0.00    +0.000 A 
ATOM     10  C   UNL     1      -2.201  11.097  18.556  0.00  0.00    +0.000 A 
ENDROOT
BRANCH   2  11
ATOM     11  C   UNL     1      -2.576  12.981  21.746  0.00  0.00    +0.000 A 
ATOM     12  C   UNL     1      -3.250  12.510  22.889  0.00  0.00    +0.000 A 
ATOM     13  C   UNL     1      -3.239  13.218  24.093  0.00  0.00    +0.000 A 
ATOM     14  C   UNL     1      -2.547  14.416  24.162  0.00  0.00    +0.000 A 
ATOM     15  C   UNL     1      -1.788  14.851  23.094  0.00  0.00    +0.000 A 
ATOM     16  C   UNL     1      -1.784  14.122  21.906  0.00  0.00    +0.000 A 
BRANCH  14  17
ATOM     17  O   UNL     1      -2.615  15.205  25.264  0.00  0.00    +0.000 OA
ATOM     18  H   UNL     1      -3.294  14.833  25.850  0.00  0.00    +0.000 HD
ENDBRANCH  14  17
ENDBRANCH   2  11
BRANCH   7  19
ATOM     19  O   UNL     1      -4.227  10.294  15.038  0.00  0.00    +0.000 OA
ATOM     20  H   UNL     1      -4.639  11.114  14.718  0.00  0.00    +0.000 HD
ENDBRANCH   7  19
BRANCH   1  21
ATOM     21  C   UNL     1      -0.447  11.046  20.316  0.00  0.00    +0.000 C 
BRANCH  21  22
ATOM     22  C   UNL     1      -0.516  10.262  21.629  0.00  0.00    +0.000 C 
BRANCH  22  23
ATOM     23  C   UNL     1      -0.120   8.783  21.520  0.00  0.00    +0.000 C 
BRANCH  23  24
ATOM     24  C   UNL     1       1.372   8.625  21.263  0.00  0.00    +0.000 C 
BRANCH  24  27
ATOM     25  C   UNL     1       2.212   7.137  19.508  0.00  0.00    +0.000 C 
ATOM     26  O   UNL     1       2.401   8.074  18.721  0.00  0.00    +0.000 OA
ATOM     27  N   UNL     1       1.701   7.308  20.769  0.00  0.00    +0.000 N 
ATOM     28  H   UNL     1       1.625   6.531  21.399  0.00  0.00    +0.000 HD
BRANCH  25  33
ATOM     29  C   UNL     1       3.589   1.719  17.965  0.00  0.00    +0.000 C 
ATOM     30  C   UNL     1       3.226   3.121  18.359  0.00  0.00    +0.000 A 
ATOM     31  C   UNL     1       2.185   3.805  17.726  0.00  0.00    +0.000 A 
ATOM     32  C   UNL     1       1.861   5.111  18.110  0.00  0.00    +0.000 A 
ATOM     33  C   UNL     1       2.582   5.737  19.124  0.00  0.00    +0.000 A 
ATOM     34  C   UNL     1       3.615   5.061  19.762  0.00  0.00    +0.000 A 
ATOM     35  C   UNL     1       3.942   3.753  19.384  0.00  0.00    +0.000 A 
ENDBRANCH  25  33
ENDBRANCH  24  27
ENDBRANCH  23  24
ENDBRANCH  22  23
ENDBRANCH  21  22
ENDBRANCH   1  21
TORSDOF 9
ENDMDL
MODEL 4
REMARK VINA RESULT:      -7.8      1.913      2.334
REMARK  Name = 
REMARK  11 active torsions:
REMARK  status: ('A' for Active; 'I' for Inactive)
REMARK    1  A    between atoms: C_1  and  C_2
REMARK    2  A    between atoms: C_5  and  C_6
REMARK    3  A    between atoms: N_8  and  C_9
REMARK    4  A    between atoms: C_9  and  C_10
REMARK    5  A    between atoms: C_10  and  C_11
REMARK    6  A    between atoms: C_11  and  C_12
REMARK    7  A    between atoms: C_12  and  N_13
REMARK    8  A    between atoms: C_14  and  C_15
REMARK    9  A    between atoms: C_18  and  O_19
REMARK   10  A    between atoms: C_22  and  C_23
REMARK   11  A    between atoms: C_26  and  O_27
REMARK                            x       y       z     vdW  Elec       q    Type
REMARK                         _______ _______ _______ _____ _____    ______ ____
ROOT
ATOM      1  N   UNL     1       3.722   5.194  18.337  0.00  0.00    +0.000 N 
ATOM      2  C   UNL     1       4.281   4.156  17.576  0.00  0.00    +0.000 A 
ATOM      3  C   UNL     1       3.834   2.959  18.150  0.00  0.00    +0.000 A 
ATOM      4  C   UNL     1       4.088   1.553  17.702  0.00  0.00    +0.000 C 
ATOM      5  C   UNL     1       3.041   3.280  19.292  0.00  0.00    +0.000 A 
ATOM      6  C   UNL     1       2.356   2.489  20.241  0.00  0.00    +0.000 A 
ATOM      7  C   UNL     1       1.640   3.115  21.260  0.00  0.00    +0.000 A 
ATOM      8  C   UNL     1       1.587   4.496  21.355  0.00  0.00    +0.000 A 
ATOM      9  C   UNL     1       2.258   5.297  20.426  0.00  0.00    +0.000 A 
ATOM     10  C   UNL     1       2.984   4.667  19.395  0.00  0.00    +0.000 A 
ENDROOT
BRANCH   2  11
ATOM     11  C   UNL     1       5.206   4.308  16.428  0.00  0.00    +0.000 A 
ATOM     12  C   UNL     1       6.570   4.596  16.631  0.00  0.00    +0.000 A 
ATOM     13  C   UNL     1       7.428   4.877  15.567  0.00  0.00    +0.000 A 
ATOM     14  C   UNL     1       6.924   4.874  14.278  0.00  0.00    +0.000 A 
ATOM     15  C   UNL     1       5.620   4.492  14.034  0.00  0.00    +0.000 A 
ATOM     16  C   UNL     1       4.779   4.186  15.103  0.00  0.00    +0.000 A 
BRANCH  14  17
ATOM     17  O   UNL     1       7.684   5.269  13.224  0.00  0.00    +0.000 OA
ATOM     18  H   UNL     1       8.076   6.128  13.451  0.00  0.00    +0.000 HD
ENDBRANCH  14  17
ENDBRANCH   2  11
BRANCH   7  19
ATOM     19  O   UNL     1       0.968   2.386  22.197  0.00  0.00    +0.000 OA
ATOM     20  H   UNL     1       0.462   1.695  21.738  0.00  0.00    +0.000 HD
ENDBRANCH   7  19
BRANCH   1  21
ATOM     21  C   UNL     1       3.799   6.643  18.127  0.00  0.00    +0.000 C 
BRANCH  21  22
ATOM     22  C   UNL     1       2.551   7.252  17.482  0.00  0.00    +0.000 C 
BRANCH  22  23
ATOM     23  C   UNL     1       2.149   8.629  18.029  0.00  0.00    +0.000 C 
BRANCH  23  24
ATOM     24  C   UNL     1       1.898   8.579  19.529  0.00  0.00    +0.000 C 
BRANCH  24  27
ATOM     25  C   UNL     1       0.470   9.581  21.249  0.00  0.00    +0.000 C 
ATOM     26  O   UNL     1       0.937   8.862  22.141  0.00  0.00    +0.000 OA
ATOM     27  N   UNL     1       0.869   9.507  19.939  0.00  0.00    +0.000 N 
ATOM     28  H   UNL     1       0.513  10.153  19.258  0.00  0.00    +0.000 HD
BRANCH  25  33
ATOM     29  C   UNL     1      -3.492  13.600  22.584  0.00  0.00    +0.000 C 
ATOM     30  C   UNL     1      -2.467  12.557  22.246  0.00  0.00    +0.000 A 
ATOM     31  C   UNL     1      -1.948  11.708  23.226  0.00  0.00    +0.000 A 
ATOM     32  C   UNL     1      -0.995  10.741  22.891  0.00  0.00    +0.000 A 
ATOM     33  C   UNL     1      -0.554  10.625  21.574  0.00  0.00    +0.000 A 
ATOM     34  C   UNL     1      -1.071  11.462  20.592  0.00  0.00    +0.000 A 
ATOM     35  C   UNL     1      -2.027  12.430  20.922  0.00  0.00    +0.000 A 
ENDBRANCH  25  33
ENDBRANCH  24  27
ENDBRANCH  23  24
ENDBRANCH  22  23
ENDBRANCH  21  22
ENDBRANCH   1  21
TORSDOF 9
ENDMDL
MODEL 5
REMARK VINA RESULT:      -7.8      2.301      3.136
REMARK  Name = 
REMARK  11 active torsions:
REMARK  status: ('A' for Active; 'I' for Inactive)
REMARK    1  A    between atoms: C_1  and  C_2
REMARK    2  A    between atoms: C_5  and  C_6
REMARK    3  A    between atoms: N_8  and  C_9
REMARK    4  A    between atoms: C_9  and  C_10
REMARK    5  A    between atoms: C_10  and  C_11
REMARK    6  A    between atoms: C_11  and  C_12
REMARK    7  A    between atoms: C_12  and  N_13
REMARK    8  A    between atoms: C_14  and  C_15
REMARK    9  A    between atoms: C_18  and  O_19
REMARK   10  A    between atoms: C_22  and  C_23
REMARK   11  A    between atoms: C_26  and  O_27
REMARK                            x       y       z     vdW  Elec       q    Type
REMARK                         _______ _______ _______ _____ _____    ______ ____
ROOT
ATOM      1  N   UNL     1       3.976   5.112  18.603  0.00  0.00    +0.000 N 
ATOM      2  C   UNL     1       4.425   4.098  17.745  0.00  0.00    +0.000 A 
ATOM      3  C   UNL     1       3.906   2.897  18.245  0.00  0.00    +0.000 A 
ATOM      4  C   UNL     1       4.032   1.515  17.683  0.00  0.00    +0.000 C 
ATOM      5  C   UNL     1       3.180   3.188  19.439  0.00  0.00    +0.000 A 
ATOM      6  C   UNL     1       2.467   2.379  20.352  0.00  0.00    +0.000 A 
ATOM      7  C   UNL     1       1.839   2.976  21.443  0.00  0.00    +0.000 A 
ATOM      8  C   UNL     1       1.898   4.345  21.644  0.00  0.00    +0.000 A 
ATOM      9  C   UNL     1       2.597   5.163  20.752  0.00  0.00    +0.000 A 
ATOM     10  C   UNL     1       3.236   4.562  19.647  0.00  0.00    +0.000 A 
ENDROOT
BRANCH   2  11
ATOM     11  C   UNL     1       5.319   4.269  16.575  0.00  0.00    +0.000 A 
ATOM     12  C   UNL     1       6.680   4.586  16.746  0.00  0.00    +0.000 A 
ATOM     13  C   UNL     1       7.507   4.884  15.661  0.00  0.00    +0.000 A 
ATOM     14  C   UNL     1       6.973   4.869  14.384  0.00  0.00    +0.000 A 
ATOM     15  C   UNL     1       5.672   4.458  14.172  0.00  0.00    +0.000 A 
ATOM     16  C   UNL     1       4.863   4.136  15.260  0.00  0.00    +0.000 A 
BRANCH  14  17
ATOM     17  O   UNL     1       7.699   5.279  13.312  0.00  0.00    +0.000 OA
ATOM     18  H   UNL     1       8.102   4.491  12.912  0.00  0.00    +0.000 HD
ENDBRANCH  14  17
ENDBRANCH   2  11
BRANCH   7  19
ATOM     19  O   UNL     1       1.144   2.229  22.350  0.00  0.00    +0.000 OA
ATOM     20  H   UNL     1       0.197   2.406  22.226  0.00  0.00    +0.000 HD
ENDBRANCH   7  19
BRANCH   1  21
ATOM     21  C   UNL     1       4.159   6.564  18.500  0.00  0.00    +0.000 C 
BRANCH  21  22
ATOM     22  C   UNL     1       3.018   7.292  17.785  0.00  0.00    +0.000 C 
BRANCH  22  23
ATOM     23  C   UNL     1       2.198   8.237  18.675  0.00  0.00    +0.000 C 
BRANCH  23  24
ATOM     24  C   UNL     1       1.229   9.074  17.850  0.00  0.00    +0.000 C 
BRANCH  24  27
ATOM     25  C   UNL     1       0.902  11.367  18.647  0.00  0.00    +0.000 C 
ATOM     26  O   UNL     1      -0.048  11.043  19.371  0.00  0.00    +0.000 OA
ATOM     27  N   UNL     1       1.582  10.475  17.857  0.00  0.00    +0.000 N 
ATOM     28  H   UNL     1       2.388  10.765  17.335  0.00  0.00    +0.000 HD
BRANCH  25  33
ATOM     29  C   UNL     1       2.740  16.868  18.604  0.00  0.00    +0.000 C 
ATOM     30  C   UNL     1       2.257  15.446  18.618  0.00  0.00    +0.000 A 
ATOM     31  C   UNL     1       0.954  15.128  19.007  0.00  0.00    +0.000 A 
ATOM     32  C   UNL     1       0.522  13.797  19.010  0.00  0.00    +0.000 A 
ATOM     33  C   UNL     1       1.395  12.781  18.629  0.00  0.00    +0.000 A 
ATOM     34  C   UNL     1       2.691  13.091  18.234  0.00  0.00    +0.000 A 
ATOM     35  C   UNL     1       3.128  14.421  18.226  0.00  0.00    +0.000 A 
ENDBRANCH  25  33
ENDBRANCH  24  27
ENDBRANCH  23  24
ENDBRANCH  22  23
ENDBRANCH  21  22
ENDBRANCH   1  21
TORSDOF 9
ENDMDL
MODEL 6
REMARK VINA RESULT:      -7.8      3.394     10.996
REMARK  Name = 
REMARK  11 active torsions:
REMARK  status: ('A' for Active; 'I' for Inactive)
REMARK    1  A    between atoms: C_1  and  C_2
REMARK    2  A    between atoms: C_5  and  C_6
REMARK    3  A    between atoms: N_8  and  C_9
REMARK    4  A    between atoms: C_9  and  C_10
REMARK    5  A    between atoms: C_10  and  C_11
REMARK    6  A    between atoms: C_11  and  C_12
REMARK    7  A    between atoms: C_12  and  N_13
REMARK    8  A    between atoms: C_14  and  C_15
REMARK    9  A    between atoms: C_18  and  O_19
REMARK   10  A    between atoms: C_22  and  C_23
REMARK   11  A    between atoms: C_26  and  O_27
REMARK                            x       y       z     vdW  Elec       q    Type
REMARK                         _______ _______ _______ _____ _____    ______ ____
ROOT
ATOM      1  N   UNL     1      -1.454  11.774  20.572  0.00  0.00    +0.000 N 
ATOM      2  C   UNL     1      -2.626  12.484  20.877  0.00  0.00    +0.000 A 
ATOM      3  C   UNL     1      -3.502  12.281  19.804  0.00  0.00    +0.000 A 
ATOM      4  C   UNL     1      -4.908  12.767  19.638  0.00  0.00    +0.000 C 
ATOM      5  C   UNL     1      -2.834  11.485  18.826  0.00  0.00    +0.000 A 
ATOM      6  C   UNL     1      -3.221  10.989  17.561  0.00  0.00    +0.000 A 
ATOM      7  C   UNL     1      -2.325  10.211  16.832  0.00  0.00    +0.000 A 
ATOM      8  C   UNL     1      -1.066   9.913  17.326  0.00  0.00    +0.000 A 
ATOM      9  C   UNL     1      -0.663  10.393  18.576  0.00  0.00    +0.000 A 
ATOM     10  C   UNL     1      -1.567  11.183  19.316  0.00  0.00    +0.000 A 
ENDROOT
BRANCH   2  11
ATOM     11  C   UNL     1      -2.857  13.323  22.077  0.00  0.00    +0.000 A 
ATOM     12  C   UNL     1      -3.322  12.754  23.278  0.00  0.00    +0.000 A 
ATOM     13  C   UNL     1      -3.675  13.541  24.376  0.00  0.00    +0.000 A 
ATOM     14  C   UNL     1      -3.566  14.918  24.279  0.00  0.00    +0.000 A 
ATOM     15  C   UNL     1      -3.013  15.501  23.157  0.00  0.00    +0.000 A 
ATOM     16  C   UNL     1      -2.638  14.703  22.077  0.00  0.00    +0.000 A 
BRANCH  14  17
ATOM     17  O   UNL     1      -4.020  15.731  25.267  0.00  0.00    +0.000 OA
ATOM     18  H   UNL     1      -4.258  15.170  26.023  0.00  0.00    +0.000 HD
ENDBRANCH  14  17
ENDBRANCH   2  11
BRANCH   7  19
ATOM     19  O   UNL     1      -2.661   9.716  15.605  0.00  0.00    +0.000 OA
ATOM     20  H   UNL     1      -2.901  10.463  15.032  0.00  0.00    +0.000 HD
ENDBRANCH   7  19
BRANCH   1  21
ATOM     21  C   UNL     1      -0.249  11.581  21.384  0.00  0.00    +0.000 C 
BRANCH  21  22
ATOM     22  C   UNL     1      -0.285  10.337  22.277  0.00  0.00    +0.000 C 
BRANCH  22  23
ATOM     23  C   UNL     1       0.951   9.433  22.175  0.00  0.00    +0.000 C 
BRANCH  23  24
ATOM     24  C   UNL     1       0.664   8.191  21.344  0.00  0.00    +0.000 C 
BRANCH  24  27
ATOM     25  C   UNL     1       2.091   6.567  20.192  0.00  0.00    +0.000 C 
ATOM     26  O   UNL     1       1.512   5.602  20.709  0.00  0.00    +0.000 OA
ATOM     27  N   UNL     1       1.753   7.871  20.452  0.00  0.00    +0.000 N 
ATOM     28  H   UNL     1       2.204   8.622  19.962  0.00  0.00    +0.000 HD
BRANCH  25  33
ATOM     29  C   UNL     1       6.381   5.667  16.395  0.00  0.00    +0.000 C 
ATOM     30  C   UNL     1       5.274   5.894  17.383  0.00  0.00    +0.000 A 
ATOM     31  C   UNL     1       5.216   5.181  18.583  0.00  0.00    +0.000 A 
ATOM     32  C   UNL     1       4.178   5.410  19.492  0.00  0.00    +0.000 A 
ATOM     33  C   UNL     1       3.191   6.349  19.200  0.00  0.00    +0.000 A 
ATOM     34  C   UNL     1       3.245   7.066  18.010  0.00  0.00    +0.000 A 
ATOM     35  C   UNL     1       4.284   6.844  17.098  0.00  0.00    +0.000 A 
ENDBRANCH  25  33
ENDBRANCH  24  27
ENDBRANCH  23  24
ENDBRANCH  22  23
ENDBRANCH  21  22
ENDBRANCH   1  21
TORSDOF 9
ENDMDL
MODEL 7
REMARK VINA RESULT:      -7.7      3.473     10.278
REMARK  Name = 
REMARK  11 active torsions:
REMARK  status: ('A' for Active; 'I' for Inactive)
REMARK    1  A    between atoms: C_1  and  C_2
REMARK    2  A    between atoms: C_5  and  C_6
REMARK    3  A    between atoms: N_8  and  C_9
REMARK    4  A    between atoms: C_9  and  C_10
REMARK    5  A    between atoms: C_10  and  C_11
REMARK    6  A    between atoms: C_11  and  C_12
REMARK    7  A    between atoms: C_12  and  N_13
REMARK    8  A    between atoms: C_14  and  C_15
REMARK    9  A    between atoms: C_18  and  O_19
REMARK   10  A    between atoms: C_22  and  C_23
REMARK   11  A    between atoms: C_26  and  O_27
REMARK                            x       y       z     vdW  Elec       q    Type
REMARK                         _______ _______ _______ _____ _____    ______ ____
ROOT
ATOM      1  N   UNL     1      -3.617  12.528  20.185  0.00  0.00    +0.000 N 
ATOM      2  C   UNL     1      -4.462  11.864  19.283  0.00  0.00    +0.000 A 
ATOM      3  C   UNL     1      -5.727  11.823  19.883  0.00  0.00    +0.000 A 
ATOM      4  C   UNL     1      -7.008  11.277  19.333  0.00  0.00    +0.000 C 
ATOM      5  C   UNL     1      -5.628  12.423  21.175  0.00  0.00    +0.000 A 
ATOM      6  C   UNL     1      -6.567  12.643  22.207  0.00  0.00    +0.000 A 
ATOM      7  C   UNL     1      -6.156  13.281  23.375  0.00  0.00    +0.000 A 
ATOM      8  C   UNL     1      -4.848  13.705  23.539  0.00  0.00    +0.000 A 
ATOM      9  C   UNL     1      -3.904  13.497  22.529  0.00  0.00    +0.000 A 
ATOM     10  C   UNL     1      -4.315  12.850  21.346  0.00  0.00    +0.000 A 
ENDROOT
BRANCH   2  11
ATOM     11  C   UNL     1      -4.069  11.279  17.979  0.00  0.00    +0.000 A 
ATOM     12  C   UNL     1      -3.129  10.233  17.911  0.00  0.00    +0.000 A 
ATOM     13  C   UNL     1      -2.644   9.759  16.690  0.00  0.00    +0.000 A 
ATOM     14  C   UNL     1      -3.099  10.335  15.517  0.00  0.00    +0.000 A 
ATOM     15  C   UNL     1      -4.099  11.287  15.543  0.00  0.00    +0.000 A 
ATOM     16  C   UNL     1      -4.596  11.733  16.766  0.00  0.00    +0.000 A 
BRANCH  14  17
ATOM     17  O   UNL     1      -2.563  10.002  14.314  0.00  0.00    +0.000 OA
ATOM     18  H   UNL     1      -1.718  10.473  14.230  0.00  0.00    +0.000 HD
ENDBRANCH  14  17
ENDBRANCH   2  11
BRANCH   7  19
ATOM     19  O   UNL     1      -7.032  13.509  24.397  0.00  0.00    +0.000 OA
ATOM     20  H   UNL     1      -7.328  12.649  24.740  0.00  0.00    +0.000 HD
ENDBRANCH   7  19
BRANCH   1  21
ATOM     21  C   UNL     1      -2.210  12.913  20.027  0.00  0.00    +0.000 C 
BRANCH  21  22
ATOM     22  C   UNL     1      -1.214  11.900  20.598  0.00  0.00    +0.000 C 
BRANCH  22  23
ATOM     23  C   UNL     1      -0.186  11.367  19.590  0.00  0.00    +0.000 C 
BRANCH  23  24
ATOM     24  C   UNL     1       1.052  10.827  20.292  0.00  0.00    +0.000 C 
BRANCH  24  27
ATOM     25  C   UNL     1       1.495   8.435  20.580  0.00  0.00    +0.000 C 
ATOM     26  O   UNL     1       1.217   8.468  21.786  0.00  0.00    +0.000 OA
ATOM     27  N   UNL     1       1.454   9.542  19.770  0.00  0.00    +0.000 N 
ATOM     28  H   UNL     1       1.622   9.460  18.784  0.00  0.00    +0.000 HD
BRANCH  25  33
ATOM     29  C   UNL     1       2.879   3.384  18.090  0.00  0.00    +0.000 C 
ATOM     30  C   UNL     1       2.518   4.687  18.742  0.00  0.00    +0.000 A 
ATOM     31  C   UNL     1       1.992   4.729  20.034  0.00  0.00    +0.000 A 
ATOM     32  C   UNL     1       1.665   5.955  20.625  0.00  0.00    +0.000 A 
ATOM     33  C   UNL     1       1.859   7.141  19.921  0.00  0.00    +0.000 A 
ATOM     34  C   UNL     1       2.389   7.107  18.636  0.00  0.00    +0.000 A 
ATOM     35  C   UNL     1       2.720   5.884  18.041  0.00  0.00    +0.000 A 
ENDBRANCH  25  33
ENDBRANCH  24  27
ENDBRANCH  23  24
ENDBRANCH  22  23
ENDBRANCH  21  22
ENDBRANCH   1  21
TORSDOF 9
ENDMDL
MODEL 8
REMARK VINA RESULT:      -7.7      0.950      5.123
REMARK  Name = 
REMARK  11 active torsions:
REMARK  status: ('A' for Active; 'I' for Inactive)
REMARK    1  A    between atoms: C_1  and  C_2
REMARK    2  A    between atoms: C_5  and  C_6
REMARK    3  A    between atoms: N_8  and  C_9
REMARK    4  A    between atoms: C_9  and  C_10
REMARK    5  A    between atoms: C_10  and  C_11
REMARK    6  A    between atoms: C_11  and  C_12
REMARK    7  A    between atoms: C_12  and  N_13
REMARK    8  A    between atoms: C_14  and  C_15
REMARK    9  A    between atoms: C_18  and  O_19
REMARK   10  A    between atoms: C_22  and  C_23
REMARK   11  A    between atoms: C_26  and  O_27
REMARK                            x       y       z     vdW  Elec       q    Type
REMARK                         _______ _______ _______ _____ _____    ______ ____
ROOT
ATOM      1  N   UNL     1       4.100   5.136  18.037  0.00  0.00    +0.000 N 
ATOM      2  C   UNL     1       3.785   3.799  18.324  0.00  0.00    +0.000 A 
ATOM      3  C   UNL     1       4.376   3.028  17.316  0.00  0.00    +0.000 A 
ATOM      4  C   UNL     1       4.398   1.539  17.166  0.00  0.00    +0.000 C 
ATOM      5  C   UNL     1       5.009   3.912  16.391  0.00  0.00    +0.000 A 
ATOM      6  C   UNL     1       5.737   3.697  15.200  0.00  0.00    +0.000 A 
ATOM      7  C   UNL     1       6.252   4.793  14.510  0.00  0.00    +0.000 A 
ATOM      8  C   UNL     1       6.067   6.084  14.974  0.00  0.00    +0.000 A 
ATOM      9  C   UNL     1       5.350   6.318  16.151  0.00  0.00    +0.000 A 
ATOM     10  C   UNL     1       4.826   5.212  16.851  0.00  0.00    +0.000 A 
ENDROOT
BRANCH   2  11
ATOM     11  C   UNL     1       2.944   3.316  19.446  0.00  0.00    +0.000 A 
ATOM     12  C   UNL     1       1.551   3.520  19.445  0.00  0.00    +0.000 A 
ATOM     13  C   UNL     1       0.760   3.196  20.549  0.00  0.00    +0.000 A 
ATOM     14  C   UNL     1       1.363   2.660  21.674  0.00  0.00    +0.000 A 
ATOM     15  C   UNL     1       2.708   2.347  21.668  0.00  0.00    +0.000 A 
ATOM     16  C   UNL     1       3.483   2.650  20.550  0.00  0.00    +0.000 A 
BRANCH  14  17
ATOM     17  O   UNL     1       0.661   2.451  22.817  0.00  0.00    +0.000 OA
ATOM     18  H   UNL     1       1.251   2.005  23.446  0.00  0.00    +0.000 HD
ENDBRANCH  14  17
ENDBRANCH   2  11
BRANCH   7  19
ATOM     19  O   UNL     1       6.958   4.627  13.353  0.00  0.00    +0.000 OA
ATOM     20  H   UNL     1       6.832   5.419  12.806  0.00  0.00    +0.000 HD
ENDBRANCH   7  19
BRANCH   1  21
ATOM     21  C   UNL     1       3.800   6.346  18.810  0.00  0.00    +0.000 C 
BRANCH  21  22
ATOM     22  C   UNL     1       2.443   6.977  18.487  0.00  0.00    +0.000 C 
BRANCH  22  23
ATOM     23  C   UNL     1       2.492   8.133  17.478  0.00  0.00    +0.000 C 
BRANCH  23  24
ATOM     24  C   UNL     1       2.056   9.445  18.115  0.00  0.00    +0.000 C 
BRANCH  24  27
ATOM     25  C   UNL     1      -0.023  10.571  18.754  0.00  0.00    +0.000 C 
ATOM     26  O   UNL     1       0.523  11.184  19.680  0.00  0.00    +0.000 OA
ATOM     27  N   UNL     1       0.643   9.689  17.941  0.00  0.00    +0.000 N 
ATOM     28  H   UNL     1       0.179   9.263  17.160  0.00  0.00    +0.000 HD
BRANCH  25  33
ATOM     29  C   UNL     1      -5.623  11.400  17.492  0.00  0.00    +0.000 C 
ATOM     30  C   UNL     1      -4.173  11.180  17.813  0.00  0.00    +0.000 A 
ATOM     31  C   UNL     1      -3.416  10.228  17.126  0.00  0.00    +0.000 A 
ATOM     32  C   UNL     1      -2.065  10.040  17.437  0.00  0.00    +0.000 A 
ATOM     33  C   UNL     1      -1.470  10.800  18.442  0.00  0.00    +0.000 A 
ATOM     34  C   UNL     1      -2.216  11.753  19.126  0.00  0.00    +0.000 A 
ATOM     35  C   UNL     1      -3.568  11.948  18.816  0.00  0.00    +0.000 A 
ENDBRANCH  25  33
ENDBRANCH  24  27
ENDBRANCH  23  24
ENDBRANCH  22  23
ENDBRANCH  21  22
ENDBRANCH   1  21
TORSDOF 9
ENDMDL
MODEL 9
REMARK VINA RESULT:      -7.7      2.956     10.964
REMARK  Name = 
REMARK  11 active torsions:
REMARK  status: ('A' for Active; 'I' for Inactive)
REMARK    1  A    between atoms: C_1  and  C_2
REMARK    2  A    between atoms: C_5  and  C_6
REMARK    3  A    between atoms: N_8  and  C_9
REMARK    4  A    between atoms: C_9  and  C_10
REMARK    5  A    between atoms: C_10  and  C_11
REMARK    6  A    between atoms: C_11  and  C_12
REMARK    7  A    between atoms: C_12  and  N_13
REMARK    8  A    between atoms: C_14  and  C_15
REMARK    9  A    between atoms: C_18  and  O_19
REMARK   10  A    between atoms: C_22  and  C_23
REMARK   11  A    between atoms: C_26  and  O_27
REMARK                            x       y       z     vdW  Elec       q    Type
REMARK                         _______ _______ _______ _____ _____    ______ ____
ROOT
ATOM      1  N   UNL     1      -2.073  11.486  19.305  0.00  0.00    +0.000 N 
ATOM      2  C   UNL     1      -3.055  12.288  19.907  0.00  0.00    +0.000 A 
ATOM      3  C   UNL     1      -4.141  12.315  19.023  0.00  0.00    +0.000 A 
ATOM      4  C   UNL     1      -5.472  12.977  19.194  0.00  0.00    +0.000 C 
ATOM      5  C   UNL     1      -3.789  11.564  17.861  0.00  0.00    +0.000 A 
ATOM      6  C   UNL     1      -4.477  11.266  16.664  0.00  0.00    +0.000 A 
ATOM      7  C   UNL     1      -3.854  10.478  15.699  0.00  0.00    +0.000 A 
ATOM      8  C   UNL     1      -2.577   9.980  15.895  0.00  0.00    +0.000 A 
ATOM      9  C   UNL     1      -1.879  10.263  17.073  0.00  0.00    +0.000 A 
ATOM     10  C   UNL     1      -2.506  11.061  18.051  0.00  0.00    +0.000 A 
ENDROOT
BRANCH   2  11
ATOM     11  C   UNL     1      -2.934  13.004  21.199  0.00  0.00    +0.000 A 
ATOM     12  C   UNL     1      -3.565  12.515  22.359  0.00  0.00    +0.000 A 
ATOM     13  C   UNL     1      -3.577  13.241  23.551  0.00  0.00    +0.000 A 
ATOM     14  C   UNL     1      -2.952  14.476  23.593  0.00  0.00    +0.000 A 
ATOM     15  C   UNL     1      -2.233  14.936  22.508  0.00  0.00    +0.000 A 
ATOM     16  C   UNL     1      -2.205  14.189  21.331  0.00  0.00    +0.000 A 
BRANCH  14  17
ATOM     17  O   UNL     1      -3.049  15.277  24.684  0.00  0.00    +0.000 OA
ATOM     18  H   UNL     1      -2.549  16.088  24.497  0.00  0.00    +0.000 HD
ENDBRANCH  14  17
ENDBRANCH   2  11
BRANCH   7  19
ATOM     19  O   UNL     1      -4.485  10.171  14.528  0.00  0.00    +0.000 OA
ATOM     20  H   UNL     1      -5.443  10.215  14.679  0.00  0.00    +0.000 HD
ENDBRANCH   7  19
BRANCH   1  21
ATOM     21  C   UNL     1      -0.772  11.061  19.831  0.00  0.00    +0.000 C 
BRANCH  21  22
ATOM     22  C   UNL     1       0.424  11.793  19.217  0.00  0.00    +0.000 C 
BRANCH  22  23
ATOM     23  C   UNL     1       1.453  10.884  18.530  0.00  0.00    +0.000 C 
BRANCH  23  24
ATOM     24  C   UNL     1       1.305   9.437  18.980  0.00  0.00    +0.000 C 
BRANCH  24  27
ATOM     25  C   UNL     1       2.544   7.334  18.781  0.00  0.00    +0.000 C 
ATOM     26  O   UNL     1       2.157   6.932  19.885  0.00  0.00    +0.000 OA
ATOM     27  N   UNL     1       2.190   8.552  18.259  0.00  0.00    +0.000 N 
ATOM     28  H   UNL     1       2.472   8.812  17.332  0.00  0.00    +0.000 HD
BRANCH  25  33
ATOM     29  C   UNL     1       5.853   3.917  15.463  0.00  0.00    +0.000 C 
ATOM     30  C   UNL     1       4.992   4.795  16.324  0.00  0.00    +0.000 A 
ATOM     31  C   UNL     1       3.911   4.272  17.037  0.00  0.00    +0.000 A 
ATOM     32  C   UNL     1       3.122   5.107  17.837  0.00  0.00    +0.000 A 
ATOM     33  C   UNL     1       3.411   6.467  17.919  0.00  0.00    +0.000 A 
ATOM     34  C   UNL     1       4.489   6.993  17.217  0.00  0.00    +0.000 A 
ATOM     35  C   UNL     1       5.283   6.162  16.418  0.00  0.00    +0.000 A 
ENDBRANCH  25  33
ENDBRANCH  24  27
ENDBRANCH  23  24
ENDBRANCH  22  23
ENDBRANCH  21  22
ENDBRANCH   1  21
TORSDOF 9
ENDMDL
