MODEL 1
REMARK VINA RESULT:      -8.1      0.000      0.000
REMARK  Name = 
REMARK  11 active torsions:
REMARK  status: ('A' for Active; 'I' for Inactive)
REMARK    1  A    between atoms: C_1  and  C_2
REMARK    2  A    between atoms: C_4  and  O_5
REMARK    3  A    between atoms: O_5  and  C_6
REMARK    4  A    between atoms: C_6  and  C_7
REMARK    5  A    between atoms: C_7  and  O_9
REMARK    6  A    between atoms: O_9  and  C_10
REMARK    7  A    between atoms: C_10  and  C_11
REMARK    8  A    between atoms: N_13  and  C_14
REMARK    9  A    between atoms: N_13  and  C_15
REMARK   10  A    between atoms: C_15  and  C_16
REMARK   11  A    between atoms: C_21  and  C_22
REMARK                            x       y       z     vdW  Elec       q    Type
REMARK                         _______ _______ _______ _____ _____    ______ ____
ROOT
ATOM      1  O   UNL     1       7.137   6.531  16.753  0.00  0.00    +0.000 OA
ENDROOT
BRANCH   1   2
ATOM      2  C   UNL     1       7.704   7.032  17.887  0.00  0.00    +0.000 C 
ATOM      3  O   UNL     1       7.978   6.374  18.884  0.00  0.00    +0.000 OA
BRANCH   2   4
ATOM      4  C   UNL     1       8.055   8.505  17.710  0.00  0.00    +0.000 C 
BRANCH   4   5
ATOM      5  O   UNL     1       8.804   8.923  18.848  0.00  0.00    +0.000 OA
BRANCH   5   9
ATOM      6  C   UNL     1       9.944  12.954  21.565  0.00  0.00    +0.000 C 
ATOM      7  C   UNL     1       9.567  12.294  20.265  0.00  0.00    +0.000 A 
ATOM      8  C   UNL     1       9.372  10.899  20.220  0.00  0.00    +0.000 A 
ATOM      9  C   UNL     1       9.028  10.260  19.024  0.00  0.00    +0.000 A 
ATOM     10  C   UNL     1       8.883  11.025  17.864  0.00  0.00    +0.000 A 
ATOM     11  C   UNL     1       9.075  12.407  17.891  0.00  0.00    +0.000 A 
ATOM     12  C   UNL     1       9.415  13.041  19.088  0.00  0.00    +0.000 A 
ATOM     13 CL   UNL     1       9.639  14.754  19.059  0.00  0.00    +0.000 Cl
ENDBRANCH   5   9
ENDBRANCH   4   5
ENDBRANCH   2   4
ENDBRANCH   1   2
BRANCH   1  14
ATOM     14  C   UNL     1       7.075   5.104  16.651  0.00  0.00    +0.000 C 
BRANCH  14  15
ATOM     15  C   UNL     1       5.679   4.512  16.344  0.00  0.00    +0.000 C 
ATOM     16  O   UNL     1       5.281   4.419  15.185  0.00  0.00    +0.000 OA
ATOM     17  N   UNL     1       4.864   4.159  17.438  0.00  0.00    +0.000 N 
ATOM     18  C   UNL     1       5.352   4.150  18.809  0.00  0.00    +0.000 C 
BRANCH  17  19
ATOM     19  C   UNL     1       3.408   4.251  17.252  0.00  0.00    +0.000 C 
BRANCH  19  20
ATOM     20  C   UNL     1       2.563   3.962  18.484  0.00  0.00    +0.000 A 
ATOM     21  C   UNL     1       2.123   2.640  18.681  0.00  0.00    +0.000 A 
ATOM     22  C   UNL     1       1.308   2.298  19.764  0.00  0.00    +0.000 A 
ATOM     23  C   UNL     1       0.934   3.269  20.686  0.00  0.00    +0.000 A 
ATOM     24  C   UNL     1       1.353   4.585  20.509  0.00  0.00    +0.000 A 
ATOM     25  C   UNL     1       2.144   4.955  19.401  0.00  0.00    +0.000 A 
ATOM     26  C   UNL     1       2.514   6.408  19.280  0.00  0.00    +0.000 C 
ENDBRANCH  19  20
ENDBRANCH  17  19
ENDBRANCH  14  15
ENDBRANCH   1  14
TORSDOF 8
ENDMDL
MODEL 2
REMARK VINA RESULT:      -7.6      4.387      7.169
REMARK  Name = 
REMARK  11 active torsions:
REMARK  status: ('A' for Active; 'I' for Inactive)
REMARK    1  A    between atoms: C_1  and  C_2
REMARK    2  A    between atoms: C_4  and  O_5
REMARK    3  A    between atoms: O_5  and  C_6
REMARK    4  A    between atoms: C_6  and  C_7
REMARK    5  A    between atoms: C_7  and  O_9
REMARK    6  A    between atoms: O_9  and  C_10
REMARK    7  A    between atoms: C_10  and  C_11
REMARK    8  A    between atoms: N_13  and  C_14
REMARK    9  A    between atoms: N_13  and  C_15
REMARK   10  A    between atoms: C_15  and  C_16
REMARK   11  A    between atoms: C_21  and  C_22
REMARK                            x       y       z     vdW  Elec       q    Type
REMARK                         _______ _______ _______ _____ _____    ______ ____
ROOT
ATOM      1  O   UNL     1       3.243   3.415  21.132  0.00  0.00    +0.000 OA
ENDROOT
BRANCH   1   2
ATOM      2  C   UNL     1       1.883   3.333  21.155  0.00  0.00    +0.000 C 
ATOM      3  O   UNL     1       1.243   2.427  21.676  0.00  0.00    +0.000 OA
BRANCH   2   4
ATOM      4  C   UNL     1       1.257   4.580  20.539  0.00  0.00    +0.000 C 
BRANCH   4   5
ATOM      5  O   UNL     1       2.249   5.602  20.499  0.00  0.00    +0.000 OA
BRANCH   5   9
ATOM      6  C   UNL     1       2.003   9.747  17.726  0.00  0.00    +0.000 C 
ATOM      7  C   UNL     1       1.677   8.962  18.969  0.00  0.00    +0.000 A 
ATOM      8  C   UNL     1       2.146   7.639  19.103  0.00  0.00    +0.000 A 
ATOM      9  C   UNL     1       1.851   6.885  20.244  0.00  0.00    +0.000 A 
ATOM     10  C   UNL     1       1.078   7.459  21.256  0.00  0.00    +0.000 A 
ATOM     11  C   UNL     1       0.604   8.767  21.138  0.00  0.00    +0.000 A 
ATOM     12  C   UNL     1       0.903   9.517  19.998  0.00  0.00    +0.000 A 
ATOM     13 CL   UNL     1       0.290  11.130  19.910  0.00  0.00    +0.000 Cl
ENDBRANCH   5   9
ENDBRANCH   4   5
ENDBRANCH   2   4
ENDBRANCH   1   2
BRANCH   1  14
ATOM     14  C   UNL     1       3.907   2.667  20.107  0.00  0.00    +0.000 C 
BRANCH  14  15
ATOM     15  C   UNL     1       4.686   3.502  19.063  0.00  0.00    +0.000 C 
ATOM     16  O   UNL     1       5.818   3.913  19.310  0.00  0.00    +0.000 OA
ATOM     17  N   UNL     1       4.023   3.831  17.864  0.00  0.00    +0.000 N 
ATOM     18  C   UNL     1       2.734   3.263  17.498  0.00  0.00    +0.000 C 
BRANCH  17  19
ATOM     19  C   UNL     1       4.406   5.089  17.205  0.00  0.00    +0.000 C 
BRANCH  19  20
ATOM     20  C   UNL     1       5.368   4.958  16.034  0.00  0.00    +0.000 A 
ATOM     21  C   UNL     1       4.961   4.179  14.936  0.00  0.00    +0.000 A 
ATOM     22  C   UNL     1       5.801   3.973  13.838  0.00  0.00    +0.000 A 
ATOM     23  C   UNL     1       7.061   4.560  13.806  0.00  0.00    +0.000 A 
ATOM     24  C   UNL     1       7.488   5.330  14.885  0.00  0.00    +0.000 A 
ATOM     25  C   UNL     1       6.668   5.518  16.017  0.00  0.00    +0.000 A 
ATOM     26  C   UNL     1       7.235   6.336  17.145  0.00  0.00    +0.000 C 
ENDBRANCH  19  20
ENDBRANCH  17  19
ENDBRANCH  14  15
ENDBRANCH   1  14
TORSDOF 8
ENDMDL
MODEL 3
REMARK VINA RESULT:      -7.5      1.113      1.413
REMARK  Name = 
REMARK  11 active torsions:
REMARK  status: ('A' for Active; 'I' for Inactive)
REMARK    1  A    between atoms: C_1  and  C_2
REMARK    2  A    between atoms: C_4  and  O_5
REMARK    3  A    between atoms: O_5  and  C_6
REMARK    4  A    between atoms: C_6  and  C_7
REMARK    5  A    between atoms: C_7  and  O_9
REMARK    6  A    between atoms: O_9  and  C_10
REMARK    7  A    between atoms: C_10  and  C_11
REMARK    8  A    between atoms: N_13  and  C_14
REMARK    9  A    between atoms: N_13  and  C_15
REMARK   10  A    between atoms: C_15  and  C_16
REMARK   11  A    between atoms: C_21  and  C_22
REMARK                            x       y       z     vdW  Elec       q    Type
REMARK                         _______ _______ _______ _____ _____    ______ ____
ROOT
ATOM      1  O   UNL     1       7.451   6.520  18.595  0.00  0.00    +0.000 OA
ENDROOT
BRANCH   1   2
ATOM      2  C   UNL     1       7.711   7.228  17.461  0.00  0.00    +0.000 C 
ATOM      3  O   UNL     1       7.770   6.751  16.333  0.00  0.00    +0.000 OA
BRANCH   2   4
ATOM      4  C   UNL     1       7.809   8.719  17.766  0.00  0.00    +0.000 C 
BRANCH   4   5
ATOM      5  O   UNL     1       8.801   8.901  18.774  0.00  0.00    +0.000 OA
BRANCH   5   9
ATOM      6  C   UNL     1       9.665  12.735  21.853  0.00  0.00    +0.000 C 
ATOM      7  C   UNL     1       9.656  12.110  20.483  0.00  0.00    +0.000 A 
ATOM      8  C   UNL     1       9.217  10.780  20.324  0.00  0.00    +0.000 A 
ATOM      9  C   UNL     1       9.208  10.174  19.063  0.00  0.00    +0.000 A 
ATOM     10  C   UNL     1       9.643  10.904  17.956  0.00  0.00    +0.000 A 
ATOM     11  C   UNL     1      10.084  12.221  18.096  0.00  0.00    +0.000 A 
ATOM     12  C   UNL     1      10.090  12.824  19.356  0.00  0.00    +0.000 A 
ATOM     13 CL   UNL     1      10.644  14.456  19.467  0.00  0.00    +0.000 Cl
ENDBRANCH   5   9
ENDBRANCH   4   5
ENDBRANCH   2   4
ENDBRANCH   1   2
BRANCH   1  14
ATOM     14  C   UNL     1       6.489   5.465  18.479  0.00  0.00    +0.000 C 
BRANCH  14  15
ATOM     15  C   UNL     1       5.053   5.903  18.104  0.00  0.00    +0.000 C 
ATOM     16  O   UNL     1       4.601   6.973  18.508  0.00  0.00    +0.000 OA
ATOM     17  N   UNL     1       4.271   5.003  17.354  0.00  0.00    +0.000 N 
ATOM     18  C   UNL     1       4.816   3.788  16.768  0.00  0.00    +0.000 C 
BRANCH  17  19
ATOM     19  C   UNL     1       2.814   5.047  17.553  0.00  0.00    +0.000 C 
BRANCH  19  20
ATOM     20  C   UNL     1       2.277   4.220  18.711  0.00  0.00    +0.000 A 
ATOM     21  C   UNL     1       2.122   2.836  18.510  0.00  0.00    +0.000 A 
ATOM     22  C   UNL     1       1.596   2.010  19.508  0.00  0.00    +0.000 A 
ATOM     23  C   UNL     1       1.234   2.550  20.737  0.00  0.00    +0.000 A 
ATOM     24  C   UNL     1       1.373   3.918  20.957  0.00  0.00    +0.000 A 
ATOM     25  C   UNL     1       1.866   4.771  19.948  0.00  0.00    +0.000 A 
ATOM     26  C   UNL     1       1.944   6.239  20.271  0.00  0.00    +0.000 C 
ENDBRANCH  19  20
ENDBRANCH  17  19
ENDBRANCH  14  15
ENDBRANCH   1  14
TORSDOF 8
ENDMDL
MODEL 4
REMARK VINA RESULT:      -7.4      4.059      6.109
REMARK  Name = 
REMARK  11 active torsions:
REMARK  status: ('A' for Active; 'I' for Inactive)
REMARK    1  A    between atoms: C_1  and  C_2
REMARK    2  A    between atoms: C_4  and  O_5
REMARK    3  A    between atoms: O_5  and  C_6
REMARK    4  A    between atoms: C_6  and  C_7
REMARK    5  A    between atoms: C_7  and  O_9
REMARK    6  A    between atoms: O_9  and  C_10
REMARK    7  A    between atoms: C_10  and  C_11
REMARK    8  A    between atoms: N_13  and  C_14
REMARK    9  A    between atoms: N_13  and  C_15
REMARK   10  A    between atoms: C_15  and  C_16
REMARK   11  A    between atoms: C_21  and  C_22
REMARK                            x       y       z     vdW  Elec       q    Type
REMARK                         _______ _______ _______ _____ _____    ______ ____
ROOT
ATOM      1  O   UNL     1       2.223   1.750  19.136  0.00  0.00    +0.000 OA
ENDROOT
BRANCH   1   2
ATOM      2  C   UNL     1       2.852   2.065  17.969  0.00  0.00    +0.000 C 
ATOM      3  O   UNL     1       2.349   1.975  16.855  0.00  0.00    +0.000 OA
BRANCH   2   4
ATOM      4  C   UNL     1       4.232   2.653  18.241  0.00  0.00    +0.000 C 
BRANCH   4   5
ATOM      5  O   UNL     1       4.604   3.450  17.120  0.00  0.00    +0.000 OA
BRANCH   5   9
ATOM      6  C   UNL     1       8.209   5.939  19.516  0.00  0.00    +0.000 C 
ATOM      7  C   UNL     1       7.162   5.832  18.439  0.00  0.00    +0.000 A 
ATOM      8  C   UNL     1       6.392   4.656  18.327  0.00  0.00    +0.000 A 
ATOM      9  C   UNL     1       5.419   4.528  17.330  0.00  0.00    +0.000 A 
ATOM     10  C   UNL     1       5.218   5.583  16.438  0.00  0.00    +0.000 A 
ATOM     11  C   UNL     1       5.974   6.753  16.534  0.00  0.00    +0.000 A 
ATOM     12  C   UNL     1       6.943   6.878  17.531  0.00  0.00    +0.000 A 
ATOM     13 CL   UNL     1       7.845   8.350  17.601  0.00  0.00    +0.000 Cl
ENDBRANCH   5   9
ENDBRANCH   4   5
ENDBRANCH   2   4
ENDBRANCH   1   2
BRANCH   1  14
ATOM     14  C   UNL     1       1.147   2.610  19.530  0.00  0.00    +0.000 C 
BRANCH  14  15
ATOM     15  C   UNL     1       1.367   4.121  19.280  0.00  0.00    +0.000 C 
ATOM     16  O   UNL     1       1.037   4.632  18.212  0.00  0.00    +0.000 OA
ATOM     17  N   UNL     1       2.022   4.860  20.285  0.00  0.00    +0.000 N 
ATOM     18  C   UNL     1       2.316   4.310  21.600  0.00  0.00    +0.000 C 
BRANCH  17  19
ATOM     19  C   UNL     1       2.818   6.022  19.858  0.00  0.00    +0.000 C 
BRANCH  19  20
ATOM     20  C   UNL     1       2.095   7.360  19.868  0.00  0.00    +0.000 A 
ATOM     21  C   UNL     1       1.362   7.700  21.020  0.00  0.00    +0.000 A 
ATOM     22  C   UNL     1       0.635   8.892  21.095  0.00  0.00    +0.000 A 
ATOM     23  C   UNL     1       0.643   9.779  20.025  0.00  0.00    +0.000 A 
ATOM     24  C   UNL     1       1.356   9.461  18.872  0.00  0.00    +0.000 A 
ATOM     25  C   UNL     1       2.064   8.246  18.765  0.00  0.00    +0.000 A 
ATOM     26  C   UNL     1       2.772   7.979  17.464  0.00  0.00    +0.000 C 
ENDBRANCH  19  20
ENDBRANCH  17  19
ENDBRANCH  14  15
ENDBRANCH   1  14
TORSDOF 8
ENDMDL
MODEL 5
REMARK VINA RESULT:      -7.4      5.041      6.651
REMARK  Name = 
REMARK  11 active torsions:
REMARK  status: ('A' for Active; 'I' for Inactive)
REMARK    1  A    between atoms: C_1  and  C_2
REMARK    2  A    between atoms: C_4  and  O_5
REMARK    3  A    between atoms: O_5  and  C_6
REMARK    4  A    between atoms: C_6  and  C_7
REMARK    5  A    between atoms: C_7  and  O_9
REMARK    6  A    between atoms: O_9  and  C_10
REMARK    7  A    between atoms: C_10  and  C_11
REMARK    8  A    between atoms: N_13  and  C_14
REMARK    9  A    between atoms: N_13  and  C_15
REMARK   10  A    between atoms: C_15  and  C_16
REMARK   11  A    between atoms: C_21  and  C_22
REMARK                            x       y       z     vdW  Elec       q    Type
REMARK                         _______ _______ _______ _____ _____    ______ ____
ROOT
ATOM      1  O   UNL     1       3.817   7.523  16.887  0.00  0.00    +0.000 OA
ENDROOT
BRANCH   1   2
ATOM      2  C   UNL     1       2.987   7.746  17.944  0.00  0.00    +0.000 C 
ATOM      3  O   UNL     1       2.937   7.055  18.956  0.00  0.00    +0.000 OA
BRANCH   2   4
ATOM      4  C   UNL     1       2.202   9.038  17.751  0.00  0.00    +0.000 C 
BRANCH   4   5
ATOM      5  O   UNL     1       1.581   9.371  18.990  0.00  0.00    +0.000 OA
BRANCH   5   9
ATOM      6  C   UNL     1      -1.937  12.391  20.841  0.00  0.00    +0.000 C 
ATOM      7  C   UNL     1      -1.415  11.456  19.783  0.00  0.00    +0.000 A 
ATOM      8  C   UNL     1      -0.141  10.872  19.933  0.00  0.00    +0.000 A 
ATOM      9  C   UNL     1       0.370  10.006  18.961  0.00  0.00    +0.000 A 
ATOM     10  C   UNL     1      -0.398   9.727  17.829  0.00  0.00    +0.000 A 
ATOM     11  C   UNL     1      -1.660  10.299  17.663  0.00  0.00    +0.000 A 
ATOM     12  C   UNL     1      -2.168  11.161  18.637  0.00  0.00    +0.000 A 
ATOM     13 CL   UNL     1      -3.737  11.837  18.378  0.00  0.00    +0.000 Cl
ENDBRANCH   5   9
ENDBRANCH   4   5
ENDBRANCH   2   4
ENDBRANCH   1   2
BRANCH   1  14
ATOM     14  C   UNL     1       5.012   6.781  17.163  0.00  0.00    +0.000 C 
BRANCH  14  15
ATOM     15  C   UNL     1       4.890   5.243  17.045  0.00  0.00    +0.000 C 
ATOM     16  O   UNL     1       4.542   4.723  15.986  0.00  0.00    +0.000 OA
ATOM     17  N   UNL     1       5.118   4.479  18.206  0.00  0.00    +0.000 N 
ATOM     18  C   UNL     1       5.641   5.056  19.436  0.00  0.00    +0.000 C 
BRANCH  17  19
ATOM     19  C   UNL     1       4.396   3.202  18.327  0.00  0.00    +0.000 C 
BRANCH  19  20
ATOM     20  C   UNL     1       3.246   3.183  19.321  0.00  0.00    +0.000 A 
ATOM     21  C   UNL     1       3.489   2.636  20.594  0.00  0.00    +0.000 A 
ATOM     22  C   UNL     1       2.475   2.542  21.552  0.00  0.00    +0.000 A 
ATOM     23  C   UNL     1       1.200   3.013  21.263  0.00  0.00    +0.000 A 
ATOM     24  C   UNL     1       0.934   3.553  20.007  0.00  0.00    +0.000 A 
ATOM     25  C   UNL     1       1.935   3.621  19.016  0.00  0.00    +0.000 A 
ATOM     26  C   UNL     1       1.537   4.188  17.680  0.00  0.00    +0.000 C 
ENDBRANCH  19  20
ENDBRANCH  17  19
ENDBRANCH  14  15
ENDBRANCH   1  14
TORSDOF 8
ENDMDL
MODEL 6
REMARK VINA RESULT:      -7.4      1.703      2.622
REMARK  Name = 
REMARK  11 active torsions:
REMARK  status: ('A' for Active; 'I' for Inactive)
REMARK    1  A    between atoms: C_1  and  C_2
REMARK    2  A    between atoms: C_4  and  O_5
REMARK    3  A    between atoms: O_5  and  C_6
REMARK    4  A    between atoms: C_6  and  C_7
REMARK    5  A    between atoms: C_7  and  O_9
REMARK    6  A    between atoms: O_9  and  C_10
REMARK    7  A    between atoms: C_10  and  C_11
REMARK    8  A    between atoms: N_13  and  C_14
REMARK    9  A    between atoms: N_13  and  C_15
REMARK   10  A    between atoms: C_15  and  C_16
REMARK   11  A    between atoms: C_21  and  C_22
REMARK                            x       y       z     vdW  Elec       q    Type
REMARK                         _______ _______ _______ _____ _____    ______ ____
ROOT
ATOM      1  O   UNL     1       8.193   7.084  18.663  0.00  0.00    +0.000 OA
ENDROOT
BRANCH   1   2
ATOM      2  C   UNL     1       8.012   8.277  18.030  0.00  0.00    +0.000 C 
ATOM      3  O   UNL     1       7.285   8.453  17.059  0.00  0.00    +0.000 OA
BRANCH   2   4
ATOM      4  C   UNL     1       8.752   9.394  18.760  0.00  0.00    +0.000 C 
BRANCH   4   5
ATOM      5  O   UNL     1       8.773  10.540  17.913  0.00  0.00    +0.000 OA
BRANCH   5   9
ATOM      6  C   UNL     1      10.259  15.298  17.629  0.00  0.00    +0.000 C 
ATOM      7  C   UNL     1      10.341  13.916  18.222  0.00  0.00    +0.000 A 
ATOM      8  C   UNL     1       9.486  12.900  17.748  0.00  0.00    +0.000 A 
ATOM      9  C   UNL     1       9.537  11.610  18.286  0.00  0.00    +0.000 A 
ATOM     10  C   UNL     1      10.448  11.337  19.309  0.00  0.00    +0.000 A 
ATOM     11  C   UNL     1      11.300  12.332  19.791  0.00  0.00    +0.000 A 
ATOM     12  C   UNL     1      11.248  13.618  19.249  0.00  0.00    +0.000 A 
ATOM     13 CL   UNL     1      12.328  14.807  19.886  0.00  0.00    +0.000 Cl
ENDBRANCH   5   9
ENDBRANCH   4   5
ENDBRANCH   2   4
ENDBRANCH   1   2
BRANCH   1  14
ATOM     14  C   UNL     1       7.767   5.916  17.951  0.00  0.00    +0.000 C 
BRANCH  14  15
ATOM     15  C   UNL     1       6.497   5.222  18.497  0.00  0.00    +0.000 C 
ATOM     16  O   UNL     1       6.445   4.841  19.665  0.00  0.00    +0.000 OA
ATOM     17  N   UNL     1       5.445   4.980  17.591  0.00  0.00    +0.000 N 
ATOM     18  C   UNL     1       5.432   5.521  16.240  0.00  0.00    +0.000 C 
BRANCH  17  19
ATOM     19  C   UNL     1       4.591   3.810  17.846  0.00  0.00    +0.000 C 
BRANCH  19  20
ATOM     20  C   UNL     1       3.532   3.985  18.924  0.00  0.00    +0.000 A 
ATOM     21  C   UNL     1       2.626   5.052  18.786  0.00  0.00    +0.000 A 
ATOM     22  C   UNL     1       1.650   5.308  19.753  0.00  0.00    +0.000 A 
ATOM     23  C   UNL     1       1.546   4.488  20.870  0.00  0.00    +0.000 A 
ATOM     24  C   UNL     1       2.436   3.429  21.032  0.00  0.00    +0.000 A 
ATOM     25  C   UNL     1       3.451   3.179  20.085  0.00  0.00    +0.000 A 
ATOM     26  C   UNL     1       4.385   2.034  20.370  0.00  0.00    +0.000 C 
ENDBRANCH  19  20
ENDBRANCH  17  19
ENDBRANCH  14  15
ENDBRANCH   1  14
TORSDOF 8
ENDMDL
MODEL 7
REMARK VINA RESULT:      -7.3      1.437      2.077
REMARK  Name = 
REMARK  11 active torsions:
REMARK  status: ('A' for Active; 'I' for Inactive)
REMARK    1  A    between atoms: C_1  and  C_2
REMARK    2  A    between atoms: C_4  and  O_5
REMARK    3  A    between atoms: O_5  and  C_6
REMARK    4  A    between atoms: C_6  and  C_7
REMARK    5  A    between atoms: C_7  and  O_9
REMARK    6  A    between atoms: O_9  and  C_10
REMARK    7  A    between atoms: C_10  and  C_11
REMARK    8  A    between atoms: N_13  and  C_14
REMARK    9  A    between atoms: N_13  and  C_15
REMARK   10  A    between atoms: C_15  and  C_16
REMARK   11  A    between atoms: C_21  and  C_22
REMARK                            x       y       z     vdW  Elec       q    Type
REMARK                         _______ _______ _______ _____ _____    ______ ____
ROOT
ATOM      1  O   UNL     1       7.265   7.659  17.206  0.00  0.00    +0.000 OA
ENDROOT
BRANCH   1   2
ATOM      2  C   UNL     1       8.121   8.111  18.165  0.00  0.00    +0.000 C 
ATOM      3  O   UNL     1       8.652   7.410  19.019  0.00  0.00    +0.000 OA
BRANCH   2   4
ATOM      4  C   UNL     1       8.419   9.594  17.967  0.00  0.00    +0.000 C 
BRANCH   4   5
ATOM      5  O   UNL     1       8.977  10.100  19.177  0.00  0.00    +0.000 OA
BRANCH   5   9
ATOM      6  C   UNL     1      10.573  14.432  21.079  0.00  0.00    +0.000 C 
ATOM      7  C   UNL     1      10.494  13.421  19.965  0.00  0.00    +0.000 A 
ATOM      8  C   UNL     1       9.750  12.238  20.147  0.00  0.00    +0.000 A 
ATOM      9  C   UNL     1       9.667  11.279  19.131  0.00  0.00    +0.000 A 
ATOM     10  C   UNL     1      10.336  11.507  17.927  0.00  0.00    +0.000 A 
ATOM     11  C   UNL     1      11.079  12.673  17.732  0.00  0.00    +0.000 A 
ATOM     12  C   UNL     1      11.157  13.628  18.747  0.00  0.00    +0.000 A 
ATOM     13 CL   UNL     1      12.090  15.051  18.447  0.00  0.00    +0.000 Cl
ENDBRANCH   5   9
ENDBRANCH   4   5
ENDBRANCH   2   4
ENDBRANCH   1   2
BRANCH   1  14
ATOM     14  C   UNL     1       7.377   6.274  16.857  0.00  0.00    +0.000 C 
BRANCH  14  15
ATOM     15  C   UNL     1       6.498   5.301  17.675  0.00  0.00    +0.000 C 
ATOM     16  O   UNL     1       7.012   4.477  18.430  0.00  0.00    +0.000 OA
ATOM     17  N   UNL     1       5.105   5.345  17.466  0.00  0.00    +0.000 N 
ATOM     18  C   UNL     1       4.463   6.382  16.672  0.00  0.00    +0.000 C 
BRANCH  17  19
ATOM     19  C   UNL     1       4.353   4.096  17.659  0.00  0.00    +0.000 C 
BRANCH  19  20
ATOM     20  C   UNL     1       3.206   4.160  18.657  0.00  0.00    +0.000 A 
ATOM     21  C   UNL     1       3.184   5.238  19.560  0.00  0.00    +0.000 A 
ATOM     22  C   UNL     1       2.189   5.350  20.536  0.00  0.00    +0.000 A 
ATOM     23  C   UNL     1       1.182   4.394  20.615  0.00  0.00    +0.000 A 
ATOM     24  C   UNL     1       1.188   3.315  19.735  0.00  0.00    +0.000 A 
ATOM     25  C   UNL     1       2.205   3.166  18.769  0.00  0.00    +0.000 A 
ATOM     26  C   UNL     1       2.141   1.946  17.891  0.00  0.00    +0.000 C 
ENDBRANCH  19  20
ENDBRANCH  17  19
ENDBRANCH  14  15
ENDBRANCH   1  14
TORSDOF 8
ENDMDL
MODEL 8
REMARK VINA RESULT:      -7.2      5.795      8.659
REMARK  Name = 
REMARK  11 active torsions:
REMARK  status: ('A' for Active; 'I' for Inactive)
REMARK    1  A    between atoms: C_1  and  C_2
REMARK    2  A    between atoms: C_4  and  O_5
REMARK    3  A    between atoms: O_5  and  C_6
REMARK    4  A    between atoms: C_6  and  C_7
REMARK    5  A    between atoms: C_7  and  O_9
REMARK    6  A    between atoms: O_9  and  C_10
REMARK    7  A    between atoms: C_10  and  C_11
REMARK    8  A    between atoms: N_13  and  C_14
REMARK    9  A    between atoms: N_13  and  C_15
REMARK   10  A    between atoms: C_15  and  C_16
REMARK   11  A    between atoms: C_21  and  C_22
REMARK                            x       y       z     vdW  Elec       q    Type
REMARK                         _______ _______ _______ _____ _____    ______ ____
ROOT
ATOM      1  O   UNL     1       0.763   8.145  21.074  0.00  0.00    +0.000 OA
ENDROOT
BRANCH   1   2
ATOM      2  C   UNL     1       0.885   9.253  21.858  0.00  0.00    +0.000 C 
ATOM      3  O   UNL     1       1.814   9.468  22.629  0.00  0.00    +0.000 OA
BRANCH   2   4
ATOM      4  C   UNL     1      -0.235  10.246  21.567  0.00  0.00    +0.000 C 
BRANCH   4   5
ATOM      5  O   UNL     1      -0.001  10.816  20.282  0.00  0.00    +0.000 OA
BRANCH   5   9
ATOM      6  C   UNL     1      -2.538   9.822  16.098  0.00  0.00    +0.000 C 
ATOM      7  C   UNL     1      -2.375  10.541  17.411  0.00  0.00    +0.000 A 
ATOM      8  C   UNL     1      -1.232  10.303  18.201  0.00  0.00    +0.000 A 
ATOM      9  C   UNL     1      -1.061  10.952  19.428  0.00  0.00    +0.000 A 
ATOM     10  C   UNL     1      -2.042  11.843  19.868  0.00  0.00    +0.000 A 
ATOM     11  C   UNL     1      -3.180  12.089  19.099  0.00  0.00    +0.000 A 
ATOM     12  C   UNL     1      -3.347  11.441  17.873  0.00  0.00    +0.000 A 
ATOM     13 CL   UNL     1      -4.775  11.786  16.965  0.00  0.00    +0.000 Cl
ENDBRANCH   5   9
ENDBRANCH   4   5
ENDBRANCH   2   4
ENDBRANCH   1   2
BRANCH   1  14
ATOM     14  C   UNL     1       1.776   7.957  20.078  0.00  0.00    +0.000 C 
BRANCH  14  15
ATOM     15  C   UNL     1       2.282   6.506  19.900  0.00  0.00    +0.000 C 
ATOM     16  O   UNL     1       1.929   5.621  20.677  0.00  0.00    +0.000 OA
ATOM     17  N   UNL     1       3.211   6.260  18.870  0.00  0.00    +0.000 N 
ATOM     18  C   UNL     1       3.556   7.258  17.868  0.00  0.00    +0.000 C 
BRANCH  17  19
ATOM     19  C   UNL     1       4.175   5.167  19.077  0.00  0.00    +0.000 C 
BRANCH  19  20
ATOM     20  C   UNL     1       5.124   4.894  17.921  0.00  0.00    +0.000 A 
ATOM     21  C   UNL     1       4.581   4.348  16.743  0.00  0.00    +0.000 A 
ATOM     22  C   UNL     1       5.390   4.028  15.649  0.00  0.00    +0.000 A 
ATOM     23  C   UNL     1       6.759   4.266  15.703  0.00  0.00    +0.000 A 
ATOM     24  C   UNL     1       7.319   4.800  16.860  0.00  0.00    +0.000 A 
ATOM     25  C   UNL     1       6.523   5.094  17.987  0.00  0.00    +0.000 A 
ATOM     26  C   UNL     1       7.230   5.632  19.201  0.00  0.00    +0.000 C 
ENDBRANCH  19  20
ENDBRANCH  17  19
ENDBRANCH  14  15
ENDBRANCH   1  14
TORSDOF 8
ENDMDL
MODEL 9
REMARK VINA RESULT:      -7.2      0.962      1.624
REMARK  Name = 
REMARK  11 active torsions:
REMARK  status: ('A' for Active; 'I' for Inactive)
REMARK    1  A    between atoms: C_1  and  C_2
REMARK    2  A    between atoms: C_4  and  O_5
REMARK    3  A    between atoms: O_5  and  C_6
REMARK    4  A    between atoms: C_6  and  C_7
REMARK    5  A    between atoms: C_7  and  O_9
REMARK    6  A    between atoms: O_9  and  C_10
REMARK    7  A    between atoms: C_10  and  C_11
REMARK    8  A    between atoms: N_13  and  C_14
REMARK    9  A    between atoms: N_13  and  C_15
REMARK   10  A    between atoms: C_15  and  C_16
REMARK   11  A    between atoms: C_21  and  C_22
REMARK                            x       y       z     vdW  Elec       q    Type
REMARK                         _______ _______ _______ _____ _____    ______ ____
ROOT
ATOM      1  O   UNL     1       7.380   6.354  18.161  0.00  0.00    +0.000 OA
ENDROOT
BRANCH   1   2
ATOM      2  C   UNL     1       7.045   7.562  17.626  0.00  0.00    +0.000 C 
ATOM      3  O   UNL     1       5.908   7.904  17.323  0.00  0.00    +0.000 OA
BRANCH   2   4
ATOM      4  C   UNL     1       8.262   8.478  17.557  0.00  0.00    +0.000 C 
BRANCH   4   5
ATOM      5  O   UNL     1       8.545   8.941  18.875  0.00  0.00    +0.000 OA
BRANCH   5   9
ATOM      6  C   UNL     1      11.119  12.859  17.158  0.00  0.00    +0.000 C 
ATOM      7  C   UNL     1      10.526  12.051  18.282  0.00  0.00    +0.000 A 
ATOM      8  C   UNL     1       9.815  10.869  17.994  0.00  0.00    +0.000 A 
ATOM      9  C   UNL     1       9.247  10.105  19.019  0.00  0.00    +0.000 A 
ATOM     10  C   UNL     1       9.390  10.531  20.341  0.00  0.00    +0.000 A 
ATOM     11  C   UNL     1      10.088  11.701  20.643  0.00  0.00    +0.000 A 
ATOM     12  C   UNL     1      10.655  12.459  19.617  0.00  0.00    +0.000 A 
ATOM     13 CL   UNL     1      11.509  13.897  20.053  0.00  0.00    +0.000 Cl
ENDBRANCH   5   9
ENDBRANCH   4   5
ENDBRANCH   2   4
ENDBRANCH   1   2
BRANCH   1  14
ATOM     14  C   UNL     1       7.411   5.245  17.254  0.00  0.00    +0.000 C 
BRANCH  14  15
ATOM     15  C   UNL     1       6.042   4.801  16.687  0.00  0.00    +0.000 C 
ATOM     16  O   UNL     1       5.775   4.965  15.498  0.00  0.00    +0.000 OA
ATOM     17  N   UNL     1       5.099   4.278  17.593  0.00  0.00    +0.000 N 
ATOM     18  C   UNL     1       5.427   3.966  18.977  0.00  0.00    +0.000 C 
BRANCH  17  19
ATOM     19  C   UNL     1       3.676   4.480  17.279  0.00  0.00    +0.000 C 
BRANCH  19  20
ATOM     20  C   UNL     1       2.698   4.157  18.398  0.00  0.00    +0.000 A 
ATOM     21  C   UNL     1       2.119   2.875  18.412  0.00  0.00    +0.000 A 
ATOM     22  C   UNL     1       1.179   2.511  19.380  0.00  0.00    +0.000 A 
ATOM     23  C   UNL     1       0.813   3.417  20.369  0.00  0.00    +0.000 A 
ATOM     24  C   UNL     1       1.369   4.694  20.372  0.00  0.00    +0.000 A 
ATOM     25  C   UNL     1       2.290   5.090  19.381  0.00  0.00    +0.000 A 
ATOM     26  C   UNL     1       2.804   6.503  19.450  0.00  0.00    +0.000 C 
ENDBRANCH  19  20
ENDBRANCH  17  19
ENDBRANCH  14  15
ENDBRANCH   1  14
TORSDOF 8
ENDMDL
