MODEL 1
REMARK VINA RESULT:      -6.3      0.000      0.000
REMARK  Name = 
REMARK  8 active torsions:
REMARK  status: ('A' for Active; 'I' for Inactive)
REMARK    1  A    between atoms: C_1  and  C_2
REMARK    2  A    between atoms: C_2  and  C_3
REMARK    3  A    between atoms: C_3  and  N_4
REMARK    4  A    between atoms: C_8  and  C_9
REMARK    5  A    between atoms: N_11  and  O_12
REMARK    6  A    between atoms: O_12  and  C_13
REMARK    7  A    between atoms: C_13  and  C_14
REMARK    8  A    between atoms: C_13  and  C_15
REMARK                            x       y       z     vdW  Elec       q    Type
REMARK                         _______ _______ _______ _____ _____    ______ ____
ROOT
ATOM      1  N   UNL     1       4.523   4.584  16.557  0.00  0.00    +0.000 NA
ATOM      2  C   UNL     1       4.583   5.850  17.305  0.00  0.00    +0.000 C 
ATOM      3  C   UNL     1       5.760   6.720  16.857  0.00  0.00    +0.000 C 
ATOM      4  C   UNL     1       7.088   5.975  16.905  0.00  0.00    +0.000 C 
ATOM      5  C   UNL     1       7.009   4.595  16.249  0.00  0.00    +0.000 C 
ATOM      6  C   UNL     1       5.778   3.817  16.744  0.00  0.00    +0.000 C 
ENDROOT
BRANCH   5   7
ATOM      7  C   UNL     1       7.078   4.693  14.724  0.00  0.00    +0.000 C 
ATOM      8  O   UNL     1       7.730   5.580  14.172  0.00  0.00    +0.000 OA
ATOM      9  N   UNL     1       6.349   3.739  14.068  0.00  0.00    +0.000 N 
ATOM     10  H   UNL     1       5.666   3.168  14.567  0.00  0.00    +0.000 HD
BRANCH   9  11
ATOM     11  O   UNL     1       6.240   3.793  12.667  0.00  0.00    +0.000 OA
BRANCH  11  12
ATOM     12  C   UNL     1       5.344   2.759  12.231  0.00  0.00    +0.000 C 
ATOM     13  C   UNL     1       4.193   3.335  11.405  0.00  0.00    +0.000 C 
ATOM     14  C   UNL     1       6.154   1.782  11.389  0.00  0.00    +0.000 C 
ENDBRANCH  11  12
ENDBRANCH   9  11
ENDBRANCH   5   7
BRANCH   1  15
ATOM     15  C   UNL     1       3.373   3.754  16.971  0.00  0.00    +0.000 C 
BRANCH  15  17
ATOM     16  C   UNL     1       1.702   3.820  18.900  0.00  0.00    +0.000 C 
ATOM     17  C   UNL     1       2.227   4.515  17.652  0.00  0.00    +0.000 C 
ENDBRANCH  15  17
ENDBRANCH   1  15
TORSDOF 5
ENDMDL
MODEL 2
REMARK VINA RESULT:      -6.3      2.815      5.639
REMARK  Name = 
REMARK  8 active torsions:
REMARK  status: ('A' for Active; 'I' for Inactive)
REMARK    1  A    between atoms: C_1  and  C_2
REMARK    2  A    between atoms: C_2  and  C_3
REMARK    3  A    between atoms: C_3  and  N_4
REMARK    4  A    between atoms: C_8  and  C_9
REMARK    5  A    between atoms: N_11  and  O_12
REMARK    6  A    between atoms: O_12  and  C_13
REMARK    7  A    between atoms: C_13  and  C_14
REMARK    8  A    between atoms: C_13  and  C_15
REMARK                            x       y       z     vdW  Elec       q    Type
REMARK                         _______ _______ _______ _____ _____    ______ ____
ROOT
ATOM      1  N   UNL     1       5.755   4.329  15.942  0.00  0.00    +0.000 NA
ATOM      2  C   UNL     1       7.176   4.659  16.130  0.00  0.00    +0.000 C 
ATOM      3  C   UNL     1       7.595   4.553  17.598  0.00  0.00    +0.000 C 
ATOM      4  C   UNL     1       6.701   5.373  18.520  0.00  0.00    +0.000 C 
ATOM      5  C   UNL     1       5.214   5.145  18.248  0.00  0.00    +0.000 C 
ATOM      6  C   UNL     1       4.905   5.242  16.744  0.00  0.00    +0.000 C 
ENDROOT
BRANCH   5   7
ATOM      7  C   UNL     1       4.722   3.838  18.873  0.00  0.00    +0.000 C 
ATOM      8  O   UNL     1       5.317   3.322  19.820  0.00  0.00    +0.000 OA
ATOM      9  N   UNL     1       3.606   3.317  18.276  0.00  0.00    +0.000 N 
ATOM     10  H   UNL     1       3.284   3.667  17.374  0.00  0.00    +0.000 HD
BRANCH   9  11
ATOM     11  O   UNL     1       3.125   2.061  18.686  0.00  0.00    +0.000 OA
BRANCH  11  12
ATOM     12  C   UNL     1       1.766   2.206  19.127  0.00  0.00    +0.000 C 
ATOM     13  C   UNL     1       1.699   2.517  20.622  0.00  0.00    +0.000 C 
ATOM     14  C   UNL     1       1.149   3.348  18.328  0.00  0.00    +0.000 C 
ENDBRANCH  11  12
ENDBRANCH   9  11
ENDBRANCH   5   7
BRANCH   1  15
ATOM     15  C   UNL     1       5.354   4.406  14.522  0.00  0.00    +0.000 C 
BRANCH  15  17
ATOM     16  C   UNL     1       5.817   3.300  12.268  0.00  0.00    +0.000 C 
ATOM     17  C   UNL     1       6.414   3.933  13.516  0.00  0.00    +0.000 C 
ENDBRANCH  15  17
ENDBRANCH   1  15
TORSDOF 5
ENDMDL
MODEL 3
REMARK VINA RESULT:      -6.2      2.751      5.036
REMARK  Name = 
REMARK  8 active torsions:
REMARK  status: ('A' for Active; 'I' for Inactive)
REMARK    1  A    between atoms: C_1  and  C_2
REMARK    2  A    between atoms: C_2  and  C_3
REMARK    3  A    between atoms: C_3  and  N_4
REMARK    4  A    between atoms: C_8  and  C_9
REMARK    5  A    between atoms: N_11  and  O_12
REMARK    6  A    between atoms: O_12  and  C_13
REMARK    7  A    between atoms: C_13  and  C_14
REMARK    8  A    between atoms: C_13  and  C_15
REMARK                            x       y       z     vdW  Elec       q    Type
REMARK                         _______ _______ _______ _____ _____    ______ ____
ROOT
ATOM      1  N   UNL     1       2.402   5.638  19.297  0.00  0.00    +0.000 NA
ATOM      2  C   UNL     1       1.712   5.080  20.471  0.00  0.00    +0.000 C 
ATOM      3  C   UNL     1       1.676   3.551  20.436  0.00  0.00    +0.000 C 
ATOM      4  C   UNL     1       1.097   3.010  19.134  0.00  0.00    +0.000 C 
ATOM      5  C   UNL     1       1.708   3.677  17.901  0.00  0.00    +0.000 C 
ATOM      6  C   UNL     1       1.723   5.208  18.050  0.00  0.00    +0.000 C 
ENDROOT
BRANCH   5   7
ATOM      7  C   UNL     1       3.084   3.097  17.572  0.00  0.00    +0.000 C 
ATOM      8  O   UNL     1       3.357   1.922  17.822  0.00  0.00    +0.000 OA
ATOM      9  N   UNL     1       3.951   3.995  17.010  0.00  0.00    +0.000 N 
ATOM     10  H   UNL     1       3.747   4.994  17.020  0.00  0.00    +0.000 HD
BRANCH   9  11
ATOM     11  O   UNL     1       5.282   3.613  16.768  0.00  0.00    +0.000 OA
BRANCH  11  12
ATOM     12  C   UNL     1       5.899   4.593  15.919  0.00  0.00    +0.000 C 
ATOM     13  C   UNL     1       5.860   4.159  14.453  0.00  0.00    +0.000 C 
ATOM     14  C   UNL     1       5.130   5.897  16.098  0.00  0.00    +0.000 C 
ENDBRANCH  11  12
ENDBRANCH   9  11
ENDBRANCH   5   7
BRANCH   1  15
ATOM     15  C   UNL     1       2.459   7.114  19.341  0.00  0.00    +0.000 C 
BRANCH  15  17
ATOM     16  C   UNL     1       1.811   9.139  17.927  0.00  0.00    +0.000 C 
ATOM     17  C   UNL     1       2.544   7.806  17.973  0.00  0.00    +0.000 C 
ENDBRANCH  15  17
ENDBRANCH   1  15
TORSDOF 5
ENDMDL
MODEL 4
REMARK VINA RESULT:      -6.1      4.107      5.795
REMARK  Name = 
REMARK  8 active torsions:
REMARK  status: ('A' for Active; 'I' for Inactive)
REMARK    1  A    between atoms: C_1  and  C_2
REMARK    2  A    between atoms: C_2  and  C_3
REMARK    3  A    between atoms: C_3  and  N_4
REMARK    4  A    between atoms: C_8  and  C_9
REMARK    5  A    between atoms: N_11  and  O_12
REMARK    6  A    between atoms: O_12  and  C_13
REMARK    7  A    between atoms: C_13  and  C_14
REMARK    8  A    between atoms: C_13  and  C_15
REMARK                            x       y       z     vdW  Elec       q    Type
REMARK                         _______ _______ _______ _____ _____    ______ ____
ROOT
ATOM      1  N   UNL     1       2.403   5.961  19.639  0.00  0.00    +0.000 NA
ATOM      2  C   UNL     1       1.450   5.439  20.630  0.00  0.00    +0.000 C 
ATOM      3  C   UNL     1       1.564   3.920  20.785  0.00  0.00    +0.000 C 
ATOM      4  C   UNL     1       1.449   3.188  19.453  0.00  0.00    +0.000 C 
ATOM      5  C   UNL     1       2.335   3.803  18.369  0.00  0.00    +0.000 C 
ATOM      6  C   UNL     1       2.168   5.331  18.318  0.00  0.00    +0.000 C 
ENDROOT
BRANCH   5   7
ATOM      7  C   UNL     1       3.794   3.369  18.523  0.00  0.00    +0.000 C 
ATOM      8  O   UNL     1       4.101   2.177  18.583  0.00  0.00    +0.000 OA
ATOM      9  N   UNL     1       4.682   4.407  18.604  0.00  0.00    +0.000 N 
ATOM     10  H   UNL     1       4.357   5.362  18.761  0.00  0.00    +0.000 HD
BRANCH   9  11
ATOM     11  O   UNL     1       6.038   4.140  18.861  0.00  0.00    +0.000 OA
BRANCH  11  12
ATOM     12  C   UNL     1       6.841   5.112  18.175  0.00  0.00    +0.000 C 
ATOM     13  C   UNL     1       5.973   6.201  17.543  0.00  0.00    +0.000 C 
ATOM     14  C   UNL     1       7.786   5.726  19.200  0.00  0.00    +0.000 C 
ENDBRANCH  11  12
ENDBRANCH   9  11
ENDBRANCH   5   7
BRANCH   1  15
ATOM     15  C   UNL     1       2.312   7.430  19.507  0.00  0.00    +0.000 C 
BRANCH  15  17
ATOM     16  C   UNL     1       1.692   9.240  17.816  0.00  0.00    +0.000 C 
ATOM     17  C   UNL     1       2.488   7.971  18.080  0.00  0.00    +0.000 C 
ENDBRANCH  15  17
ENDBRANCH   1  15
TORSDOF 5
ENDMDL
MODEL 5
REMARK VINA RESULT:      -6.1      3.875      5.769
REMARK  Name = 
REMARK  8 active torsions:
REMARK  status: ('A' for Active; 'I' for Inactive)
REMARK    1  A    between atoms: C_1  and  C_2
REMARK    2  A    between atoms: C_2  and  C_3
REMARK    3  A    between atoms: C_3  and  N_4
REMARK    4  A    between atoms: C_8  and  C_9
REMARK    5  A    between atoms: N_11  and  O_12
REMARK    6  A    between atoms: O_12  and  C_13
REMARK    7  A    between atoms: C_13  and  C_14
REMARK    8  A    between atoms: C_13  and  C_15
REMARK                            x       y       z     vdW  Elec       q    Type
REMARK                         _______ _______ _______ _____ _____    ______ ____
ROOT
ATOM      1  N   UNL     1       2.419   5.010  19.219  0.00  0.00    +0.000 NA
ATOM      2  C   UNL     1       1.590   4.974  20.434  0.00  0.00    +0.000 C 
ATOM      3  C   UNL     1       2.098   3.936  21.438  0.00  0.00    +0.000 C 
ATOM      4  C   UNL     1       2.249   2.552  20.820  0.00  0.00    +0.000 C 
ATOM      5  C   UNL     1       2.994   2.586  19.484  0.00  0.00    +0.000 C 
ATOM      6  C   UNL     1       2.427   3.680  18.563  0.00  0.00    +0.000 C 
ENDROOT
BRANCH   5   7
ATOM      7  C   UNL     1       4.505   2.702  19.686  0.00  0.00    +0.000 C 
ATOM      8  O   UNL     1       5.106   1.945  20.450  0.00  0.00    +0.000 OA
ATOM      9  N   UNL     1       5.090   3.710  18.969  0.00  0.00    +0.000 N 
ATOM     10  H   UNL     1       4.524   4.431  18.522  0.00  0.00    +0.000 HD
BRANCH   9  11
ATOM     11  O   UNL     1       6.456   3.991  19.156  0.00  0.00    +0.000 OA
BRANCH  11  12
ATOM     12  C   UNL     1       6.812   5.123  18.349  0.00  0.00    +0.000 C 
ATOM     13  C   UNL     1       7.870   5.985  19.039  0.00  0.00    +0.000 C 
ATOM     14  C   UNL     1       7.354   4.587  17.029  0.00  0.00    +0.000 C 
ENDBRANCH  11  12
ENDBRANCH   9  11
ENDBRANCH   5   7
BRANCH   1  15
ATOM     15  C   UNL     1       1.945   6.028  18.259  0.00  0.00    +0.000 C 
BRANCH  15  17
ATOM     16  C   UNL     1       4.093   7.067  17.350  0.00  0.00    +0.000 C 
ATOM     17  C   UNL     1       2.820   7.286  18.154  0.00  0.00    +0.000 C 
ENDBRANCH  15  17
ENDBRANCH   1  15
TORSDOF 5
ENDMDL
MODEL 6
REMARK VINA RESULT:      -6.0      3.562      5.784
REMARK  Name = 
REMARK  8 active torsions:
REMARK  status: ('A' for Active; 'I' for Inactive)
REMARK    1  A    between atoms: C_1  and  C_2
REMARK    2  A    between atoms: C_2  and  C_3
REMARK    3  A    between atoms: C_3  and  N_4
REMARK    4  A    between atoms: C_8  and  C_9
REMARK    5  A    between atoms: N_11  and  O_12
REMARK    6  A    between atoms: O_12  and  C_13
REMARK    7  A    between atoms: C_13  and  C_14
REMARK    8  A    between atoms: C_13  and  C_15
REMARK                            x       y       z     vdW  Elec       q    Type
REMARK                         _______ _______ _______ _____ _____    ______ ____
ROOT
ATOM      1  N   UNL     1       6.756   6.399  17.954  0.00  0.00    +0.000 NA
ATOM      2  C   UNL     1       6.027   7.116  16.896  0.00  0.00    +0.000 C 
ATOM      3  C   UNL     1       4.755   6.375  16.479  0.00  0.00    +0.000 C 
ATOM      4  C   UNL     1       5.022   4.925  16.094  0.00  0.00    +0.000 C 
ATOM      5  C   UNL     1       5.894   4.199  17.120  0.00  0.00    +0.000 C 
ATOM      6  C   UNL     1       7.128   5.040  17.492  0.00  0.00    +0.000 C 
ENDROOT
BRANCH   5   7
ATOM      7  C   UNL     1       5.081   3.763  18.340  0.00  0.00    +0.000 C 
ATOM      8  O   UNL     1       5.573   3.771  19.470  0.00  0.00    +0.000 OA
ATOM      9  N   UNL     1       3.806   3.360  18.048  0.00  0.00    +0.000 N 
ATOM     10  H   UNL     1       3.524   3.173  17.086  0.00  0.00    +0.000 HD
BRANCH   9  11
ATOM     11  O   UNL     1       2.998   2.828  19.069  0.00  0.00    +0.000 OA
BRANCH  11  12
ATOM     12  C   UNL     1       1.626   3.148  18.788  0.00  0.00    +0.000 C 
ATOM     13  C   UNL     1       0.887   3.573  20.057  0.00  0.00    +0.000 C 
ATOM     14  C   UNL     1       1.624   4.286  17.775  0.00  0.00    +0.000 C 
ENDBRANCH  11  12
ENDBRANCH   9  11
ENDBRANCH   5   7
BRANCH   1  15
ATOM     15  C   UNL     1       7.972   7.124  18.375  0.00  0.00    +0.000 C 
BRANCH  15  17
ATOM     16  C   UNL     1       8.856   9.487  18.768  0.00  0.00    +0.000 C 
ATOM     17  C   UNL     1       8.102   8.555  17.831  0.00  0.00    +0.000 C 
ENDBRANCH  15  17
ENDBRANCH   1  15
TORSDOF 5
ENDMDL
MODEL 7
REMARK VINA RESULT:      -6.0      2.623      5.100
REMARK  Name = 
REMARK  8 active torsions:
REMARK  status: ('A' for Active; 'I' for Inactive)
REMARK    1  A    between atoms: C_1  and  C_2
REMARK    2  A    between atoms: C_2  and  C_3
REMARK    3  A    between atoms: C_3  and  N_4
REMARK    4  A    between atoms: C_8  and  C_9
REMARK    5  A    between atoms: N_11  and  O_12
REMARK    6  A    between atoms: O_12  and  C_13
REMARK    7  A    between atoms: C_13  and  C_14
REMARK    8  A    between atoms: C_13  and  C_15
REMARK                            x       y       z     vdW  Elec       q    Type
REMARK                         _______ _______ _______ _____ _____    ______ ____
ROOT
ATOM      1  N   UNL     1       2.433   5.266  19.495  0.00  0.00    +0.000 NA
ATOM      2  C   UNL     1       1.872   4.721  20.741  0.00  0.00    +0.000 C 
ATOM      3  C   UNL     1       1.874   3.190  20.744  0.00  0.00    +0.000 C 
ATOM      4  C   UNL     1       1.190   2.604  19.515  0.00  0.00    +0.000 C 
ATOM      5  C   UNL     1       1.664   3.255  18.215  0.00  0.00    +0.000 C 
ATOM      6  C   UNL     1       1.653   4.789  18.328  0.00  0.00    +0.000 C 
ENDROOT
BRANCH   5   7
ATOM      7  C   UNL     1       3.019   2.700  17.771  0.00  0.00    +0.000 C 
ATOM      8  O   UNL     1       3.349   1.542  18.028  0.00  0.00    +0.000 OA
ATOM      9  N   UNL     1       3.801   3.602  17.101  0.00  0.00    +0.000 N 
ATOM     10  H   UNL     1       3.570   4.596  17.102  0.00  0.00    +0.000 HD
BRANCH   9  11
ATOM     11  O   UNL     1       5.113   3.248  16.742  0.00  0.00    +0.000 OA
BRANCH  11  12
ATOM     12  C   UNL     1       5.763   4.393  16.169  0.00  0.00    +0.000 C 
ATOM     13  C   UNL     1       7.141   4.618  16.794  0.00  0.00    +0.000 C 
ATOM     14  C   UNL     1       5.903   4.136  14.674  0.00  0.00    +0.000 C 
ENDBRANCH  11  12
ENDBRANCH   9  11
ENDBRANCH   5   7
BRANCH   1  15
ATOM     15  C   UNL     1       2.455   6.744  19.500  0.00  0.00    +0.000 C 
BRANCH  15  17
ATOM     16  C   UNL     1       3.943   7.286  17.498  0.00  0.00    +0.000 C 
ATOM     17  C   UNL     1       2.557   7.402  18.116  0.00  0.00    +0.000 C 
ENDBRANCH  15  17
ENDBRANCH   1  15
TORSDOF 5
ENDMDL
MODEL 8
REMARK VINA RESULT:      -5.9      2.799      5.585
REMARK  Name = 
REMARK  8 active torsions:
REMARK  status: ('A' for Active; 'I' for Inactive)
REMARK    1  A    between atoms: C_1  and  C_2
REMARK    2  A    between atoms: C_2  and  C_3
REMARK    3  A    between atoms: C_3  and  N_4
REMARK    4  A    between atoms: C_8  and  C_9
REMARK    5  A    between atoms: N_11  and  O_12
REMARK    6  A    between atoms: O_12  and  C_13
REMARK    7  A    between atoms: C_13  and  C_14
REMARK    8  A    between atoms: C_13  and  C_15
REMARK                            x       y       z     vdW  Elec       q    Type
REMARK                         _______ _______ _______ _____ _____    ______ ____
ROOT
ATOM      1  N   UNL     1       5.769   4.577  16.022  0.00  0.00    +0.000 NA
ATOM      2  C   UNL     1       7.236   4.529  16.122  0.00  0.00    +0.000 C 
ATOM      3  C   UNL     1       7.710   4.592  17.575  0.00  0.00    +0.000 C 
ATOM      4  C   UNL     1       7.135   5.787  18.325  0.00  0.00    +0.000 C 
ATOM      5  C   UNL     1       5.626   5.933  18.124  0.00  0.00    +0.000 C 
ATOM      6  C   UNL     1       5.253   5.825  16.636  0.00  0.00    +0.000 C 
ENDROOT
BRANCH   5   7
ATOM      7  C   UNL     1       4.845   4.957  19.006  0.00  0.00    +0.000 C 
ATOM      8  O   UNL     1       5.390   3.970  19.502  0.00  0.00    +0.000 OA
ATOM      9  N   UNL     1       3.523   5.276  19.159  0.00  0.00    +0.000 N 
ATOM     10  H   UNL     1       3.081   5.975  18.562  0.00  0.00    +0.000 HD
BRANCH   9  11
ATOM     11  O   UNL     1       2.674   4.395  19.852  0.00  0.00    +0.000 OA
BRANCH  11  12
ATOM     12  C   UNL     1       2.044   3.517  18.907  0.00  0.00    +0.000 C 
ATOM     13  C   UNL     1       0.845   2.801  19.529  0.00  0.00    +0.000 C 
ATOM     14  C   UNL     1       1.589   4.370  17.728  0.00  0.00    +0.000 C 
ENDBRANCH  11  12
ENDBRANCH   9  11
ENDBRANCH   5   7
BRANCH   1  15
ATOM     15  C   UNL     1       5.309   4.492  14.621  0.00  0.00    +0.000 C 
BRANCH  15  17
ATOM     16  C   UNL     1       5.761   3.338  12.389  0.00  0.00    +0.000 C 
ATOM     17  C   UNL     1       6.363   4.011  13.613  0.00  0.00    +0.000 C 
ENDBRANCH  15  17
ENDBRANCH   1  15
TORSDOF 5
ENDMDL
MODEL 9
REMARK VINA RESULT:      -5.9      4.141      6.601
REMARK  Name = 
REMARK  8 active torsions:
REMARK  status: ('A' for Active; 'I' for Inactive)
REMARK    1  A    between atoms: C_1  and  C_2
REMARK    2  A    between atoms: C_2  and  C_3
REMARK    3  A    between atoms: C_3  and  N_4
REMARK    4  A    between atoms: C_8  and  C_9
REMARK    5  A    between atoms: N_11  and  O_12
REMARK    6  A    between atoms: O_12  and  C_13
REMARK    7  A    between atoms: C_13  and  C_14
REMARK    8  A    between atoms: C_13  and  C_15
REMARK                            x       y       z     vdW  Elec       q    Type
REMARK                         _______ _______ _______ _____ _____    ______ ____
ROOT
ATOM      1  N   UNL     1       3.568   3.675  17.878  0.00  0.00    +0.000 NA
ATOM      2  C   UNL     1       2.735   2.475  17.706  0.00  0.00    +0.000 C 
ATOM      3  C   UNL     1       1.547   2.463  18.672  0.00  0.00    +0.000 C 
ATOM      4  C   UNL     1       1.974   2.648  20.123  0.00  0.00    +0.000 C 
ATOM      5  C   UNL     1       2.949   3.813  20.302  0.00  0.00    +0.000 C 
ATOM      6  C   UNL     1       4.085   3.748  19.266  0.00  0.00    +0.000 C 
ENDROOT
BRANCH   5   7
ATOM      7  C   UNL     1       2.223   5.159  20.305  0.00  0.00    +0.000 C 
ATOM      8  O   UNL     1       1.079   5.264  20.750  0.00  0.00    +0.000 OA
ATOM      9  N   UNL     1       2.946   6.187  19.764  0.00  0.00    +0.000 N 
ATOM     10  H   UNL     1       3.792   6.003  19.225  0.00  0.00    +0.000 HD
BRANCH   9  11
ATOM     11  O   UNL     1       2.345   7.448  19.605  0.00  0.00    +0.000 OA
BRANCH  11  12
ATOM     12  C   UNL     1       2.275   7.756  18.205  0.00  0.00    +0.000 C 
ATOM     13  C   UNL     1       2.013   9.246  17.978  0.00  0.00    +0.000 C 
ATOM     14  C   UNL     1       3.611   7.362  17.586  0.00  0.00    +0.000 C 
ENDBRANCH  11  12
ENDBRANCH   9  11
ENDBRANCH   5   7
BRANCH   1  15
ATOM     15  C   UNL     1       4.701   3.701  16.930  0.00  0.00    +0.000 C 
BRANCH  15  17
ATOM     16  C   UNL     1       7.035   4.564  16.359  0.00  0.00    +0.000 C 
ATOM     17  C   UNL     1       5.939   4.471  17.411  0.00  0.00    +0.000 C 
ENDBRANCH  15  17
ENDBRANCH   1  15
TORSDOF 5
ENDMDL
