MODEL 1
REMARK VINA RESULT:      -7.8      0.000      0.000
REMARK  Name = 
REMARK  6 active torsions:
REMARK  status: ('A' for Active; 'I' for Inactive)
REMARK    1  A    between atoms: C_1  and  N_2
REMARK    2  A    between atoms: C_3  and  C_5
REMARK    3  A    between atoms: C_7  and  C_8
REMARK    4  A    between atoms: N_10  and  C_11
REMARK    5  A    between atoms: N_16  and  C_17
REMARK    6  A    between atoms: C_17  and  C_18
REMARK                            x       y       z     vdW  Elec       q    Type
REMARK                         _______ _______ _______ _____ _____    ______ ____
ROOT
ATOM      1  C   UNL     1       2.811   4.397  19.406  0.00  0.00    +0.000 A 
ATOM      2  C   UNL     1       2.291   5.568  18.999  0.00  0.00    +0.000 A 
ATOM      3  C   UNL     1       3.103   6.593  18.384  0.00  0.00    +0.000 A 
ATOM      4  C   UNL     1       4.374   6.299  18.065  0.00  0.00    +0.000 A 
ATOM      5  N   UNL     1       4.951   5.080  18.418  0.00  0.00    +0.000 N 
ATOM      6  C   UNL     1       4.257   4.117  19.159  0.00  0.00    +0.000 A 
ATOM      7  O   UNL     1       4.773   3.079  19.574  0.00  0.00    +0.000 OA
ENDROOT
BRANCH   1  10
ATOM      8  C   UNL     1       1.318   2.307  22.178  0.00  0.00    +0.000 C 
ATOM      9  N   UNL     1       2.147   3.191  21.403  0.00  0.00    +0.000 N 
ATOM     10  C   UNL     1       1.870   3.460  20.090  0.00  0.00    +0.000 C 
ATOM     11  O   UNL     1       0.888   3.001  19.510  0.00  0.00    +0.000 OA
ATOM     12  H   UNL     1       3.025   3.526  21.800  0.00  0.00    +0.000 HD
ENDBRANCH   1  10
BRANCH   3  13
ATOM     13  C   UNL     1       2.569   7.961  18.058  0.00  0.00    +0.000 C 
ATOM     14  O   UNL     1       2.887   8.550  17.030  0.00  0.00    +0.000 OA
ATOM     15  N   UNL     1       1.746   8.503  19.026  0.00  0.00    +0.000 N 
ATOM     16  H   UNL     1       1.625   8.001  19.896  0.00  0.00    +0.000 HD
BRANCH  15  17
ATOM     17  C   UNL     1       1.079   9.808  18.874  0.00  0.00    +0.000 C 
ATOM     18  C   UNL     1      -0.202   9.754  18.001  0.00  0.00    +0.000 C 
ATOM     19  C   UNL     1      -0.844  10.732  19.003  0.00  0.00    +0.000 C 
ATOM     20  C   UNL     1       0.160  10.209  20.050  0.00  0.00    +0.000 C 
ENDBRANCH  15  17
ENDBRANCH   3  13
BRANCH   5  21
ATOM     21  C   UNL     1       6.325   4.779  17.996  0.00  0.00    +0.000 C 
BRANCH  21  22
ATOM     22  C   UNL     1       6.453   4.730  16.496  0.00  0.00    +0.000 A 
ATOM     23  C   UNL     1       5.684   3.857  15.721  0.00  0.00    +0.000 A 
ATOM     24  C   UNL     1       5.897   3.779  14.346  0.00  0.00    +0.000 A 
ATOM     25  C   UNL     1       6.873   4.585  13.787  0.00  0.00    +0.000 A 
ATOM     26  N   UNL     1       7.617   5.461  14.494  0.00  0.00    +0.000 NA
ATOM     27  C   UNL     1       7.393   5.512  15.829  0.00  0.00    +0.000 A 
ENDBRANCH  21  22
ENDBRANCH   5  21
TORSDOF 5
ENDMDL
MODEL 2
REMARK VINA RESULT:      -7.6      1.832      5.327
REMARK  Name = 
REMARK  6 active torsions:
REMARK  status: ('A' for Active; 'I' for Inactive)
REMARK    1  A    between atoms: C_1  and  N_2
REMARK    2  A    between atoms: C_3  and  C_5
REMARK    3  A    between atoms: C_7  and  C_8
REMARK    4  A    between atoms: N_10  and  C_11
REMARK    5  A    between atoms: N_16  and  C_17
REMARK    6  A    between atoms: C_17  and  C_18
REMARK                            x       y       z     vdW  Elec       q    Type
REMARK                         _______ _______ _______ _____ _____    ______ ____
ROOT
ATOM      1  C   UNL     1       4.723   5.887  16.764  0.00  0.00    +0.000 A 
ATOM      2  C   UNL     1       4.229   7.034  17.262  0.00  0.00    +0.000 A 
ATOM      3  C   UNL     1       2.910   7.108  17.848  0.00  0.00    +0.000 A 
ATOM      4  C   UNL     1       2.231   5.966  18.044  0.00  0.00    +0.000 A 
ATOM      5  N   UNL     1       2.717   4.741  17.594  0.00  0.00    +0.000 N 
ATOM      6  C   UNL     1       3.915   4.637  16.875  0.00  0.00    +0.000 A 
ATOM      7  O   UNL     1       4.315   3.586  16.374  0.00  0.00    +0.000 OA
ENDROOT
BRANCH   1  10
ATOM      8  C   UNL     1       7.463   5.285  14.232  0.00  0.00    +0.000 C 
ATOM      9  N   UNL     1       6.217   5.283  14.951  0.00  0.00    +0.000 N 
ATOM     10  C   UNL     1       6.070   5.973  16.124  0.00  0.00    +0.000 C 
ATOM     11  O   UNL     1       6.968   6.658  16.610  0.00  0.00    +0.000 OA
ATOM     12  H   UNL     1       5.469   4.660  14.650  0.00  0.00    +0.000 HD
ENDBRANCH   1  10
BRANCH   3  13
ATOM     13  C   UNL     1       2.286   8.409  18.275  0.00  0.00    +0.000 C 
ATOM     14  O   UNL     1       2.207   9.367  17.515  0.00  0.00    +0.000 OA
ATOM     15  N   UNL     1       1.866   8.440  19.591  0.00  0.00    +0.000 N 
ATOM     16  H   UNL     1       2.072   7.646  20.184  0.00  0.00    +0.000 HD
BRANCH  15  17
ATOM     17  C   UNL     1       1.181   9.599  20.188  0.00  0.00    +0.000 C 
ATOM     18  C   UNL     1      -0.364   9.543  20.061  0.00  0.00    +0.000 C 
ATOM     19  C   UNL     1      -0.434  10.101  21.495  0.00  0.00    +0.000 C 
ATOM     20  C   UNL     1       0.976   9.516  21.718  0.00  0.00    +0.000 C 
ENDBRANCH  15  17
ENDBRANCH   3  13
BRANCH   5  21
ATOM     21  C   UNL     1       1.969   3.512  17.883  0.00  0.00    +0.000 C 
BRANCH  21  22
ATOM     22  C   UNL     1       2.087   3.111  19.331  0.00  0.00    +0.000 A 
ATOM     23  C   UNL     1       0.990   3.151  20.197  0.00  0.00    +0.000 A 
ATOM     24  C   UNL     1       1.162   2.859  21.548  0.00  0.00    +0.000 A 
ATOM     25  C   UNL     1       2.430   2.527  21.992  0.00  0.00    +0.000 A 
ATOM     26  N   UNL     1       3.509   2.449  21.185  0.00  0.00    +0.000 NA
ATOM     27  C   UNL     1       3.315   2.744  19.878  0.00  0.00    +0.000 A 
ENDBRANCH  21  22
ENDBRANCH   5  21
TORSDOF 5
ENDMDL
MODEL 3
REMARK VINA RESULT:      -7.4      2.966      7.738
REMARK  Name = 
REMARK  6 active torsions:
REMARK  status: ('A' for Active; 'I' for Inactive)
REMARK    1  A    between atoms: C_1  and  N_2
REMARK    2  A    between atoms: C_3  and  C_5
REMARK    3  A    between atoms: C_7  and  C_8
REMARK    4  A    between atoms: N_10  and  C_11
REMARK    5  A    between atoms: N_16  and  C_17
REMARK    6  A    between atoms: C_17  and  C_18
REMARK                            x       y       z     vdW  Elec       q    Type
REMARK                         _______ _______ _______ _____ _____    ______ ____
ROOT
ATOM      1  C   UNL     1       7.060   5.868  17.523  0.00  0.00    +0.000 A 
ATOM      2  C   UNL     1       7.178   5.805  16.186  0.00  0.00    +0.000 A 
ATOM      3  C   UNL     1       6.532   4.772  15.409  0.00  0.00    +0.000 A 
ATOM      4  C   UNL     1       5.660   3.956  16.025  0.00  0.00    +0.000 A 
ATOM      5  N   UNL     1       5.460   4.011  17.403  0.00  0.00    +0.000 N 
ATOM      6  C   UNL     1       6.183   4.884  18.225  0.00  0.00    +0.000 A 
ATOM      7  O   UNL     1       6.104   4.880  19.454  0.00  0.00    +0.000 OA
ENDROOT
BRANCH   1  10
ATOM      8  C   UNL     1       8.444   9.318  18.206  0.00  0.00    +0.000 C 
ATOM      9  N   UNL     1       7.745   8.192  17.647  0.00  0.00    +0.000 N 
ATOM     10  C   UNL     1       7.840   6.945  18.204  0.00  0.00    +0.000 C 
ATOM     11  O   UNL     1       8.489   6.720  19.224  0.00  0.00    +0.000 OA
ATOM     12  H   UNL     1       7.269   8.296  16.751  0.00  0.00    +0.000 HD
ENDBRANCH   1  10
BRANCH   3  13
ATOM     13  C   UNL     1       6.771   4.599  13.934  0.00  0.00    +0.000 C 
ATOM     14  O   UNL     1       7.464   5.384  13.296  0.00  0.00    +0.000 OA
ATOM     15  N   UNL     1       6.111   3.527  13.366  0.00  0.00    +0.000 N 
ATOM     16  H   UNL     1       5.468   2.995  13.939  0.00  0.00    +0.000 HD
BRANCH  15  17
ATOM     17  C   UNL     1       6.256   3.153  11.949  0.00  0.00    +0.000 C 
ATOM     18  C   UNL     1       7.529   2.318  11.652  0.00  0.00    +0.000 C 
ATOM     19  C   UNL     1       6.670   1.475  10.692  0.00  0.00    +0.000 C 
ATOM     20  C   UNL     1       5.442   1.912  11.516  0.00  0.00    +0.000 C 
ENDBRANCH  15  17
ENDBRANCH   3  13
BRANCH   5  21
ATOM     21  C   UNL     1       4.454   3.141  18.025  0.00  0.00    +0.000 C 
BRANCH  21  22
ATOM     22  C   UNL     1       3.448   3.928  18.824  0.00  0.00    +0.000 A 
ATOM     23  C   UNL     1       2.859   5.092  18.322  0.00  0.00    +0.000 A 
ATOM     24  C   UNL     1       2.002   5.839  19.127  0.00  0.00    +0.000 A 
ATOM     25  C   UNL     1       1.754   5.391  20.414  0.00  0.00    +0.000 A 
ATOM     26  N   UNL     1       2.280   4.259  20.927  0.00  0.00    +0.000 NA
ATOM     27  C   UNL     1       3.114   3.556  20.125  0.00  0.00    +0.000 A 
ENDBRANCH  21  22
ENDBRANCH   5  21
TORSDOF 5
ENDMDL
MODEL 4
REMARK VINA RESULT:      -7.2      3.529      7.655
REMARK  Name = 
REMARK  6 active torsions:
REMARK  status: ('A' for Active; 'I' for Inactive)
REMARK    1  A    between atoms: C_1  and  N_2
REMARK    2  A    between atoms: C_3  and  C_5
REMARK    3  A    between atoms: C_7  and  C_8
REMARK    4  A    between atoms: N_10  and  C_11
REMARK    5  A    between atoms: N_16  and  C_17
REMARK    6  A    between atoms: C_17  and  C_18
REMARK                            x       y       z     vdW  Elec       q    Type
REMARK                         _______ _______ _______ _____ _____    ______ ____
ROOT
ATOM      1  C   UNL     1       7.238   6.161  17.544  0.00  0.00    +0.000 A 
ATOM      2  C   UNL     1       7.279   6.068  16.204  0.00  0.00    +0.000 A 
ATOM      3  C   UNL     1       6.731   4.932  15.499  0.00  0.00    +0.000 A 
ATOM      4  C   UNL     1       6.018   4.029  16.194  0.00  0.00    +0.000 A 
ATOM      5  N   UNL     1       5.900   4.104  17.581  0.00  0.00    +0.000 N 
ATOM      6  C   UNL     1       6.548   5.094  18.329  0.00  0.00    +0.000 A 
ATOM      7  O   UNL     1       6.548   5.122  19.559  0.00  0.00    +0.000 OA
ENDROOT
BRANCH   1  10
ATOM      8  C   UNL     1       8.227   9.779  18.008  0.00  0.00    +0.000 C 
ATOM      9  N   UNL     1       7.647   8.552  17.531  0.00  0.00    +0.000 N 
ATOM     10  C   UNL     1       7.907   7.356  18.142  0.00  0.00    +0.000 C 
ATOM     11  O   UNL     1       8.609   7.261  19.147  0.00  0.00    +0.000 OA
ATOM     12  H   UNL     1       7.135   8.553  16.649  0.00  0.00    +0.000 HD
ENDBRANCH   1  10
BRANCH   3  13
ATOM     13  C   UNL     1       6.898   4.741  14.017  0.00  0.00    +0.000 C 
ATOM     14  O   UNL     1       7.597   5.490  13.344  0.00  0.00    +0.000 OA
ATOM     15  N   UNL     1       6.166   3.696  13.486  0.00  0.00    +0.000 N 
ATOM     16  H   UNL     1       5.525   3.197  14.089  0.00  0.00    +0.000 HD
BRANCH  15  17
ATOM     17  C   UNL     1       6.233   3.309  12.066  0.00  0.00    +0.000 C 
ATOM     18  C   UNL     1       7.515   2.519  11.695  0.00  0.00    +0.000 C 
ATOM     19  C   UNL     1       6.629   1.631  10.803  0.00  0.00    +0.000 C 
ATOM     20  C   UNL     1       5.441   2.033  11.701  0.00  0.00    +0.000 C 
ENDBRANCH  15  17
ENDBRANCH   3  13
BRANCH   5  21
ATOM     21  C   UNL     1       5.062   3.130  18.291  0.00  0.00    +0.000 C 
BRANCH  21  22
ATOM     22  C   UNL     1       3.644   3.615  18.444  0.00  0.00    +0.000 A 
ATOM     23  C   UNL     1       3.213   4.272  19.601  0.00  0.00    +0.000 A 
ATOM     24  C   UNL     1       1.873   4.625  19.739  0.00  0.00    +0.000 A 
ATOM     25  C   UNL     1       1.002   4.314  18.708  0.00  0.00    +0.000 A 
ATOM     26  N   UNL     1       1.383   3.707  17.565  0.00  0.00    +0.000 NA
ATOM     27  C   UNL     1       2.690   3.370  17.459  0.00  0.00    +0.000 A 
ENDBRANCH  21  22
ENDBRANCH   5  21
TORSDOF 5
ENDMDL
MODEL 5
REMARK VINA RESULT:      -7.1      1.783      5.357
REMARK  Name = 
REMARK  6 active torsions:
REMARK  status: ('A' for Active; 'I' for Inactive)
REMARK    1  A    between atoms: C_1  and  N_2
REMARK    2  A    between atoms: C_3  and  C_5
REMARK    3  A    between atoms: C_7  and  C_8
REMARK    4  A    between atoms: N_10  and  C_11
REMARK    5  A    between atoms: N_16  and  C_17
REMARK    6  A    between atoms: C_17  and  C_18
REMARK                            x       y       z     vdW  Elec       q    Type
REMARK                         _______ _______ _______ _____ _____    ______ ____
ROOT
ATOM      1  C   UNL     1       4.642   6.033  16.810  0.00  0.00    +0.000 A 
ATOM      2  C   UNL     1       4.162   7.205  17.261  0.00  0.00    +0.000 A 
ATOM      3  C   UNL     1       2.835   7.324  17.820  0.00  0.00    +0.000 A 
ATOM      4  C   UNL     1       2.131   6.203  18.043  0.00  0.00    +0.000 A 
ATOM      5  N   UNL     1       2.601   4.954  17.643  0.00  0.00    +0.000 N 
ATOM      6  C   UNL     1       3.808   4.802  16.950  0.00  0.00    +0.000 A 
ATOM      7  O   UNL     1       4.197   3.727  16.492  0.00  0.00    +0.000 OA
ENDROOT
BRANCH   1  10
ATOM      8  C   UNL     1       7.422   5.266  14.368  0.00  0.00    +0.000 C 
ATOM      9  N   UNL     1       6.163   5.316  15.063  0.00  0.00    +0.000 N 
ATOM     10  C   UNL     1       6.002   6.071  16.192  0.00  0.00    +0.000 C 
ATOM     11  O   UNL     1       6.897   6.776  16.655  0.00  0.00    +0.000 OA
ATOM     12  H   UNL     1       5.415   4.682  14.783  0.00  0.00    +0.000 HD
ENDBRANCH   1  10
BRANCH   3  13
ATOM     13  C   UNL     1       2.229   8.650  18.192  0.00  0.00    +0.000 C 
ATOM     14  O   UNL     1       2.220   9.597  17.413  0.00  0.00    +0.000 OA
ATOM     15  N   UNL     1       1.740   8.717  19.482  0.00  0.00    +0.000 N 
ATOM     16  H   UNL     1       1.889   7.929  20.098  0.00  0.00    +0.000 HD
BRANCH  15  17
ATOM     17  C   UNL     1       1.059   9.907  20.022  0.00  0.00    +0.000 C 
ATOM     18  C   UNL     1      -0.441   9.994  19.638  0.00  0.00    +0.000 C 
ATOM     19  C   UNL     1      -0.708  10.495  21.069  0.00  0.00    +0.000 C 
ATOM     20  C   UNL     1       0.591   9.778  21.489  0.00  0.00    +0.000 C 
ENDBRANCH  15  17
ENDBRANCH   3  13
BRANCH   5  21
ATOM     21  C   UNL     1       1.825   3.749  17.962  0.00  0.00    +0.000 C 
BRANCH  21  22
ATOM     22  C   UNL     1       2.026   3.313  19.390  0.00  0.00    +0.000 A 
ATOM     23  C   UNL     1       3.247   2.799  19.836  0.00  0.00    +0.000 A 
ATOM     24  C   UNL     1       3.364   2.324  21.141  0.00  0.00    +0.000 A 
ATOM     25  C   UNL     1       2.252   2.386  21.964  0.00  0.00    +0.000 A 
ATOM     26  N   UNL     1       1.065   2.901  21.581  0.00  0.00    +0.000 NA
ATOM     27  C   UNL     1       0.978   3.349  20.307  0.00  0.00    +0.000 A 
ENDBRANCH  21  22
ENDBRANCH   5  21
TORSDOF 5
ENDMDL
MODEL 6
REMARK VINA RESULT:      -7.1      2.296      5.261
REMARK  Name = 
REMARK  6 active torsions:
REMARK  status: ('A' for Active; 'I' for Inactive)
REMARK    1  A    between atoms: C_1  and  N_2
REMARK    2  A    between atoms: C_3  and  C_5
REMARK    3  A    between atoms: C_7  and  C_8
REMARK    4  A    between atoms: N_10  and  C_11
REMARK    5  A    between atoms: N_16  and  C_17
REMARK    6  A    between atoms: C_17  and  C_18
REMARK                            x       y       z     vdW  Elec       q    Type
REMARK                         _______ _______ _______ _____ _____    ______ ____
ROOT
ATOM      1  C   UNL     1       4.939   6.559  17.339  0.00  0.00    +0.000 A 
ATOM      2  C   UNL     1       4.158   7.576  17.741  0.00  0.00    +0.000 A 
ATOM      3  C   UNL     1       2.751   7.396  18.017  0.00  0.00    +0.000 A 
ATOM      4  C   UNL     1       2.254   6.148  18.029  0.00  0.00    +0.000 A 
ATOM      5  N   UNL     1       3.032   5.050  17.669  0.00  0.00    +0.000 N 
ATOM      6  C   UNL     1       4.356   5.188  17.235  0.00  0.00    +0.000 A 
ATOM      7  O   UNL     1       5.032   4.250  16.812  0.00  0.00    +0.000 OA
ENDROOT
BRANCH   1  10
ATOM      8  C   UNL     1       8.271   8.326  17.576  0.00  0.00    +0.000 C 
ATOM      9  N   UNL     1       6.913   7.899  17.778  0.00  0.00    +0.000 N 
ATOM     10  C   UNL     1       6.358   6.904  17.020  0.00  0.00    +0.000 C 
ATOM     11  O   UNL     1       6.988   6.294  16.158  0.00  0.00    +0.000 OA
ATOM     12  H   UNL     1       6.313   8.429  18.411  0.00  0.00    +0.000 HD
ENDBRANCH   1  10
BRANCH   3  13
ATOM     13  C   UNL     1       1.832   8.547  18.325  0.00  0.00    +0.000 C 
ATOM     14  O   UNL     1       1.570   9.405  17.489  0.00  0.00    +0.000 OA
ATOM     15  N   UNL     1       1.362   8.576  19.623  0.00  0.00    +0.000 N 
ATOM     16  H   UNL     1       1.716   7.895  20.282  0.00  0.00    +0.000 HD
BRANCH  15  17
ATOM     17  C   UNL     1       0.409   9.589  20.110  0.00  0.00    +0.000 C 
ATOM     18  C   UNL     1      -0.252   9.221  21.465  0.00  0.00    +0.000 C 
ATOM     19  C   UNL     1      -0.104  10.702  21.861  0.00  0.00    +0.000 C 
ATOM     20  C   UNL     1       1.052  10.787  20.844  0.00  0.00    +0.000 C 
ENDBRANCH  15  17
ENDBRANCH   3  13
BRANCH   5  21
ATOM     21  C   UNL     1       2.464   3.699  17.753  0.00  0.00    +0.000 C 
BRANCH  21  22
ATOM     22  C   UNL     1       2.351   3.226  19.179  0.00  0.00    +0.000 A 
ATOM     23  C   UNL     1       1.130   3.229  19.860  0.00  0.00    +0.000 A 
ATOM     24  C   UNL     1       1.084   2.869  21.205  0.00  0.00    +0.000 A 
ATOM     25  C   UNL     1       2.267   2.508  21.828  0.00  0.00    +0.000 A 
ATOM     26  N   UNL     1       3.461   2.464  21.200  0.00  0.00    +0.000 NA
ATOM     27  C   UNL     1       3.477   2.825  19.896  0.00  0.00    +0.000 A 
ENDBRANCH  21  22
ENDBRANCH   5  21
TORSDOF 5
ENDMDL
MODEL 7
REMARK VINA RESULT:      -7.1      1.180      1.207
REMARK  Name = 
REMARK  6 active torsions:
REMARK  status: ('A' for Active; 'I' for Inactive)
REMARK    1  A    between atoms: C_1  and  N_2
REMARK    2  A    between atoms: C_3  and  C_5
REMARK    3  A    between atoms: C_7  and  C_8
REMARK    4  A    between atoms: N_10  and  C_11
REMARK    5  A    between atoms: N_16  and  C_17
REMARK    6  A    between atoms: C_17  and  C_18
REMARK                            x       y       z     vdW  Elec       q    Type
REMARK                         _______ _______ _______ _____ _____    ______ ____
ROOT
ATOM      1  C   UNL     1       2.425   5.042  18.931  0.00  0.00    +0.000 A 
ATOM      2  C   UNL     1       1.879   6.238  18.651  0.00  0.00    +0.000 A 
ATOM      3  C   UNL     1       2.683   7.376  18.266  0.00  0.00    +0.000 A 
ATOM      4  C   UNL     1       3.991   7.184  18.025  0.00  0.00    +0.000 A 
ATOM      5  N   UNL     1       4.601   5.951  18.249  0.00  0.00    +0.000 N 
ATOM      6  C   UNL     1       3.900   4.861  18.778  0.00  0.00    +0.000 A 
ATOM      7  O   UNL     1       4.435   3.795  19.085  0.00  0.00    +0.000 OA
ENDROOT
BRANCH   1  10
ATOM      8  C   UNL     1       0.616   1.725  18.970  0.00  0.00    +0.000 C 
ATOM      9  N   UNL     1       1.477   2.829  18.639  0.00  0.00    +0.000 N 
ATOM     10  C   UNL     1       1.482   3.977  19.385  0.00  0.00    +0.000 C 
ATOM     11  O   UNL     1       0.791   4.119  20.392  0.00  0.00    +0.000 OA
ATOM     12  H   UNL     1       2.001   2.808  17.764  0.00  0.00    +0.000 HD
ENDBRANCH   1  10
BRANCH   3  13
ATOM     13  C   UNL     1       2.106   8.754  18.093  0.00  0.00    +0.000 C 
ATOM     14  O   UNL     1       2.407   9.465  17.141  0.00  0.00    +0.000 OA
ATOM     15  N   UNL     1       1.264   9.156  19.111  0.00  0.00    +0.000 N 
ATOM     16  H   UNL     1       1.158   8.556  19.918  0.00  0.00    +0.000 HD
BRANCH  15  17
ATOM     17  C   UNL     1       0.555  10.448  19.104  0.00  0.00    +0.000 C 
ATOM     18  C   UNL     1      -0.779  10.421  18.313  0.00  0.00    +0.000 C 
ATOM     19  C   UNL     1      -1.378  11.300  19.426  0.00  0.00    +0.000 C 
ATOM     20  C   UNL     1      -0.294  10.731  20.364  0.00  0.00    +0.000 C 
ENDBRANCH  15  17
ENDBRANCH   3  13
BRANCH   5  21
ATOM     21  C   UNL     1       6.019   5.772  17.915  0.00  0.00    +0.000 C 
BRANCH  21  22
ATOM     22  C   UNL     1       6.210   5.373  16.475  0.00  0.00    +0.000 A 
ATOM     23  C   UNL     1       5.273   4.584  15.800  0.00  0.00    +0.000 A 
ATOM     24  C   UNL     1       5.531   4.163  14.497  0.00  0.00    +0.000 A 
ATOM     25  C   UNL     1       6.720   4.553  13.905  0.00  0.00    +0.000 A 
ATOM     26  N   UNL     1       7.636   5.336  14.510  0.00  0.00    +0.000 NA
ATOM     27  C   UNL     1       7.364   5.726  15.777  0.00  0.00    +0.000 A 
ENDBRANCH  21  22
ENDBRANCH   5  21
TORSDOF 5
ENDMDL
MODEL 8
REMARK VINA RESULT:      -7.0      0.777      1.072
REMARK  Name = 
REMARK  6 active torsions:
REMARK  status: ('A' for Active; 'I' for Inactive)
REMARK    1  A    between atoms: C_1  and  N_2
REMARK    2  A    between atoms: C_3  and  C_5
REMARK    3  A    between atoms: C_7  and  C_8
REMARK    4  A    between atoms: N_10  and  C_11
REMARK    5  A    between atoms: N_16  and  C_17
REMARK    6  A    between atoms: C_17  and  C_18
REMARK                            x       y       z     vdW  Elec       q    Type
REMARK                         _______ _______ _______ _____ _____    ______ ____
ROOT
ATOM      1  C   UNL     1       2.735   4.811  19.329  0.00  0.00    +0.000 A 
ATOM      2  C   UNL     1       2.147   5.962  18.962  0.00  0.00    +0.000 A 
ATOM      3  C   UNL     1       2.891   7.042  18.353  0.00  0.00    +0.000 A 
ATOM      4  C   UNL     1       4.167   6.820  17.998  0.00  0.00    +0.000 A 
ATOM      5  N   UNL     1       4.814   5.625  18.308  0.00  0.00    +0.000 N 
ATOM      6  C   UNL     1       4.187   4.610  19.042  0.00  0.00    +0.000 A 
ATOM      7  O   UNL     1       4.765   3.592  19.421  0.00  0.00    +0.000 OA
ENDROOT
BRANCH   1  10
ATOM      8  C   UNL     1       1.533   2.431  22.007  0.00  0.00    +0.000 C 
ATOM      9  N   UNL     1       2.285   3.389  21.242  0.00  0.00    +0.000 N 
ATOM     10  C   UNL     1       1.860   3.812  20.012  0.00  0.00    +0.000 C 
ATOM     11  O   UNL     1       0.804   3.434  19.508  0.00  0.00    +0.000 OA
ATOM     12  H   UNL     1       3.213   3.666  21.564  0.00  0.00    +0.000 HD
ENDBRANCH   1  10
BRANCH   3  13
ATOM     13  C   UNL     1       2.281   8.387  18.072  0.00  0.00    +0.000 C 
ATOM     14  O   UNL     1       2.535   9.010  17.047  0.00  0.00    +0.000 OA
ATOM     15  N   UNL     1       1.465   8.870  19.077  0.00  0.00    +0.000 N 
ATOM     16  H   UNL     1       1.397   8.347  19.940  0.00  0.00    +0.000 HD
BRANCH  15  17
ATOM     17  C   UNL     1       0.730  10.143  18.973  0.00  0.00    +0.000 C 
ATOM     18  C   UNL     1      -0.598  10.032  18.179  0.00  0.00    +0.000 C 
ATOM     19  C   UNL     1      -1.222  10.976  19.223  0.00  0.00    +0.000 C 
ATOM     20  C   UNL     1      -0.133  10.498  20.205  0.00  0.00    +0.000 C 
ENDBRANCH  15  17
ENDBRANCH   3  13
BRANCH   5  21
ATOM     21  C   UNL     1       6.190   5.404  17.848  0.00  0.00    +0.000 C 
BRANCH  21  22
ATOM     22  C   UNL     1       6.234   4.916  16.424  0.00  0.00    +0.000 A 
ATOM     23  C   UNL     1       7.260   5.288  15.550  0.00  0.00    +0.000 A 
ATOM     24  C   UNL     1       7.216   4.888  14.217  0.00  0.00    +0.000 A 
ATOM     25  C   UNL     1       6.144   4.119  13.798  0.00  0.00    +0.000 A 
ATOM     26  N   UNL     1       5.148   3.715  14.614  0.00  0.00    +0.000 NA
ATOM     27  C   UNL     1       5.213   4.123  15.903  0.00  0.00    +0.000 A 
ENDBRANCH  21  22
ENDBRANCH   5  21
TORSDOF 5
ENDMDL
MODEL 9
REMARK VINA RESULT:      -6.7      2.294      5.374
REMARK  Name = 
REMARK  6 active torsions:
REMARK  status: ('A' for Active; 'I' for Inactive)
REMARK    1  A    between atoms: C_1  and  N_2
REMARK    2  A    between atoms: C_3  and  C_5
REMARK    3  A    between atoms: C_7  and  C_8
REMARK    4  A    between atoms: N_10  and  C_11
REMARK    5  A    between atoms: N_16  and  C_17
REMARK    6  A    between atoms: C_17  and  C_18
REMARK                            x       y       z     vdW  Elec       q    Type
REMARK                         _______ _______ _______ _____ _____    ______ ____
ROOT
ATOM      1  C   UNL     1       5.196   6.649  17.373  0.00  0.00    +0.000 A 
ATOM      2  C   UNL     1       4.365   7.643  17.732  0.00  0.00    +0.000 A 
ATOM      3  C   UNL     1       2.956   7.418  17.958  0.00  0.00    +0.000 A 
ATOM      4  C   UNL     1       2.502   6.153  17.969  0.00  0.00    +0.000 A 
ATOM      5  N   UNL     1       3.331   5.078  17.654  0.00  0.00    +0.000 N 
ATOM      6  C   UNL     1       4.665   5.257  17.268  0.00  0.00    +0.000 A 
ATOM      7  O   UNL     1       5.388   4.338  16.882  0.00  0.00    +0.000 OA
ENDROOT
BRANCH   1  10
ATOM      8  C   UNL     1       8.408   8.627  17.601  0.00  0.00    +0.000 C 
ATOM      9  N   UNL     1       7.063   8.146  17.770  0.00  0.00    +0.000 N 
ATOM     10  C   UNL     1       6.613   7.039  17.102  0.00  0.00    +0.000 C 
ATOM     11  O   UNL     1       7.330   6.374  16.358  0.00  0.00    +0.000 OA
ATOM     12  H   UNL     1       6.396   8.707  18.298  0.00  0.00    +0.000 HD
ENDBRANCH   1  10
BRANCH   3  13
ATOM     13  C   UNL     1       1.988   8.540  18.215  0.00  0.00    +0.000 C 
ATOM     14  O   UNL     1       1.727   9.377  17.358  0.00  0.00    +0.000 OA
ATOM     15  N   UNL     1       1.470   8.570  19.496  0.00  0.00    +0.000 N 
ATOM     16  H   UNL     1       1.824   7.912  20.177  0.00  0.00    +0.000 HD
BRANCH  15  17
ATOM     17  C   UNL     1       0.466   9.556  19.933  0.00  0.00    +0.000 C 
ATOM     18  C   UNL     1      -0.168   9.229  21.311  0.00  0.00    +0.000 C 
ATOM     19  C   UNL     1      -0.099  10.735  21.623  0.00  0.00    +0.000 C 
ATOM     20  C   UNL     1       1.046  10.826  20.594  0.00  0.00    +0.000 C 
ENDBRANCH  15  17
ENDBRANCH   3  13
BRANCH   5  21
ATOM     21  C   UNL     1       2.807   3.710  17.736  0.00  0.00    +0.000 C 
BRANCH  21  22
ATOM     22  C   UNL     1       2.412   3.344  19.143  0.00  0.00    +0.000 A 
ATOM     23  C   UNL     1       3.362   2.987  20.105  0.00  0.00    +0.000 A 
ATOM     24  C   UNL     1       2.949   2.569  21.367  0.00  0.00    +0.000 A 
ATOM     25  C   UNL     1       1.591   2.529  21.633  0.00  0.00    +0.000 A 
ATOM     26  N   UNL     1       0.643   2.892  20.744  0.00  0.00    +0.000 NA
ATOM     27  C   UNL     1       1.072   3.288  19.523  0.00  0.00    +0.000 A 
ENDBRANCH  21  22
ENDBRANCH   5  21
TORSDOF 5
ENDMDL
