MODEL 1
REMARK VINA RESULT:      -2.4      0.000      0.000
REMARK  Name = 
REMARK  4 active torsions:
REMARK  status: ('A' for Active; 'I' for Inactive)
REMARK    1  A    between atoms: C_1  and  N_2
REMARK    2  A    between atoms: N_2  and  C_3
REMARK    3  A    between atoms: N_2  and  C_4
REMARK    4  A    between atoms: N_2  and  C_5
REMARK                            x       y       z     vdW  Elec       q    Type
REMARK                         _______ _______ _______ _____ _____    ______ ____
ROOT
ATOM      1  C   UNL     1       1.701   4.795  20.590  0.00  0.00    +0.000 C 
ATOM      2  N   UNL     1       1.882   3.342  20.382  0.00  0.00    +0.000 N 
ATOM      3  C   UNL     1       0.959   2.876  19.323  0.00  0.00    +0.000 C 
ATOM      4  C   UNL     1       3.279   3.069  19.973  0.00  0.00    +0.000 C 
ATOM      5  C   UNL     1       1.590   2.624  21.642  0.00  0.00    +0.000 C 
ENDROOT
TORSDOF 0
ENDMDL
MODEL 2
REMARK VINA RESULT:      -2.4      0.053      1.871
REMARK  Name = 
REMARK  4 active torsions:
REMARK  status: ('A' for Active; 'I' for Inactive)
REMARK    1  A    between atoms: C_1  and  N_2
REMARK    2  A    between atoms: N_2  and  C_3
REMARK    3  A    between atoms: N_2  and  C_4
REMARK    4  A    between atoms: N_2  and  C_5
REMARK                            x       y       z     vdW  Elec       q    Type
REMARK                         _______ _______ _______ _____ _____    ______ ____
ROOT
ATOM      1  C   UNL     1       0.988   2.911  19.291  0.00  0.00    +0.000 C 
ATOM      2  N   UNL     1       1.882   3.385  20.371  0.00  0.00    +0.000 N 
ATOM      3  C   UNL     1       1.569   2.661  21.623  0.00  0.00    +0.000 C 
ATOM      4  C   UNL     1       3.291   3.132  19.995  0.00  0.00    +0.000 C 
ATOM      5  C   UNL     1       1.681   4.837  20.576  0.00  0.00    +0.000 C 
ENDROOT
TORSDOF 0
ENDMDL
MODEL 3
REMARK VINA RESULT:      -2.4      0.135      1.856
REMARK  Name = 
REMARK  4 active torsions:
REMARK  status: ('A' for Active; 'I' for Inactive)
REMARK    1  A    between atoms: C_1  and  N_2
REMARK    2  A    between atoms: N_2  and  C_3
REMARK    3  A    between atoms: N_2  and  C_4
REMARK    4  A    between atoms: N_2  and  C_5
REMARK                            x       y       z     vdW  Elec       q    Type
REMARK                         _______ _______ _______ _____ _____    ______ ____
ROOT
ATOM      1  C   UNL     1       1.068   3.024  19.279  0.00  0.00    +0.000 C 
ATOM      2  N   UNL     1       1.958   3.393  20.401  0.00  0.00    +0.000 N 
ATOM      3  C   UNL     1       3.356   3.051  20.054  0.00  0.00    +0.000 C 
ATOM      4  C   UNL     1       1.856   4.847  20.659  0.00  0.00    +0.000 C 
ATOM      5  C   UNL     1       1.555   2.649  21.615  0.00  0.00    +0.000 C 
ENDROOT
TORSDOF 0
ENDMDL
MODEL 4
REMARK VINA RESULT:      -2.4      0.220      1.916
REMARK  Name = 
REMARK  4 active torsions:
REMARK  status: ('A' for Active; 'I' for Inactive)
REMARK    1  A    between atoms: C_1  and  N_2
REMARK    2  A    between atoms: N_2  and  C_3
REMARK    3  A    between atoms: N_2  and  C_4
REMARK    4  A    between atoms: N_2  and  C_5
REMARK                            x       y       z     vdW  Elec       q    Type
REMARK                         _______ _______ _______ _____ _____    ______ ____
ROOT
ATOM      1  C   UNL     1       3.376   2.972  20.069  0.00  0.00    +0.000 C 
ATOM      2  N   UNL     1       2.009   3.398  20.440  0.00  0.00    +0.000 N 
ATOM      3  C   UNL     1       1.083   3.116  19.321  0.00  0.00    +0.000 C 
ATOM      4  C   UNL     1       1.568   2.657  21.643  0.00  0.00    +0.000 C 
ATOM      5  C   UNL     1       2.007   4.850  20.729  0.00  0.00    +0.000 C 
ENDROOT
TORSDOF 0
ENDMDL
MODEL 5
REMARK VINA RESULT:      -2.4      0.125      1.850
REMARK  Name = 
REMARK  4 active torsions:
REMARK  status: ('A' for Active; 'I' for Inactive)
REMARK    1  A    between atoms: C_1  and  N_2
REMARK    2  A    between atoms: N_2  and  C_3
REMARK    3  A    between atoms: N_2  and  C_4
REMARK    4  A    between atoms: N_2  and  C_5
REMARK                            x       y       z     vdW  Elec       q    Type
REMARK                         _______ _______ _______ _____ _____    ______ ____
ROOT
ATOM      1  C   UNL     1       1.544   2.644  21.628  0.00  0.00    +0.000 C 
ATOM      2  N   UNL     1       1.804   3.350  20.354  0.00  0.00    +0.000 N 
ATOM      3  C   UNL     1       1.506   4.790  20.519  0.00  0.00    +0.000 C 
ATOM      4  C   UNL     1       3.226   3.183  19.975  0.00  0.00    +0.000 C 
ATOM      5  C   UNL     1       0.942   2.785  19.293  0.00  0.00    +0.000 C 
ENDROOT
TORSDOF 0
ENDMDL
MODEL 6
REMARK VINA RESULT:      -2.4      0.205      1.925
REMARK  Name = 
REMARK  4 active torsions:
REMARK  status: ('A' for Active; 'I' for Inactive)
REMARK    1  A    between atoms: C_1  and  N_2
REMARK    2  A    between atoms: N_2  and  C_3
REMARK    3  A    between atoms: N_2  and  C_4
REMARK    4  A    between atoms: N_2  and  C_5
REMARK                            x       y       z     vdW  Elec       q    Type
REMARK                         _______ _______ _______ _____ _____    ______ ____
ROOT
ATOM      1  C   UNL     1       1.559   2.644  21.603  0.00  0.00    +0.000 C 
ATOM      2  N   UNL     1       1.763   3.383  20.338  0.00  0.00    +0.000 N 
ATOM      3  C   UNL     1       0.930   2.780  19.274  0.00  0.00    +0.000 C 
ATOM      4  C   UNL     1       1.375   4.800  20.522  0.00  0.00    +0.000 C 
ATOM      5  C   UNL     1       3.189   3.310  19.949  0.00  0.00    +0.000 C 
ENDROOT
TORSDOF 0
ENDMDL
MODEL 7
REMARK VINA RESULT:      -2.4      0.159      1.874
REMARK  Name = 
REMARK  4 active torsions:
REMARK  status: ('A' for Active; 'I' for Inactive)
REMARK    1  A    between atoms: C_1  and  N_2
REMARK    2  A    between atoms: N_2  and  C_3
REMARK    3  A    between atoms: N_2  and  C_4
REMARK    4  A    between atoms: N_2  and  C_5
REMARK                            x       y       z     vdW  Elec       q    Type
REMARK                         _______ _______ _______ _____ _____    ______ ____
ROOT
ATOM      1  C   UNL     1       3.239   2.924  19.938  0.00  0.00    +0.000 C 
ATOM      2  N   UNL     1       1.842   3.259  20.291  0.00  0.00    +0.000 N 
ATOM      3  C   UNL     1       1.693   4.728  20.377  0.00  0.00    +0.000 C 
ATOM      4  C   UNL     1       0.928   2.731  19.253  0.00  0.00    +0.000 C 
ATOM      5  C   UNL     1       1.505   2.651  21.597  0.00  0.00    +0.000 C 
ENDROOT
TORSDOF 0
ENDMDL
MODEL 8
REMARK VINA RESULT:      -2.4      0.094      2.160
REMARK  Name = 
REMARK  4 active torsions:
REMARK  status: ('A' for Active; 'I' for Inactive)
REMARK    1  A    between atoms: C_1  and  N_2
REMARK    2  A    between atoms: N_2  and  C_3
REMARK    3  A    between atoms: N_2  and  C_4
REMARK    4  A    between atoms: N_2  and  C_5
REMARK                            x       y       z     vdW  Elec       q    Type
REMARK                         _______ _______ _______ _____ _____    ______ ____
ROOT
ATOM      1  C   UNL     1       1.609   2.660  21.629  0.00  0.00    +0.000 C 
ATOM      2  N   UNL     1       1.848   3.364  20.350  0.00  0.00    +0.000 N 
ATOM      3  C   UNL     1       3.257   3.177  19.940  0.00  0.00    +0.000 C 
ATOM      4  C   UNL     1       0.954   2.812  19.306  0.00  0.00    +0.000 C 
ATOM      5  C   UNL     1       1.570   4.807  20.522  0.00  0.00    +0.000 C 
ENDROOT
TORSDOF 0
ENDMDL
MODEL 9
REMARK VINA RESULT:      -2.4      0.670      1.923
REMARK  Name = 
REMARK  4 active torsions:
REMARK  status: ('A' for Active; 'I' for Inactive)
REMARK    1  A    between atoms: C_1  and  N_2
REMARK    2  A    between atoms: N_2  and  C_3
REMARK    3  A    between atoms: N_2  and  C_4
REMARK    4  A    between atoms: N_2  and  C_5
REMARK                            x       y       z     vdW  Elec       q    Type
REMARK                         _______ _______ _______ _____ _____    ______ ____
ROOT
ATOM      1  C   UNL     1       1.872   4.573  19.653  0.00  0.00    +0.000 C 
ATOM      2  N   UNL     1       1.840   3.109  19.864  0.00  0.00    +0.000 N 
ATOM      3  C   UNL     1       1.350   2.818  21.229  0.00  0.00    +0.000 C 
ATOM      4  C   UNL     1       0.935   2.485  18.873  0.00  0.00    +0.000 C 
ATOM      5  C   UNL     1       3.203   2.558  19.700  0.00  0.00    +0.000 C 
ENDROOT
TORSDOF 0
ENDMDL
