MODEL 1
REMARK VINA RESULT:      -8.7      0.000      0.000
REMARK  Name = 
REMARK  5 active torsions:
REMARK  status: ('A' for Active; 'I' for Inactive)
REMARK    1  A    between atoms: C_4  and  C_5
REMARK    2  A    between atoms: C_15  and  N_16
REMARK    3  A    between atoms: N_16  and  C_17
REMARK    4  A    between atoms: C_17  and  C_18
REMARK    5  A    between atoms: C_18  and  C_19
REMARK                            x       y       z     vdW  Elec       q    Type
REMARK                         _______ _______ _______ _____ _____    ______ ____
ROOT
ATOM      1  N   UNL     1       7.315   5.314  14.439  0.00  0.00    +0.000 N 
ATOM      2  C   UNL     1       6.938   5.530  15.764  0.00  0.00    +0.000 A 
ATOM      3  C   UNL     1       5.917   4.776  16.318  0.00  0.00    +0.000 A 
ATOM      4  C   UNL     1       5.593   4.936  17.667  0.00  0.00    +0.000 A 
ATOM      5  C   UNL     1       6.379   5.841  18.401  0.00  0.00    +0.000 A 
ATOM      6  C   UNL     1       7.390   6.576  17.775  0.00  0.00    +0.000 A 
ATOM      7  N   UNL     1       7.654   6.420  16.466  0.00  0.00    +0.000 NA
ATOM      8  H   UNL     1       6.528   5.299  13.803  0.00  0.00    +0.000 HD
ATOM      9  H   UNL     1       8.005   6.021  14.204  0.00  0.00    +0.000 HD
ENDROOT
BRANCH   4  10
ATOM     10  C   UNL     1       4.478   4.179  18.287  0.00  0.00    +0.000 A 
ATOM     11  C   UNL     1       3.886   3.081  17.628  0.00  0.00    +0.000 A 
ATOM     12  C   UNL     1       2.833   2.339  18.184  0.00  0.00    +0.000 A 
ATOM     13  C   UNL     1       2.402   2.730  19.445  0.00  0.00    +0.000 A 
ATOM     14  O   UNL     1       1.405   2.142  20.162  0.00  0.00    +0.000 OA
ATOM     15  C   UNL     1       1.309   2.825  21.333  0.00  0.00    +0.000 A 
ATOM     16  C   UNL     1       2.229   3.844  21.379  0.00  0.00    +0.000 A 
ATOM     17  C   UNL     1       2.943   3.792  20.154  0.00  0.00    +0.000 A 
ATOM     18  C   UNL     1       3.988   4.528  19.567  0.00  0.00    +0.000 A 
ENDBRANCH   4  10
BRANCH   6  19
ATOM     19  N   UNL     1       8.209   7.413  18.554  0.00  0.00    +0.000 N 
ATOM     20  H   UNL     1       8.052   7.330  19.550  0.00  0.00    +0.000 HD
BRANCH  19  21
ATOM     21  C   UNL     1       8.317   8.785  18.046  0.00  0.00    +0.000 C 
BRANCH  21  22
ATOM     22  C   UNL     1       8.950   9.717  19.090  0.00  0.00    +0.000 C 
BRANCH  22  23
ATOM     23  C   UNL     1       9.455  11.006  18.492  0.00  0.00    +0.000 A 
ATOM     24  C   UNL     1      10.755  11.153  17.899  0.00  0.00    +0.000 A 
ATOM     25  C   UNL     1      10.981  12.425  17.411  0.00  0.00    +0.000 A 
ATOM     26  S   UNL     1       9.636  13.447  17.659  0.00  0.00    +0.000 S 
ATOM     27  C   UNL     1       8.752  12.188  18.416  0.00  0.00    +0.000 A 
ENDBRANCH  22  23
ENDBRANCH  21  22
ENDBRANCH  19  21
ENDBRANCH   6  19
TORSDOF 5
ENDMDL
MODEL 2
REMARK VINA RESULT:      -8.2      1.153      1.544
REMARK  Name = 
REMARK  5 active torsions:
REMARK  status: ('A' for Active; 'I' for Inactive)
REMARK    1  A    between atoms: C_4  and  C_5
REMARK    2  A    between atoms: C_15  and  N_16
REMARK    3  A    between atoms: N_16  and  C_17
REMARK    4  A    between atoms: C_17  and  C_18
REMARK    5  A    between atoms: C_18  and  C_19
REMARK                            x       y       z     vdW  Elec       q    Type
REMARK                         _______ _______ _______ _____ _____    ______ ____
ROOT
ATOM      1  N   UNL     1       6.718   3.685  13.392  0.00  0.00    +0.000 N 
ATOM      2  C   UNL     1       6.458   4.312  14.610  0.00  0.00    +0.000 A 
ATOM      3  C   UNL     1       5.540   3.755  15.485  0.00  0.00    +0.000 A 
ATOM      4  C   UNL     1       5.338   4.338  16.738  0.00  0.00    +0.000 A 
ATOM      5  C   UNL     1       6.137   5.451  17.051  0.00  0.00    +0.000 A 
ATOM      6  C   UNL     1       7.039   5.967  16.116  0.00  0.00    +0.000 A 
ATOM      7  N   UNL     1       7.185   5.399  14.906  0.00  0.00    +0.000 NA
ATOM      8  H   UNL     1       5.877   3.445  12.884  0.00  0.00    +0.000 HD
ATOM      9  H   UNL     1       7.341   4.294  12.868  0.00  0.00    +0.000 HD
ENDROOT
BRANCH   4  10
ATOM     10  C   UNL     1       4.333   3.798  17.686  0.00  0.00    +0.000 A 
ATOM     11  C   UNL     1       3.847   2.479  17.562  0.00  0.00    +0.000 A 
ATOM     12  C   UNL     1       2.900   1.933  18.441  0.00  0.00    +0.000 A 
ATOM     13  C   UNL     1       2.466   2.758  19.470  0.00  0.00    +0.000 A 
ATOM     14  O   UNL     1       1.562   2.422  20.431  0.00  0.00    +0.000 OA
ATOM     15  C   UNL     1       1.426   3.506  21.239  0.00  0.00    +0.000 A 
ATOM     16  C   UNL     1       2.227   4.536  20.809  0.00  0.00    +0.000 A 
ATOM     17  C   UNL     1       2.907   4.059  19.658  0.00  0.00    +0.000 A 
ATOM     18  C   UNL     1       3.845   4.587  18.753  0.00  0.00    +0.000 A 
ENDBRANCH   4  10
BRANCH   6  19
ATOM     19  N   UNL     1       7.879   7.030  16.491  0.00  0.00    +0.000 N 
ATOM     20  H   UNL     1       8.854   6.775  16.570  0.00  0.00    +0.000 HD
BRANCH  19  21
ATOM     21  C   UNL     1       7.350   7.850  17.587  0.00  0.00    +0.000 C 
BRANCH  21  22
ATOM     22  C   UNL     1       8.440   8.158  18.626  0.00  0.00    +0.000 C 
BRANCH  22  23
ATOM     23  C   UNL     1       8.785   9.625  18.693  0.00  0.00    +0.000 A 
ATOM     24  C   UNL     1       8.437  10.571  17.670  0.00  0.00    +0.000 A 
ATOM     25  C   UNL     1       8.851  11.856  17.964  0.00  0.00    +0.000 A 
ATOM     26  S   UNL     1       9.656  11.931  19.468  0.00  0.00    +0.000 S 
ATOM     27  C   UNL     1       9.447  10.250  19.725  0.00  0.00    +0.000 A 
ENDBRANCH  22  23
ENDBRANCH  21  22
ENDBRANCH  19  21
ENDBRANCH   6  19
TORSDOF 5
ENDMDL
MODEL 3
REMARK VINA RESULT:      -8.2      5.215      7.500
REMARK  Name = 
REMARK  5 active torsions:
REMARK  status: ('A' for Active; 'I' for Inactive)
REMARK    1  A    between atoms: C_4  and  C_5
REMARK    2  A    between atoms: C_15  and  N_16
REMARK    3  A    between atoms: N_16  and  C_17
REMARK    4  A    between atoms: C_17  and  C_18
REMARK    5  A    between atoms: C_18  and  C_19
REMARK                            x       y       z     vdW  Elec       q    Type
REMARK                         _______ _______ _______ _____ _____    ______ ____
ROOT
ATOM      1  N   UNL     1       0.688   2.347  18.790  0.00  0.00    +0.000 N 
ATOM      2  C   UNL     1       1.558   3.423  18.965  0.00  0.00    +0.000 A 
ATOM      3  C   UNL     1       2.595   3.620  18.068  0.00  0.00    +0.000 A 
ATOM      4  C   UNL     1       3.417   4.741  18.196  0.00  0.00    +0.000 A 
ATOM      5  C   UNL     1       3.097   5.642  19.227  0.00  0.00    +0.000 A 
ATOM      6  C   UNL     1       2.041   5.376  20.103  0.00  0.00    +0.000 A 
ATOM      7  N   UNL     1       1.289   4.269  19.970  0.00  0.00    +0.000 NA
ATOM      8  H   UNL     1       1.171   1.471  18.640  0.00  0.00    +0.000 HD
ATOM      9  H   UNL     1       0.067   2.329  19.594  0.00  0.00    +0.000 HD
ENDROOT
BRANCH   4  10
ATOM     10  C   UNL     1       4.564   4.965  17.283  0.00  0.00    +0.000 A 
ATOM     11  C   UNL     1       5.633   5.811  17.647  0.00  0.00    +0.000 A 
ATOM     12  C   UNL     1       6.735   6.044  16.812  0.00  0.00    +0.000 A 
ATOM     13  C   UNL     1       6.738   5.378  15.594  0.00  0.00    +0.000 A 
ATOM     14  O   UNL     1       7.712   5.457  14.646  0.00  0.00    +0.000 OA
ATOM     15  C   UNL     1       7.329   4.651  13.620  0.00  0.00    +0.000 A 
ATOM     16  C   UNL     1       6.121   4.057  13.895  0.00  0.00    +0.000 A 
ATOM     17  C   UNL     1       5.728   4.524  15.175  0.00  0.00    +0.000 A 
ATOM     18  C   UNL     1       4.626   4.321  16.026  0.00  0.00    +0.000 A 
ENDBRANCH   4  10
BRANCH   6  19
ATOM     19  N   UNL     1       1.698   6.336  21.072  0.00  0.00    +0.000 N 
ATOM     20  H   UNL     1       0.911   6.074  21.650  0.00  0.00    +0.000 HD
BRANCH  19  21
ATOM     21  C   UNL     1       1.678   7.713  20.566  0.00  0.00    +0.000 C 
BRANCH  21  22
ATOM     22  C   UNL     1       0.981   8.659  21.558  0.00  0.00    +0.000 C 
BRANCH  22  23
ATOM     23  C   UNL     1       0.314   9.828  20.878  0.00  0.00    +0.000 A 
ATOM     24  C   UNL     1       0.128   9.922  19.457  0.00  0.00    +0.000 A 
ATOM     25  C   UNL     1      -0.518  11.082  19.076  0.00  0.00    +0.000 A 
ATOM     26  S   UNL     1      -0.906  12.061  20.421  0.00  0.00    +0.000 S 
ATOM     27  C   UNL     1      -0.213  10.932  21.509  0.00  0.00    +0.000 A 
ENDBRANCH  22  23
ENDBRANCH  21  22
ENDBRANCH  19  21
ENDBRANCH   6  19
TORSDOF 5
ENDMDL
MODEL 4
REMARK VINA RESULT:      -8.2      5.800      7.803
REMARK  Name = 
REMARK  5 active torsions:
REMARK  status: ('A' for Active; 'I' for Inactive)
REMARK    1  A    between atoms: C_4  and  C_5
REMARK    2  A    between atoms: C_15  and  N_16
REMARK    3  A    between atoms: N_16  and  C_17
REMARK    4  A    between atoms: C_17  and  C_18
REMARK    5  A    between atoms: C_18  and  C_19
REMARK                            x       y       z     vdW  Elec       q    Type
REMARK                         _______ _______ _______ _____ _____    ______ ____
ROOT
ATOM      1  N   UNL     1       1.588  10.610  17.736  0.00  0.00    +0.000 N 
ATOM      2  C   UNL     1       1.811   9.370  18.335  0.00  0.00    +0.000 A 
ATOM      3  C   UNL     1       2.558   8.412  17.669  0.00  0.00    +0.000 A 
ATOM      4  C   UNL     1       2.850   7.201  18.301  0.00  0.00    +0.000 A 
ATOM      5  C   UNL     1       2.394   7.055  19.623  0.00  0.00    +0.000 A 
ATOM      6  C   UNL     1       1.639   8.060  20.232  0.00  0.00    +0.000 A 
ATOM      7  N   UNL     1       1.349   9.201  19.582  0.00  0.00    +0.000 NA
ATOM      8  H   UNL     1       1.257  10.533  16.783  0.00  0.00    +0.000 HD
ATOM      9  H   UNL     1       0.952  11.124  18.339  0.00  0.00    +0.000 HD
ENDROOT
BRANCH   4  10
ATOM     10  C   UNL     1       3.608   6.132  17.606  0.00  0.00    +0.000 A 
ATOM     11  C   UNL     1       3.352   4.769  17.866  0.00  0.00    +0.000 A 
ATOM     12  C   UNL     1       4.045   3.731  17.226  0.00  0.00    +0.000 A 
ATOM     13  C   UNL     1       5.001   4.111  16.293  0.00  0.00    +0.000 A 
ATOM     14  O   UNL     1       5.775   3.266  15.557  0.00  0.00    +0.000 OA
ATOM     15  C   UNL     1       6.565   4.042  14.770  0.00  0.00    +0.000 A 
ATOM     16  C   UNL     1       6.311   5.374  14.990  0.00  0.00    +0.000 A 
ATOM     17  C   UNL     1       5.297   5.429  15.980  0.00  0.00    +0.000 A 
ATOM     18  C   UNL     1       4.598   6.451  16.648  0.00  0.00    +0.000 A 
ENDBRANCH   4  10
BRANCH   6  19
ATOM     19  N   UNL     1       1.268   7.915  21.580  0.00  0.00    +0.000 N 
ATOM     20  H   UNL     1       0.452   7.334  21.722  0.00  0.00    +0.000 HD
BRANCH  19  21
ATOM     21  C   UNL     1       1.290   9.168  22.343  0.00  0.00    +0.000 C 
BRANCH  21  22
ATOM     22  C   UNL     1      -0.079   9.454  22.982  0.00  0.00    +0.000 C 
BRANCH  22  23
ATOM     23  C   UNL     1      -0.629  10.807  22.604  0.00  0.00    +0.000 A 
ATOM     24  C   UNL     1      -1.794  11.389  23.210  0.00  0.00    +0.000 A 
ATOM     25  C   UNL     1      -2.093  12.639  22.703  0.00  0.00    +0.000 A 
ATOM     26  S   UNL     1      -0.977  13.120  21.504  0.00  0.00    +0.000 S 
ATOM     27  C   UNL     1      -0.095  11.659  21.664  0.00  0.00    +0.000 A 
ENDBRANCH  22  23
ENDBRANCH  21  22
ENDBRANCH  19  21
ENDBRANCH   6  19
TORSDOF 5
ENDMDL
MODEL 5
REMARK VINA RESULT:      -8.2      4.695      6.490
REMARK  Name = 
REMARK  5 active torsions:
REMARK  status: ('A' for Active; 'I' for Inactive)
REMARK    1  A    between atoms: C_4  and  C_5
REMARK    2  A    between atoms: C_15  and  N_16
REMARK    3  A    between atoms: N_16  and  C_17
REMARK    4  A    between atoms: C_17  and  C_18
REMARK    5  A    between atoms: C_18  and  C_19
REMARK                            x       y       z     vdW  Elec       q    Type
REMARK                         _______ _______ _______ _____ _____    ______ ____
ROOT
ATOM      1  N   UNL     1       1.561   2.005  19.201  0.00  0.00    +0.000 N 
ATOM      2  C   UNL     1       2.355   3.151  19.202  0.00  0.00    +0.000 A 
ATOM      3  C   UNL     1       1.777   4.385  19.447  0.00  0.00    +0.000 A 
ATOM      4  C   UNL     1       2.584   5.522  19.527  0.00  0.00    +0.000 A 
ATOM      5  C   UNL     1       3.969   5.323  19.398  0.00  0.00    +0.000 A 
ATOM      6  C   UNL     1       4.485   4.048  19.144  0.00  0.00    +0.000 A 
ATOM      7  N   UNL     1       3.675   2.980  19.041  0.00  0.00    +0.000 NA
ATOM      8  H   UNL     1       0.729   2.102  18.633  0.00  0.00    +0.000 HD
ATOM      9  H   UNL     1       2.152   1.230  18.914  0.00  0.00    +0.000 HD
ENDROOT
BRANCH   4  10
ATOM     10  C   UNL     1       1.999   6.868  19.744  0.00  0.00    +0.000 A 
ATOM     11  C   UNL     1       1.337   7.192  20.948  0.00  0.00    +0.000 A 
ATOM     12  C   UNL     1       0.775   8.454  21.190  0.00  0.00    +0.000 A 
ATOM     13  C   UNL     1       0.918   9.397  20.181  0.00  0.00    +0.000 A 
ATOM     14  O   UNL     1       0.458  10.678  20.217  0.00  0.00    +0.000 OA
ATOM     15  C   UNL     1       0.812  11.256  19.040  0.00  0.00    +0.000 A 
ATOM     16  C   UNL     1       1.492  10.365  18.245  0.00  0.00    +0.000 A 
ATOM     17  C   UNL     1       1.565   9.152  18.978  0.00  0.00    +0.000 A 
ATOM     18  C   UNL     1       2.105   7.873  18.755  0.00  0.00    +0.000 A 
ENDBRANCH   4  10
BRANCH   6  19
ATOM     19  N   UNL     1       5.879   3.871  19.101  0.00  0.00    +0.000 N 
ATOM     20  H   UNL     1       6.208   3.068  19.621  0.00  0.00    +0.000 HD
BRANCH  19  21
ATOM     21  C   UNL     1       6.644   5.107  19.302  0.00  0.00    +0.000 C 
BRANCH  21  22
ATOM     22  C   UNL     1       7.566   5.391  18.105  0.00  0.00    +0.000 C 
BRANCH  22  23
ATOM     23  C   UNL     1       6.864   5.246  16.779  0.00  0.00    +0.000 A 
ATOM     24  C   UNL     1       5.829   6.134  16.327  0.00  0.00    +0.000 A 
ATOM     25  C   UNL     1       5.348   5.803  15.075  0.00  0.00    +0.000 A 
ATOM     26  S   UNL     1       6.136   4.429  14.438  0.00  0.00    +0.000 S 
ATOM     27  C   UNL     1       7.121   4.281  15.833  0.00  0.00    +0.000 A 
ENDBRANCH  22  23
ENDBRANCH  21  22
ENDBRANCH  19  21
ENDBRANCH   6  19
TORSDOF 5
ENDMDL
MODEL 6
REMARK VINA RESULT:      -8.1      4.101      5.732
REMARK  Name = 
REMARK  5 active torsions:
REMARK  status: ('A' for Active; 'I' for Inactive)
REMARK    1  A    between atoms: C_4  and  C_5
REMARK    2  A    between atoms: C_15  and  N_16
REMARK    3  A    between atoms: N_16  and  C_17
REMARK    4  A    between atoms: C_17  and  C_18
REMARK    5  A    between atoms: C_18  and  C_19
REMARK                            x       y       z     vdW  Elec       q    Type
REMARK                         _______ _______ _______ _____ _____    ______ ____
ROOT
ATOM      1  N   UNL     1       4.575   2.578  20.130  0.00  0.00    +0.000 N 
ATOM      2  C   UNL     1       4.181   3.508  19.168  0.00  0.00    +0.000 A 
ATOM      3  C   UNL     1       3.568   4.685  19.564  0.00  0.00    +0.000 A 
ATOM      4  C   UNL     1       3.246   5.652  18.609  0.00  0.00    +0.000 A 
ATOM      5  C   UNL     1       3.619   5.375  17.282  0.00  0.00    +0.000 A 
ATOM      6  C   UNL     1       4.229   4.162  16.952  0.00  0.00    +0.000 A 
ATOM      7  N   UNL     1       4.495   3.239  17.893  0.00  0.00    +0.000 NA
ATOM      8  H   UNL     1       3.844   2.366  20.796  0.00  0.00    +0.000 HD
ATOM      9  H   UNL     1       4.914   1.758  19.634  0.00  0.00    +0.000 HD
ENDROOT
BRANCH   4  10
ATOM     10  C   UNL     1       2.550   6.906  18.986  0.00  0.00    +0.000 A 
ATOM     11  C   UNL     1       2.322   7.928  18.040  0.00  0.00    +0.000 A 
ATOM     12  C   UNL     1       1.664   9.125  18.358  0.00  0.00    +0.000 A 
ATOM     13  C   UNL     1       1.221   9.256  19.667  0.00  0.00    +0.000 A 
ATOM     14  O   UNL     1       0.556  10.329  20.179  0.00  0.00    +0.000 OA
ATOM     15  C   UNL     1       0.306  10.049  21.485  0.00  0.00    +0.000 A 
ATOM     16  C   UNL     1       0.803   8.813  21.822  0.00  0.00    +0.000 A 
ATOM     17  C   UNL     1       1.401   8.290  20.646  0.00  0.00    +0.000 A 
ATOM     18  C   UNL     1       2.078   7.105  20.304  0.00  0.00    +0.000 A 
ENDBRANCH   4  10
BRANCH   6  19
ATOM     19  N   UNL     1       4.661   3.952  15.631  0.00  0.00    +0.000 N 
ATOM     20  H   UNL     1       4.075   3.319  15.101  0.00  0.00    +0.000 HD
BRANCH  19  21
ATOM     21  C   UNL     1       6.106   3.727  15.504  0.00  0.00    +0.000 C 
BRANCH  21  22
ATOM     22  C   UNL     1       6.872   5.058  15.432  0.00  0.00    +0.000 C 
BRANCH  22  23
ATOM     23  C   UNL     1       7.293   5.563  16.789  0.00  0.00    +0.000 A 
ATOM     24  C   UNL     1       7.421   6.956  17.114  0.00  0.00    +0.000 A 
ATOM     25  C   UNL     1       7.810   7.168  18.423  0.00  0.00    +0.000 A 
ATOM     26  S   UNL     1       8.021   5.697  19.265  0.00  0.00    +0.000 S 
ATOM     27  C   UNL     1       7.589   4.781  17.882  0.00  0.00    +0.000 A 
ENDBRANCH  22  23
ENDBRANCH  21  22
ENDBRANCH  19  21
ENDBRANCH   6  19
TORSDOF 5
ENDMDL
MODEL 7
REMARK VINA RESULT:      -8.1      1.375      1.807
REMARK  Name = 
REMARK  5 active torsions:
REMARK  status: ('A' for Active; 'I' for Inactive)
REMARK    1  A    between atoms: C_4  and  C_5
REMARK    2  A    between atoms: C_15  and  N_16
REMARK    3  A    between atoms: N_16  and  C_17
REMARK    4  A    between atoms: C_17  and  C_18
REMARK    5  A    between atoms: C_18  and  C_19
REMARK                            x       y       z     vdW  Elec       q    Type
REMARK                         _______ _______ _______ _____ _____    ______ ____
ROOT
ATOM      1  N   UNL     1       6.601   3.721  14.264  0.00  0.00    +0.000 N 
ATOM      2  C   UNL     1       6.403   4.602  15.327  0.00  0.00    +0.000 A 
ATOM      3  C   UNL     1       5.398   4.352  16.246  0.00  0.00    +0.000 A 
ATOM      4  C   UNL     1       5.251   5.189  17.354  0.00  0.00    +0.000 A 
ATOM      5  C   UNL     1       6.188   6.227  17.488  0.00  0.00    +0.000 A 
ATOM      6  C   UNL     1       7.174   6.428  16.517  0.00  0.00    +0.000 A 
ATOM      7  N   UNL     1       7.266   5.621  15.445  0.00  0.00    +0.000 NA
ATOM      8  H   UNL     1       5.746   3.499  13.771  0.00  0.00    +0.000 HD
ATOM      9  H   UNL     1       7.313   4.129  13.665  0.00  0.00    +0.000 HD
ENDROOT
BRANCH   4  10
ATOM     10  C   UNL     1       4.160   4.980  18.338  0.00  0.00    +0.000 A 
ATOM     11  C   UNL     1       3.447   6.072  18.879  0.00  0.00    +0.000 A 
ATOM     12  C   UNL     1       2.408   5.914  19.807  0.00  0.00    +0.000 A 
ATOM     13  C   UNL     1       2.093   4.610  20.165  0.00  0.00    +0.000 A 
ATOM     14  O   UNL     1       1.117   4.238  21.039  0.00  0.00    +0.000 OA
ATOM     15  C   UNL     1       1.139   2.881  21.099  0.00  0.00    +0.000 A 
ATOM     16  C   UNL     1       2.117   2.374  20.278  0.00  0.00    +0.000 A 
ATOM     17  C   UNL     1       2.744   3.491  19.667  0.00  0.00    +0.000 A 
ATOM     18  C   UNL     1       3.793   3.679  18.749  0.00  0.00    +0.000 A 
ENDBRANCH   4  10
BRANCH   6  19
ATOM     19  N   UNL     1       8.143   7.424  16.722  0.00  0.00    +0.000 N 
ATOM     20  H   UNL     1       9.085   7.137  16.490  0.00  0.00    +0.000 HD
BRANCH  19  21
ATOM     21  C   UNL     1       8.001   8.143  17.994  0.00  0.00    +0.000 C 
BRANCH  21  22
ATOM     22  C   UNL     1       7.933   9.662  17.770  0.00  0.00    +0.000 C 
BRANCH  22  23
ATOM     23  C   UNL     1       9.034  10.406  18.483  0.00  0.00    +0.000 A 
ATOM     24  C   UNL     1      10.035  11.184  17.808  0.00  0.00    +0.000 A 
ATOM     25  C   UNL     1      10.928  11.781  18.677  0.00  0.00    +0.000 A 
ATOM     26  S   UNL     1      10.568  11.412  20.305  0.00  0.00    +0.000 S 
ATOM     27  C   UNL     1       9.218  10.459  19.846  0.00  0.00    +0.000 A 
ENDBRANCH  22  23
ENDBRANCH  21  22
ENDBRANCH  19  21
ENDBRANCH   6  19
TORSDOF 5
ENDMDL
MODEL 8
REMARK VINA RESULT:      -8.0      4.243      6.013
REMARK  Name = 
REMARK  5 active torsions:
REMARK  status: ('A' for Active; 'I' for Inactive)
REMARK    1  A    between atoms: C_4  and  C_5
REMARK    2  A    between atoms: C_15  and  N_16
REMARK    3  A    between atoms: N_16  and  C_17
REMARK    4  A    between atoms: C_17  and  C_18
REMARK    5  A    between atoms: C_18  and  C_19
REMARK                            x       y       z     vdW  Elec       q    Type
REMARK                         _______ _______ _______ _____ _____    ______ ____
ROOT
ATOM      1  N   UNL     1       3.294   2.410  21.214  0.00  0.00    +0.000 N 
ATOM      2  C   UNL     1       3.283   3.238  20.092  0.00  0.00    +0.000 A 
ATOM      3  C   UNL     1       2.826   4.541  20.205  0.00  0.00    +0.000 A 
ATOM      4  C   UNL     1       2.890   5.394  19.102  0.00  0.00    +0.000 A 
ATOM      5  C   UNL     1       3.474   4.872  17.935  0.00  0.00    +0.000 A 
ATOM      6  C   UNL     1       3.907   3.544  17.887  0.00  0.00    +0.000 A 
ATOM      7  N   UNL     1       3.801   2.740  18.960  0.00  0.00    +0.000 NA
ATOM      8  H   UNL     1       2.414   2.413  21.714  0.00  0.00    +0.000 HD
ATOM      9  H   UNL     1       3.573   1.484  20.901  0.00  0.00    +0.000 HD
ENDROOT
BRANCH   4  10
ATOM     10  C   UNL     1       2.371   6.782  19.170  0.00  0.00    +0.000 A 
ATOM     11  C   UNL     1       2.408   7.631  18.044  0.00  0.00    +0.000 A 
ATOM     12  C   UNL     1       1.923   8.947  18.068  0.00  0.00    +0.000 A 
ATOM     13  C   UNL     1       1.377   9.381  19.270  0.00  0.00    +0.000 A 
ATOM     14  O   UNL     1       0.846  10.613  19.503  0.00  0.00    +0.000 OA
ATOM     15  C   UNL     1       0.423  10.620  20.795  0.00  0.00    +0.000 A 
ATOM     16  C   UNL     1       0.678   9.411  21.396  0.00  0.00    +0.000 A 
ATOM     17  C   UNL     1       1.299   8.599  20.412  0.00  0.00    +0.000 A 
ATOM     18  C   UNL     1       1.807   7.288  20.364  0.00  0.00    +0.000 A 
ENDBRANCH   4  10
BRANCH   6  19
ATOM     19  N   UNL     1       4.559   3.079  16.732  0.00  0.00    +0.000 N 
ATOM     20  H   UNL     1       5.167   2.287  16.893  0.00  0.00    +0.000 HD
BRANCH  19  21
ATOM     21  C   UNL     1       5.121   4.144  15.894  0.00  0.00    +0.000 C 
BRANCH  21  22
ATOM     22  C   UNL     1       6.651   4.209  16.029  0.00  0.00    +0.000 C 
BRANCH  22  23
ATOM     23  C   UNL     1       7.110   5.302  16.961  0.00  0.00    +0.000 A 
ATOM     24  C   UNL     1       7.591   5.061  18.293  0.00  0.00    +0.000 A 
ATOM     25  C   UNL     1       7.963   6.220  18.946  0.00  0.00    +0.000 A 
ATOM     26  S   UNL     1       7.739   7.599  17.964  0.00  0.00    +0.000 S 
ATOM     27  C   UNL     1       7.149   6.646  16.667  0.00  0.00    +0.000 A 
ENDBRANCH  22  23
ENDBRANCH  21  22
ENDBRANCH  19  21
ENDBRANCH   6  19
TORSDOF 5
ENDMDL
MODEL 9
REMARK VINA RESULT:      -8.0      5.473      7.542
REMARK  Name = 
REMARK  5 active torsions:
REMARK  status: ('A' for Active; 'I' for Inactive)
REMARK    1  A    between atoms: C_4  and  C_5
REMARK    2  A    between atoms: C_15  and  N_16
REMARK    3  A    between atoms: N_16  and  C_17
REMARK    4  A    between atoms: C_17  and  C_18
REMARK    5  A    between atoms: C_18  and  C_19
REMARK                            x       y       z     vdW  Elec       q    Type
REMARK                         _______ _______ _______ _____ _____    ______ ____
ROOT
ATOM      1  N   UNL     1       0.513   3.050  20.087  0.00  0.00    +0.000 N 
ATOM      2  C   UNL     1       1.416   4.106  19.970  0.00  0.00    +0.000 A 
ATOM      3  C   UNL     1       2.476   4.007  19.083  0.00  0.00    +0.000 A 
ATOM      4  C   UNL     1       3.333   5.095  18.907  0.00  0.00    +0.000 A 
ATOM      5  C   UNL     1       3.024   6.264  19.624  0.00  0.00    +0.000 A 
ATOM      6  C   UNL     1       1.942   6.292  20.509  0.00  0.00    +0.000 A 
ATOM      7  N   UNL     1       1.156   5.214  20.679  0.00  0.00    +0.000 NA
ATOM      8  H   UNL     1       0.968   2.155  20.210  0.00  0.00    +0.000 HD
ATOM      9  H   UNL     1      -0.124   3.282  20.844  0.00  0.00    +0.000 HD
ENDROOT
BRANCH   4  10
ATOM     10  C   UNL     1       4.504   5.014  18.000  0.00  0.00    +0.000 A 
ATOM     11  C   UNL     1       5.821   5.111  18.499  0.00  0.00    +0.000 A 
ATOM     12  C   UNL     1       6.953   5.035  17.675  0.00  0.00    +0.000 A 
ATOM     13  C   UNL     1       6.717   4.838  16.320  0.00  0.00    +0.000 A 
ATOM     14  O   UNL     1       7.671   4.727  15.355  0.00  0.00    +0.000 OA
ATOM     15  C   UNL     1       7.018   4.538  14.178  0.00  0.00    +0.000 A 
ATOM     16  C   UNL     1       5.658   4.528  14.373  0.00  0.00    +0.000 A 
ATOM     17  C   UNL     1       5.453   4.723  15.763  0.00  0.00    +0.000 A 
ATOM     18  C   UNL     1       4.334   4.819  16.610  0.00  0.00    +0.000 A 
ENDBRANCH   4  10
BRANCH   6  19
ATOM     19  N   UNL     1       1.614   7.499  21.149  0.00  0.00    +0.000 N 
ATOM     20  H   UNL     1       1.026   7.386  21.965  0.00  0.00    +0.000 HD
BRANCH  19  21
ATOM     21  C   UNL     1       1.218   8.573  20.231  0.00  0.00    +0.000 C 
BRANCH  21  22
ATOM     22  C   UNL     1       0.099   9.437  20.836  0.00  0.00    +0.000 C 
BRANCH  22  23
ATOM     23  C   UNL     1      -0.345  10.546  19.915  0.00  0.00    +0.000 A 
ATOM     24  C   UNL     1      -1.173  10.336  18.760  0.00  0.00    +0.000 A 
ATOM     25  C   UNL     1      -1.453  11.507  18.082  0.00  0.00    +0.000 A 
ATOM     26  S   UNL     1      -0.727  12.860  18.829  0.00  0.00    +0.000 S 
ATOM     27  C   UNL     1      -0.042  11.881  20.058  0.00  0.00    +0.000 A 
ENDBRANCH  22  23
ENDBRANCH  21  22
ENDBRANCH  19  21
ENDBRANCH   6  19
TORSDOF 5
ENDMDL
