MODEL 1
REMARK VINA RESULT:      -8.8      0.000      0.000
REMARK  Name = 
REMARK  4 active torsions:
REMARK  status: ('A' for Active; 'I' for Inactive)
REMARK    1  A    between atoms: C_1  and  N_2
REMARK    2  A    between atoms: C_5  and  C_6
REMARK    3  A    between atoms: C_10  and  C_11
REMARK    4  A    between atoms: C_17  and  C_18
REMARK                            x       y       z     vdW  Elec       q    Type
REMARK                         _______ _______ _______ _____ _____    ______ ____
ROOT
ATOM      1  C   UNL     1       0.497  10.099  20.675  0.00  0.00    +0.000 A 
ATOM      2  C   UNL     1       0.082   9.046  21.491  0.00  0.00    +0.000 A 
ATOM      3  C   UNL     1       0.490   7.738  21.231  0.00  0.00    +0.000 A 
ATOM      4  C   UNL     1       1.366   7.468  20.159  0.00  0.00    +0.000 A 
ATOM      5  C   UNL     1       1.998   6.279  19.651  0.00  0.00    +0.000 A 
ATOM      6  C   UNL     1       2.799   6.657  18.565  0.00  0.00    +0.000 A 
ATOM      7  N   UNL     1       2.600   8.017  18.394  0.00  0.00    +0.000 N 
ATOM      8  C   UNL     1       1.765   8.530  19.356  0.00  0.00    +0.000 A 
ATOM      9  C   UNL     1       1.339   9.846  19.576  0.00  0.00    +0.000 A 
ATOM     10  H   UNL     1       3.060   8.576  17.692  0.00  0.00    +0.000 HD
ENDROOT
BRANCH   1  15
ATOM     11  C   UNL     1      -0.310  15.295  22.937  0.00  0.00    +0.000 C 
ATOM     12  N   UNL     1       0.104  13.942  22.574  0.00  0.00    +0.000 NA
ATOM     13  C   UNL     1      -1.022  13.009  22.719  0.00  0.00    +0.000 C 
ATOM     14  C   UNL     1      -0.594  11.580  22.398  0.00  0.00    +0.000 C 
ATOM     15  C   UNL     1       0.017  11.500  20.996  0.00  0.00    +0.000 C 
ATOM     16  C   UNL     1       1.138  12.531  20.828  0.00  0.00    +0.000 C 
ATOM     17  C   UNL     1       0.649  13.926  21.209  0.00  0.00    +0.000 C 
ENDBRANCH   1  15
BRANCH   6  18
ATOM     18  C   UNL     1       3.746   5.914  17.714  0.00  0.00    +0.000 A 
ATOM     19  C   UNL     1       3.548   4.557  17.405  0.00  0.00    +0.000 A 
ATOM     20  C   UNL     1       4.458   3.869  16.602  0.00  0.00    +0.000 A 
ATOM     21  C   UNL     1       5.581   4.526  16.107  0.00  0.00    +0.000 A 
ATOM     22  F   UNL     1       6.456   3.863  15.340  0.00  0.00    +0.000 F 
ATOM     23  C   UNL     1       5.804   5.861  16.399  0.00  0.00    +0.000 A 
ATOM     24  C   UNL     1       4.875   6.554  17.175  0.00  0.00    +0.000 A 
ENDBRANCH   6  18
BRANCH   5  25
ATOM     25  C   UNL     1       1.881   4.920  20.187  0.00  0.00    +0.000 A 
ATOM     26  C   UNL     1       1.091   3.977  19.560  0.00  0.00    +0.000 A 
ATOM     27  C   UNL     1       1.025   2.742  20.154  0.00  0.00    +0.000 A 
ATOM     28  N   UNL     1       1.638   2.445  21.318  0.00  0.00    +0.000 NA
ATOM     29  C   UNL     1       2.363   3.433  21.853  0.00  0.00    +0.000 A 
ATOM     30  N   UNL     1       2.550   4.654  21.323  0.00  0.00    +0.000 NA
ENDBRANCH   5  25
TORSDOF 3
ENDMDL
MODEL 2
REMARK VINA RESULT:      -8.6      0.849      1.462
REMARK  Name = 
REMARK  4 active torsions:
REMARK  status: ('A' for Active; 'I' for Inactive)
REMARK    1  A    between atoms: C_1  and  N_2
REMARK    2  A    between atoms: C_5  and  C_6
REMARK    3  A    between atoms: C_10  and  C_11
REMARK    4  A    between atoms: C_17  and  C_18
REMARK                            x       y       z     vdW  Elec       q    Type
REMARK                         _______ _______ _______ _____ _____    ______ ____
ROOT
ATOM      1  C   UNL     1       0.447  10.122  20.859  0.00  0.00    +0.000 A 
ATOM      2  C   UNL     1       0.066   9.044  21.659  0.00  0.00    +0.000 A 
ATOM      3  C   UNL     1       0.473   7.746  21.349  0.00  0.00    +0.000 A 
ATOM      4  C   UNL     1       1.314   7.512  20.242  0.00  0.00    +0.000 A 
ATOM      5  C   UNL     1       1.937   6.342  19.681  0.00  0.00    +0.000 A 
ATOM      6  C   UNL     1       2.699   6.756  18.580  0.00  0.00    +0.000 A 
ATOM      7  N   UNL     1       2.486   8.118  18.454  0.00  0.00    +0.000 N 
ATOM      8  C   UNL     1       1.680   8.599  19.456  0.00  0.00    +0.000 A 
ATOM      9  C   UNL     1       1.254   9.905  19.727  0.00  0.00    +0.000 A 
ATOM     10  H   UNL     1       2.919   8.700  17.752  0.00  0.00    +0.000 HD
ENDROOT
BRANCH   1  15
ATOM     11  C   UNL     1      -2.666  14.736  22.198  0.00  0.00    +0.000 C 
ATOM     12  N   UNL     1      -2.138  13.421  21.837  0.00  0.00    +0.000 NA
ATOM     13  C   UNL     1      -1.416  13.497  20.560  0.00  0.00    +0.000 C 
ATOM     14  C   UNL     1      -0.905  12.123  20.137  0.00  0.00    +0.000 C 
ATOM     15  C   UNL     1      -0.031  11.510  21.235  0.00  0.00    +0.000 C 
ATOM     16  C   UNL     1      -0.763  11.507  22.581  0.00  0.00    +0.000 C 
ATOM     17  C   UNL     1      -1.283  12.904  22.914  0.00  0.00    +0.000 C 
ENDBRANCH   1  15
BRANCH   6  18
ATOM     18  C   UNL     1       3.622   6.043  17.677  0.00  0.00    +0.000 A 
ATOM     19  C   UNL     1       4.597   6.728  16.933  0.00  0.00    +0.000 A 
ATOM     20  C   UNL     1       5.458   6.037  16.079  0.00  0.00    +0.000 A 
ATOM     21  C   UNL     1       5.347   4.656  15.953  0.00  0.00    +0.000 A 
ATOM     22  F   UNL     1       6.171   3.994  15.131  0.00  0.00    +0.000 F 
ATOM     23  C   UNL     1       4.393   3.955  16.672  0.00  0.00    +0.000 A 
ATOM     24  C   UNL     1       3.555   4.646  17.548  0.00  0.00    +0.000 A 
ENDBRANCH   6  18
BRANCH   5  25
ATOM     25  C   UNL     1       1.846   4.969  20.182  0.00  0.00    +0.000 A 
ATOM     26  C   UNL     1       1.110   4.015  19.507  0.00  0.00    +0.000 A 
ATOM     27  C   UNL     1       1.065   2.765  20.071  0.00  0.00    +0.000 A 
ATOM     28  N   UNL     1       1.646   2.461  21.249  0.00  0.00    +0.000 NA
ATOM     29  C   UNL     1       2.318   3.459  21.831  0.00  0.00    +0.000 A 
ATOM     30  N   UNL     1       2.483   4.698  21.336  0.00  0.00    +0.000 NA
ENDBRANCH   5  25
TORSDOF 3
ENDMDL
MODEL 3
REMARK VINA RESULT:      -8.6      1.968      2.754
REMARK  Name = 
REMARK  4 active torsions:
REMARK  status: ('A' for Active; 'I' for Inactive)
REMARK    1  A    between atoms: C_1  and  N_2
REMARK    2  A    between atoms: C_5  and  C_6
REMARK    3  A    between atoms: C_10  and  C_11
REMARK    4  A    between atoms: C_17  and  C_18
REMARK                            x       y       z     vdW  Elec       q    Type
REMARK                         _______ _______ _______ _____ _____    ______ ____
ROOT
ATOM      1  C   UNL     1       1.358   8.499  20.442  0.00  0.00    +0.000 A 
ATOM      2  C   UNL     1       1.173   7.244  21.023  0.00  0.00    +0.000 A 
ATOM      3  C   UNL     1       1.751   6.105  20.462  0.00  0.00    +0.000 A 
ATOM      4  C   UNL     1       2.569   6.215  19.318  0.00  0.00    +0.000 A 
ATOM      5  C   UNL     1       3.330   5.281  18.532  0.00  0.00    +0.000 A 
ATOM      6  C   UNL     1       3.974   6.006  17.520  0.00  0.00    +0.000 A 
ATOM      7  N   UNL     1       3.561   7.319  17.664  0.00  0.00    +0.000 N 
ATOM      8  C   UNL     1       2.738   7.474  18.752  0.00  0.00    +0.000 A 
ATOM      9  C   UNL     1       2.138   8.625  19.277  0.00  0.00    +0.000 A 
ATOM     10  H   UNL     1       3.873   8.082  17.083  0.00  0.00    +0.000 HD
ENDROOT
BRANCH   1  15
ATOM     11  C   UNL     1      -2.342  12.288  22.617  0.00  0.00    +0.000 C 
ATOM     12  N   UNL     1      -1.643  11.159  22.004  0.00  0.00    +0.000 NA
ATOM     13  C   UNL     1      -0.926  11.599  20.800  0.00  0.00    +0.000 C 
ATOM     14  C   UNL     1      -0.236  10.423  20.113  0.00  0.00    +0.000 C 
ATOM     15  C   UNL     1       0.700   9.702  21.087  0.00  0.00    +0.000 C 
ATOM     16  C   UNL     1      -0.038   9.317  22.374  0.00  0.00    +0.000 C 
ATOM     17  C   UNL     1      -0.738  10.533  22.977  0.00  0.00    +0.000 C 
ENDBRANCH   1  15
BRANCH   6  18
ATOM     18  C   UNL     1       4.951   5.625  16.483  0.00  0.00    +0.000 A 
ATOM     19  C   UNL     1       6.259   6.139  16.482  0.00  0.00    +0.000 A 
ATOM     20  C   UNL     1       7.168   5.771  15.488  0.00  0.00    +0.000 A 
ATOM     21  C   UNL     1       6.777   4.894  14.481  0.00  0.00    +0.000 A 
ATOM     22  F   UNL     1       7.648   4.545  13.526  0.00  0.00    +0.000 F 
ATOM     23  C   UNL     1       5.493   4.375  14.456  0.00  0.00    +0.000 A 
ATOM     24  C   UNL     1       4.597   4.720  15.468  0.00  0.00    +0.000 A 
ENDBRANCH   6  18
BRANCH   5  25
ATOM     25  C   UNL     1       3.462   3.839  18.758  0.00  0.00    +0.000 A 
ATOM     26  C   UNL     1       4.328   3.348  19.715  0.00  0.00    +0.000 A 
ATOM     27  C   UNL     1       4.399   1.983  19.832  0.00  0.00    +0.000 A 
ATOM     28  N   UNL     1       3.720   1.133  19.035  0.00  0.00    +0.000 NA
ATOM     29  C   UNL     1       2.924   1.710  18.129  0.00  0.00    +0.000 A 
ATOM     30  N   UNL     1       2.728   3.030  17.973  0.00  0.00    +0.000 NA
ENDBRANCH   5  25
TORSDOF 3
ENDMDL
MODEL 4
REMARK VINA RESULT:      -8.6      1.002      1.445
REMARK  Name = 
REMARK  4 active torsions:
REMARK  status: ('A' for Active; 'I' for Inactive)
REMARK    1  A    between atoms: C_1  and  N_2
REMARK    2  A    between atoms: C_5  and  C_6
REMARK    3  A    between atoms: C_10  and  C_11
REMARK    4  A    between atoms: C_17  and  C_18
REMARK                            x       y       z     vdW  Elec       q    Type
REMARK                         _______ _______ _______ _____ _____    ______ ____
ROOT
ATOM      1  C   UNL     1       0.412  10.087  20.871  0.00  0.00    +0.000 A 
ATOM      2  C   UNL     1       0.015   9.011  21.663  0.00  0.00    +0.000 A 
ATOM      3  C   UNL     1       0.426   7.712  21.363  0.00  0.00    +0.000 A 
ATOM      4  C   UNL     1       1.288   7.476  20.272  0.00  0.00    +0.000 A 
ATOM      5  C   UNL     1       1.919   6.305  19.724  0.00  0.00    +0.000 A 
ATOM      6  C   UNL     1       2.702   6.716  18.637  0.00  0.00    +0.000 A 
ATOM      7  N   UNL     1       2.494   8.079  18.506  0.00  0.00    +0.000 N 
ATOM      8  C   UNL     1       1.670   8.562  19.492  0.00  0.00    +0.000 A 
ATOM      9  C   UNL     1       1.239   9.869  19.753  0.00  0.00    +0.000 A 
ATOM     10  H   UNL     1       2.940   8.659  17.812  0.00  0.00    +0.000 HD
ENDROOT
BRANCH   1  15
ATOM     11  C   UNL     1      -2.709  14.675  22.279  0.00  0.00    +0.000 C 
ATOM     12  N   UNL     1      -2.176  13.361  21.923  0.00  0.00    +0.000 NA
ATOM     13  C   UNL     1      -1.545  13.411  20.598  0.00  0.00    +0.000 C 
ATOM     14  C   UNL     1      -1.032  12.035  20.183  0.00  0.00    +0.000 C 
ATOM     15  C   UNL     1      -0.071  11.476  21.236  0.00  0.00    +0.000 C 
ATOM     16  C   UNL     1      -0.710  11.501  22.628  0.00  0.00    +0.000 C 
ATOM     17  C   UNL     1      -1.238  12.897  22.954  0.00  0.00    +0.000 C 
ENDBRANCH   1  15
BRANCH   6  18
ATOM     18  C   UNL     1       3.641   6.002  17.753  0.00  0.00    +0.000 A 
ATOM     19  C   UNL     1       3.523   4.621  17.518  0.00  0.00    +0.000 A 
ATOM     20  C   UNL     1       4.425   3.960  16.682  0.00  0.00    +0.000 A 
ATOM     21  C   UNL     1       5.459   4.670  16.080  0.00  0.00    +0.000 A 
ATOM     22  F   UNL     1       6.327   4.035  15.282  0.00  0.00    +0.000 F 
ATOM     23  C   UNL     1       5.602   6.030  16.297  0.00  0.00    +0.000 A 
ATOM     24  C   UNL     1       4.680   6.693  17.108  0.00  0.00    +0.000 A 
ENDBRANCH   6  18
BRANCH   5  25
ATOM     25  C   UNL     1       1.817   4.932  20.225  0.00  0.00    +0.000 A 
ATOM     26  C   UNL     1       2.552   4.519  21.318  0.00  0.00    +0.000 A 
ATOM     27  C   UNL     1       2.407   3.207  21.693  0.00  0.00    +0.000 A 
ATOM     28  N   UNL     1       1.643   2.323  21.020  0.00  0.00    +0.000 NA
ATOM     29  C   UNL     1       0.988   2.819  19.965  0.00  0.00    +0.000 A 
ATOM     30  N   UNL     1       1.005   4.097  19.551  0.00  0.00    +0.000 NA
ENDBRANCH   5  25
TORSDOF 3
ENDMDL
MODEL 5
REMARK VINA RESULT:      -8.6      1.422      1.974
REMARK  Name = 
REMARK  4 active torsions:
REMARK  status: ('A' for Active; 'I' for Inactive)
REMARK    1  A    between atoms: C_1  and  N_2
REMARK    2  A    between atoms: C_5  and  C_6
REMARK    3  A    between atoms: C_10  and  C_11
REMARK    4  A    between atoms: C_17  and  C_18
REMARK                            x       y       z     vdW  Elec       q    Type
REMARK                         _______ _______ _______ _____ _____    ______ ____
ROOT
ATOM      1  C   UNL     1       0.704   8.922  20.510  0.00  0.00    +0.000 A 
ATOM      2  C   UNL     1       0.534   7.699  21.159  0.00  0.00    +0.000 A 
ATOM      3  C   UNL     1       1.214   6.561  20.726  0.00  0.00    +0.000 A 
ATOM      4  C   UNL     1       2.120   6.642  19.648  0.00  0.00    +0.000 A 
ATOM      5  C   UNL     1       2.991   5.703  18.993  0.00  0.00    +0.000 A 
ATOM      6  C   UNL     1       3.682   6.396  17.990  0.00  0.00    +0.000 A 
ATOM      7  N   UNL     1       3.192   7.691  18.008  0.00  0.00    +0.000 N 
ATOM      8  C   UNL     1       2.273   7.869  19.012  0.00  0.00    +0.000 A 
ATOM      9  C   UNL     1       1.573   9.017  19.407  0.00  0.00    +0.000 A 
ATOM     10  H   UNL     1       3.514   8.431  17.403  0.00  0.00    +0.000 HD
ENDROOT
BRANCH   1  15
ATOM     11  C   UNL     1      -1.062  13.592  23.311  0.00  0.00    +0.000 C 
ATOM     12  N   UNL     1      -0.373  12.418  22.777  0.00  0.00    +0.000 NA
ATOM     13  C   UNL     1      -1.186  11.213  22.986  0.00  0.00    +0.000 C 
ATOM     14  C   UNL     1      -0.459   9.968  22.486  0.00  0.00    +0.000 C 
ATOM     15  C   UNL     1      -0.065  10.126  21.015  0.00  0.00    +0.000 C 
ATOM     16  C   UNL     1       0.715  11.426  20.793  0.00  0.00    +0.000 C 
ATOM     17  C   UNL     1      -0.053  12.618  21.358  0.00  0.00    +0.000 C 
ENDBRANCH   1  15
BRANCH   6  18
ATOM     18  C   UNL     1       4.761   6.005  17.065  0.00  0.00    +0.000 A 
ATOM     19  C   UNL     1       6.019   6.630  17.096  0.00  0.00    +0.000 A 
ATOM     20  C   UNL     1       7.027   6.250  16.208  0.00  0.00    +0.000 A 
ATOM     21  C   UNL     1       6.785   5.247  15.274  0.00  0.00    +0.000 A 
ATOM     22  F   UNL     1       7.751   4.885  14.420  0.00  0.00    +0.000 F 
ATOM     23  C   UNL     1       5.554   4.616  15.218  0.00  0.00    +0.000 A 
ATOM     24  C   UNL     1       4.560   4.977  16.128  0.00  0.00    +0.000 A 
ENDBRANCH   6  18
BRANCH   5  25
ATOM     25  C   UNL     1       3.176   4.289  19.328  0.00  0.00    +0.000 A 
ATOM     26  C   UNL     1       4.409   3.808  19.720  0.00  0.00    +0.000 A 
ATOM     27  C   UNL     1       4.485   2.464  19.986  0.00  0.00    +0.000 A 
ATOM     28  N   UNL     1       3.449   1.616  19.829  0.00  0.00    +0.000 NA
ATOM     29  C   UNL     1       2.304   2.179  19.427  0.00  0.00    +0.000 A 
ATOM     30  N   UNL     1       2.101   3.489  19.203  0.00  0.00    +0.000 NA
ENDBRANCH   5  25
TORSDOF 3
ENDMDL
MODEL 6
REMARK VINA RESULT:      -8.5      1.692      2.380
REMARK  Name = 
REMARK  4 active torsions:
REMARK  status: ('A' for Active; 'I' for Inactive)
REMARK    1  A    between atoms: C_1  and  N_2
REMARK    2  A    between atoms: C_5  and  C_6
REMARK    3  A    between atoms: C_10  and  C_11
REMARK    4  A    between atoms: C_17  and  C_18
REMARK                            x       y       z     vdW  Elec       q    Type
REMARK                         _______ _______ _______ _____ _____    ______ ____
ROOT
ATOM      1  C   UNL     1       1.008   8.089  20.278  0.00  0.00    +0.000 A 
ATOM      2  C   UNL     1       0.987   6.852  20.920  0.00  0.00    +0.000 A 
ATOM      3  C   UNL     1       1.730   5.779  20.429  0.00  0.00    +0.000 A 
ATOM      4  C   UNL     1       2.550   5.945  19.293  0.00  0.00    +0.000 A 
ATOM      5  C   UNL     1       3.452   5.089  18.569  0.00  0.00    +0.000 A 
ATOM      6  C   UNL     1       4.011   5.846  17.531  0.00  0.00    +0.000 A 
ATOM      7  N   UNL     1       3.416   7.093  17.599  0.00  0.00    +0.000 N 
ATOM      8  C   UNL     1       2.555   7.185  18.665  0.00  0.00    +0.000 A 
ATOM      9  C   UNL     1       1.788   8.266  19.120  0.00  0.00    +0.000 A 
ATOM     10  H   UNL     1       3.632   7.862  16.983  0.00  0.00    +0.000 HD
ENDROOT
BRANCH   1  15
ATOM     11  C   UNL     1      -0.843  12.837  22.887  0.00  0.00    +0.000 C 
ATOM     12  N   UNL     1      -0.099  11.717  22.311  0.00  0.00    +0.000 NA
ATOM     13  C   UNL     1      -0.533  10.453  22.922  0.00  0.00    +0.000 C 
ATOM     14  C   UNL     1       0.272   9.277  22.375  0.00  0.00    +0.000 C 
ATOM     15  C   UNL     1       0.175   9.219  20.848  0.00  0.00    +0.000 C 
ATOM     16  C   UNL     1       0.552  10.567  20.224  0.00  0.00    +0.000 C 
ATOM     17  C   UNL     1      -0.260  11.697  20.851  0.00  0.00    +0.000 C 
ENDBRANCH   1  15
BRANCH   6  18
ATOM     18  C   UNL     1       5.055   5.554  16.531  0.00  0.00    +0.000 A 
ATOM     19  C   UNL     1       4.791   4.755  15.405  0.00  0.00    +0.000 A 
ATOM     20  C   UNL     1       5.793   4.485  14.472  0.00  0.00    +0.000 A 
ATOM     21  C   UNL     1       7.071   5.003  14.658  0.00  0.00    +0.000 A 
ATOM     22  F   UNL     1       8.033   4.740  13.764  0.00  0.00    +0.000 F 
ATOM     23  C   UNL     1       7.361   5.791  15.760  0.00  0.00    +0.000 A 
ATOM     24  C   UNL     1       6.348   6.084  16.674  0.00  0.00    +0.000 A 
ENDBRANCH   6  18
BRANCH   5  25
ATOM     25  C   UNL     1       3.778   3.693  18.873  0.00  0.00    +0.000 A 
ATOM     26  C   UNL     1       3.275   2.663  18.103  0.00  0.00    +0.000 A 
ATOM     27  C   UNL     1       3.617   1.390  18.485  0.00  0.00    +0.000 A 
ATOM     28  N   UNL     1       4.354   1.117  19.580  0.00  0.00    +0.000 NA
ATOM     29  C   UNL     1       4.776   2.183  20.268  0.00  0.00    +0.000 A 
ATOM     30  N   UNL     1       4.557   3.470  19.947  0.00  0.00    +0.000 NA
ENDBRANCH   5  25
TORSDOF 3
ENDMDL
MODEL 7
REMARK VINA RESULT:      -8.5      1.189      1.310
REMARK  Name = 
REMARK  4 active torsions:
REMARK  status: ('A' for Active; 'I' for Inactive)
REMARK    1  A    between atoms: C_1  and  N_2
REMARK    2  A    between atoms: C_5  and  C_6
REMARK    3  A    between atoms: C_10  and  C_11
REMARK    4  A    between atoms: C_17  and  C_18
REMARK                            x       y       z     vdW  Elec       q    Type
REMARK                         _______ _______ _______ _____ _____    ______ ____
ROOT
ATOM      1  C   UNL     1       0.779   9.405  20.435  0.00  0.00    +0.000 A 
ATOM      2  C   UNL     1       0.648   8.305  21.284  0.00  0.00    +0.000 A 
ATOM      3  C   UNL     1       1.291   7.102  20.997  0.00  0.00    +0.000 A 
ATOM      4  C   UNL     1       2.121   6.994  19.862  0.00  0.00    +0.000 A 
ATOM      5  C   UNL     1       2.942   5.947  19.312  0.00  0.00    +0.000 A 
ATOM      6  C   UNL     1       3.566   6.459  18.166  0.00  0.00    +0.000 A 
ATOM      7  N   UNL     1       3.084   7.747  18.007  0.00  0.00    +0.000 N 
ATOM      8  C   UNL     1       2.236   8.099  19.027  0.00  0.00    +0.000 A 
ATOM      9  C   UNL     1       1.570   9.306  19.276  0.00  0.00    +0.000 A 
ATOM     10  H   UNL     1       3.368   8.374  17.269  0.00  0.00    +0.000 HD
ENDROOT
BRANCH   1  15
ATOM     11  C   UNL     1      -0.914  14.354  22.762  0.00  0.00    +0.000 C 
ATOM     12  N   UNL     1      -0.261  13.106  22.370  0.00  0.00    +0.000 NA
ATOM     13  C   UNL     1      -1.173  11.972  22.569  0.00  0.00    +0.000 C 
ATOM     14  C   UNL     1      -0.490  10.652  22.220  0.00  0.00    +0.000 C 
ATOM     15  C   UNL     1       0.051  10.686  20.788  0.00  0.00    +0.000 C 
ATOM     16  C   UNL     1       0.938  11.916  20.567  0.00  0.00    +0.000 C 
ATOM     17  C   UNL     1       0.205  13.190  20.980  0.00  0.00    +0.000 C 
ENDBRANCH   1  15
BRANCH   6  18
ATOM     18  C   UNL     1       4.578   5.906  17.247  0.00  0.00    +0.000 A 
ATOM     19  C   UNL     1       4.281   4.836  16.385  0.00  0.00    +0.000 A 
ATOM     20  C   UNL     1       5.254   4.322  15.526  0.00  0.00    +0.000 A 
ATOM     21  C   UNL     1       6.535   4.865  15.526  0.00  0.00    +0.000 A 
ATOM     22  F   UNL     1       7.469   4.368  14.704  0.00  0.00    +0.000 F 
ATOM     23  C   UNL     1       6.856   5.917  16.367  0.00  0.00    +0.000 A 
ATOM     24  C   UNL     1       5.873   6.449  17.201  0.00  0.00    +0.000 A 
ENDBRANCH   6  18
BRANCH   5  25
ATOM     25  C   UNL     1       3.142   4.603  19.859  0.00  0.00    +0.000 A 
ATOM     26  C   UNL     1       2.227   4.049  20.733  0.00  0.00    +0.000 A 
ATOM     27  C   UNL     1       2.518   2.797  21.210  0.00  0.00    +0.000 A 
ATOM     28  N   UNL     1       3.653   2.134  20.911  0.00  0.00    +0.000 NA
ATOM     29  C   UNL     1       4.481   2.765  20.072  0.00  0.00    +0.000 A 
ATOM     30  N   UNL     1       4.265   3.959  19.494  0.00  0.00    +0.000 NA
ENDBRANCH   5  25
TORSDOF 3
ENDMDL
MODEL 8
REMARK VINA RESULT:      -8.5      1.501      1.817
REMARK  Name = 
REMARK  4 active torsions:
REMARK  status: ('A' for Active; 'I' for Inactive)
REMARK    1  A    between atoms: C_1  and  N_2
REMARK    2  A    between atoms: C_5  and  C_6
REMARK    3  A    between atoms: C_10  and  C_11
REMARK    4  A    between atoms: C_17  and  C_18
REMARK                            x       y       z     vdW  Elec       q    Type
REMARK                         _______ _______ _______ _____ _____    ______ ____
ROOT
ATOM      1  C   UNL     1       0.744   9.508  20.266  0.00  0.00    +0.000 A 
ATOM      2  C   UNL     1       0.600   8.451  21.166  0.00  0.00    +0.000 A 
ATOM      3  C   UNL     1       1.241   7.233  20.944  0.00  0.00    +0.000 A 
ATOM      4  C   UNL     1       2.081   7.067  19.823  0.00  0.00    +0.000 A 
ATOM      5  C   UNL     1       2.902   5.992  19.331  0.00  0.00    +0.000 A 
ATOM      6  C   UNL     1       3.538   6.445  18.168  0.00  0.00    +0.000 A 
ATOM      7  N   UNL     1       3.063   7.725  17.942  0.00  0.00    +0.000 N 
ATOM      8  C   UNL     1       2.208   8.130  18.937  0.00  0.00    +0.000 A 
ATOM      9  C   UNL     1       1.545   9.350  19.120  0.00  0.00    +0.000 A 
ATOM     10  H   UNL     1       3.356   8.315  17.178  0.00  0.00    +0.000 HD
ENDROOT
BRANCH   1  15
ATOM     11  C   UNL     1      -3.107  13.520  21.624  0.00  0.00    +0.000 C 
ATOM     12  N   UNL     1      -2.348  12.305  21.335  0.00  0.00    +0.000 NA
ATOM     13  C   UNL     1      -1.907  12.304  19.934  0.00  0.00    +0.000 C 
ATOM     14  C   UNL     1      -1.161  11.016  19.595  0.00  0.00    +0.000 C 
ATOM     15  C   UNL     1       0.018  10.808  20.550  0.00  0.00    +0.000 C 
ATOM     16  C   UNL     1      -0.439  10.889  22.010  0.00  0.00    +0.000 C 
ATOM     17  C   UNL     1      -1.215  12.181  22.260  0.00  0.00    +0.000 C 
ENDBRANCH   1  15
BRANCH   6  18
ATOM     18  C   UNL     1       4.556   5.844  17.286  0.00  0.00    +0.000 A 
ATOM     19  C   UNL     1       4.255   4.752  16.453  0.00  0.00    +0.000 A 
ATOM     20  C   UNL     1       5.233   4.193  15.629  0.00  0.00    +0.000 A 
ATOM     21  C   UNL     1       6.524   4.712  15.636  0.00  0.00    +0.000 A 
ATOM     22  F   UNL     1       7.463   4.173  14.848  0.00  0.00    +0.000 F 
ATOM     23  C   UNL     1       6.850   5.785  16.448  0.00  0.00    +0.000 A 
ATOM     24  C   UNL     1       5.861   6.362  17.247  0.00  0.00    +0.000 A 
ENDBRANCH   6  18
BRANCH   5  25
ATOM     25  C   UNL     1       3.091   4.675  19.944  0.00  0.00    +0.000 A 
ATOM     26  C   UNL     1       2.194   4.190  20.875  0.00  0.00    +0.000 A 
ATOM     27  C   UNL     1       2.474   2.958  21.411  0.00  0.00    +0.000 A 
ATOM     28  N   UNL     1       3.585   2.255  21.114  0.00  0.00    +0.000 NA
ATOM     29  C   UNL     1       4.398   2.821  20.216  0.00  0.00    +0.000 A 
ATOM     30  N   UNL     1       4.188   3.986  19.581  0.00  0.00    +0.000 NA
ENDBRANCH   5  25
TORSDOF 3
ENDMDL
MODEL 9
REMARK VINA RESULT:      -8.4      1.405      1.957
REMARK  Name = 
REMARK  4 active torsions:
REMARK  status: ('A' for Active; 'I' for Inactive)
REMARK    1  A    between atoms: C_1  and  N_2
REMARK    2  A    between atoms: C_5  and  C_6
REMARK    3  A    between atoms: C_10  and  C_11
REMARK    4  A    between atoms: C_17  and  C_18
REMARK                            x       y       z     vdW  Elec       q    Type
REMARK                         _______ _______ _______ _____ _____    ______ ____
ROOT
ATOM      1  C   UNL     1       0.636   9.721  20.137  0.00  0.00    +0.000 A 
ATOM      2  C   UNL     1       0.487   8.706  21.082  0.00  0.00    +0.000 A 
ATOM      3  C   UNL     1       1.141   7.484  20.926  0.00  0.00    +0.000 A 
ATOM      4  C   UNL     1       1.999   7.274  19.826  0.00  0.00    +0.000 A 
ATOM      5  C   UNL     1       2.835   6.185  19.396  0.00  0.00    +0.000 A 
ATOM      6  C   UNL     1       3.485   6.589  18.222  0.00  0.00    +0.000 A 
ATOM      7  N   UNL     1       3.004   7.854  17.931  0.00  0.00    +0.000 N 
ATOM      8  C   UNL     1       2.131   8.297  18.894  0.00  0.00    +0.000 A 
ATOM      9  C   UNL     1       1.455   9.518  19.011  0.00  0.00    +0.000 A 
ATOM     10  H   UNL     1       3.304   8.410  17.145  0.00  0.00    +0.000 HD
ENDROOT
BRANCH   1  15
ATOM     11  C   UNL     1      -3.236  13.760  21.348  0.00  0.00    +0.000 C 
ATOM     12  N   UNL     1      -2.465  12.539  21.121  0.00  0.00    +0.000 NA
ATOM     13  C   UNL     1      -2.087  12.434  19.706  0.00  0.00    +0.000 C 
ATOM     14  C   UNL     1      -1.329  11.136  19.437  0.00  0.00    +0.000 C 
ATOM     15  C   UNL     1      -0.104  11.026  20.350  0.00  0.00    +0.000 C 
ATOM     16  C   UNL     1      -0.498  11.217  21.818  0.00  0.00    +0.000 C 
ATOM     17  C   UNL     1      -1.289  12.510  22.001  0.00  0.00    +0.000 C 
ENDBRANCH   1  15
BRANCH   6  18
ATOM     18  C   UNL     1       4.521   5.957  17.384  0.00  0.00    +0.000 A 
ATOM     19  C   UNL     1       5.846   6.427  17.374  0.00  0.00    +0.000 A 
ATOM     20  C   UNL     1       6.811   5.819  16.569  0.00  0.00    +0.000 A 
ATOM     21  C   UNL     1       6.460   4.743  15.759  0.00  0.00    +0.000 A 
ATOM     22  F   UNL     1       7.386   4.163  14.984  0.00  0.00    +0.000 F 
ATOM     23  C   UNL     1       5.162   4.262  15.746  0.00  0.00    +0.000 A 
ATOM     24  C   UNL     1       4.207   4.852  16.575  0.00  0.00    +0.000 A 
ENDBRANCH   6  18
BRANCH   5  25
ATOM     25  C   UNL     1       3.026   4.899  20.072  0.00  0.00    +0.000 A 
ATOM     26  C   UNL     1       3.990   4.008  19.643  0.00  0.00    +0.000 A 
ATOM     27  C   UNL     1       4.072   2.820  20.325  0.00  0.00    +0.000 A 
ATOM     28  N   UNL     1       3.237   2.481  21.327  0.00  0.00    +0.000 NA
ATOM     29  C   UNL     1       2.328   3.405  21.653  0.00  0.00    +0.000 A 
ATOM     30  N   UNL     1       2.202   4.623  21.099  0.00  0.00    +0.000 NA
ENDBRANCH   5  25
TORSDOF 3
ENDMDL
