MODEL 1
REMARK VINA RESULT:      -7.2      0.000      0.000
REMARK  Name = 
REMARK  8 active torsions:
REMARK  status: ('A' for Active; 'I' for Inactive)
REMARK    1  A    between atoms: C_5  and  C_6
REMARK    2  A    between atoms: C_6  and  C_7
REMARK    3  A    between atoms: C_6  and  C_17
REMARK    4  A    between atoms: C_7  and  C_8
REMARK    5  A    between atoms: C_8  and  C_9
REMARK    6  A    between atoms: C_9  and  O_10
REMARK    7  A    between atoms: O_10  and  C_11
REMARK    8  A    between atoms: C_17  and  N_18
REMARK                            x       y       z     vdW  Elec       q    Type
REMARK                         _______ _______ _______ _____ _____    ______ ____
ROOT
ATOM      1  C   UNL     1       4.541   4.458  18.271  0.00  0.00    +0.000 C 
ENDROOT
BRANCH   1   6
ATOM      2 CL   UNL     1       7.516   5.054  13.041  0.00  0.00    +0.000 Cl
ATOM      3  C   UNL     1       6.765   4.721  14.552  0.00  0.00    +0.000 A 
ATOM      4  C   UNL     1       5.525   4.099  14.584  0.00  0.00    +0.000 A 
ATOM      5  C   UNL     1       4.854   3.942  15.802  0.00  0.00    +0.000 A 
ATOM      6  C   UNL     1       5.407   4.400  17.006  0.00  0.00    +0.000 A 
ATOM      7  C   UNL     1       6.746   4.840  16.961  0.00  0.00    +0.000 A 
ATOM      8 CL   UNL     1       7.713   5.068  18.384  0.00  0.00    +0.000 Cl
ATOM      9  C   UNL     1       7.402   5.057  15.738  0.00  0.00    +0.000 A 
ENDBRANCH   1   6
BRANCH   1  10
ATOM     10  C   UNL     1       4.104   5.892  18.715  0.00  0.00    +0.000 C 
BRANCH  10  11
ATOM     11  C   UNL     1       2.923   6.640  18.080  0.00  0.00    +0.000 C 
BRANCH  11  12
ATOM     12  C   UNL     1       2.963   8.158  17.846  0.00  0.00    +0.000 C 
BRANCH  12  13
ATOM     13  O   UNL     1       1.584   8.518  17.694  0.00  0.00    +0.000 OA
BRANCH  13  14
ATOM     14  C   UNL     1       0.930   9.245  18.640  0.00  0.00    +0.000 A 
ATOM     15  C   UNL     1      -0.074  10.069  18.119  0.00  0.00    +0.000 A 
ATOM     16  C   UNL     1      -0.874  10.848  18.951  0.00  0.00    +0.000 A 
ATOM     17  C   UNL     1      -0.680  10.805  20.327  0.00  0.00    +0.000 A 
ATOM     18  C   UNL     1       0.313   9.978  20.857  0.00  0.00    +0.000 A 
ATOM     19  C   UNL     1       1.123   9.199  20.016  0.00  0.00    +0.000 A 
ENDBRANCH  13  14
ENDBRANCH  12  13
ENDBRANCH  11  12
ENDBRANCH  10  11
ENDBRANCH   1  10
BRANCH   1  20
ATOM     20  C   UNL     1       3.325   3.540  18.277  0.00  0.00    +0.000 C 
BRANCH  20  21
ATOM     21  N   UNL     1       2.712   3.343  19.576  0.00  0.00    +0.000 N 
ATOM     22  C   UNL     1       1.397   3.502  19.880  0.00  0.00    +0.000 A 
ATOM     23  C   UNL     1       1.275   3.043  21.172  0.00  0.00    +0.000 A 
ATOM     24  N   UNL     1       2.491   2.624  21.656  0.00  0.00    +0.000 NA
ATOM     25  C   UNL     1       3.338   2.823  20.677  0.00  0.00    +0.000 A 
ENDBRANCH  20  21
ENDBRANCH   1  20
TORSDOF 8
ENDMDL
MODEL 2
REMARK VINA RESULT:      -7.2      2.765      5.163
REMARK  Name = 
REMARK  8 active torsions:
REMARK  status: ('A' for Active; 'I' for Inactive)
REMARK    1  A    between atoms: C_5  and  C_6
REMARK    2  A    between atoms: C_6  and  C_7
REMARK    3  A    between atoms: C_6  and  C_17
REMARK    4  A    between atoms: C_7  and  C_8
REMARK    5  A    between atoms: C_8  and  C_9
REMARK    6  A    between atoms: C_9  and  O_10
REMARK    7  A    between atoms: O_10  and  C_11
REMARK    8  A    between atoms: C_17  and  N_18
REMARK                            x       y       z     vdW  Elec       q    Type
REMARK                         _______ _______ _______ _____ _____    ______ ____
ROOT
ATOM      1  C   UNL     1       2.896   6.444  17.637  0.00  0.00    +0.000 C 
ENDROOT
BRANCH   1   6
ATOM      2 CL   UNL     1       1.256   2.471  21.889  0.00  0.00    +0.000 Cl
ATOM      3  C   UNL     1       1.903   3.548  20.715  0.00  0.00    +0.000 A 
ATOM      4  C   UNL     1       2.137   4.875  21.050  0.00  0.00    +0.000 A 
ATOM      5  C   UNL     1       2.542   5.782  20.065  0.00  0.00    +0.000 A 
ATOM      6  C   UNL     1       2.718   5.385  18.732  0.00  0.00    +0.000 A 
ATOM      7  C   UNL     1       2.667   4.000  18.472  0.00  0.00    +0.000 A 
ATOM      8 CL   UNL     1       3.241   3.295  16.993  0.00  0.00    +0.000 Cl
ATOM      9  C   UNL     1       2.205   3.093  19.439  0.00  0.00    +0.000 A 
ENDBRANCH   1   6
BRANCH   1  10
ATOM     10  C   UNL     1       1.826   7.585  17.632  0.00  0.00    +0.000 C 
BRANCH  10  11
ATOM     11  C   UNL     1       2.173   9.058  17.890  0.00  0.00    +0.000 C 
BRANCH  11  12
ATOM     12  C   UNL     1       1.272   9.960  18.747  0.00  0.00    +0.000 C 
BRANCH  12  13
ATOM     13  O   UNL     1       1.227   9.294  20.017  0.00  0.00    +0.000 OA
BRANCH  13  14
ATOM     14  C   UNL     1       0.522   9.803  21.062  0.00  0.00    +0.000 A 
ATOM     15  C   UNL     1       0.160  11.145  20.894  0.00  0.00    +0.000 A 
ATOM     16  C   UNL     1      -0.605  11.813  21.847  0.00  0.00    +0.000 A 
ATOM     17  C   UNL     1      -1.026  11.136  22.986  0.00  0.00    +0.000 A 
ATOM     18  C   UNL     1      -0.679   9.794  23.158  0.00  0.00    +0.000 A 
ATOM     19  C   UNL     1       0.098   9.125  22.199  0.00  0.00    +0.000 A 
ENDBRANCH  13  14
ENDBRANCH  12  13
ENDBRANCH  11  12
ENDBRANCH  10  11
ENDBRANCH   1  10
BRANCH   1  20
ATOM     20  C   UNL     1       4.285   7.062  17.539  0.00  0.00    +0.000 C 
BRANCH  20  21
ATOM     21  N   UNL     1       5.303   6.197  16.977  0.00  0.00    +0.000 N 
ATOM     22  C   UNL     1       6.206   5.456  17.674  0.00  0.00    +0.000 A 
ATOM     23  C   UNL     1       6.836   4.684  16.724  0.00  0.00    +0.000 A 
ATOM     24  N   UNL     1       6.342   4.954  15.471  0.00  0.00    +0.000 NA
ATOM     25  C   UNL     1       5.426   5.873  15.653  0.00  0.00    +0.000 A 
ENDBRANCH  20  21
ENDBRANCH   1  20
TORSDOF 8
ENDMDL
MODEL 3
REMARK VINA RESULT:      -7.2      0.756      1.006
REMARK  Name = 
REMARK  8 active torsions:
REMARK  status: ('A' for Active; 'I' for Inactive)
REMARK    1  A    between atoms: C_5  and  C_6
REMARK    2  A    between atoms: C_6  and  C_7
REMARK    3  A    between atoms: C_6  and  C_17
REMARK    4  A    between atoms: C_7  and  C_8
REMARK    5  A    between atoms: C_8  and  C_9
REMARK    6  A    between atoms: C_9  and  O_10
REMARK    7  A    between atoms: O_10  and  C_11
REMARK    8  A    between atoms: C_17  and  N_18
REMARK                            x       y       z     vdW  Elec       q    Type
REMARK                         _______ _______ _______ _____ _____    ______ ____
ROOT
ATOM      1  C   UNL     1       3.889   4.605  18.117  0.00  0.00    +0.000 C 
ENDROOT
BRANCH   1   6
ATOM      2 CL   UNL     1       7.790   5.305  13.551  0.00  0.00    +0.000 Cl
ATOM      3  C   UNL     1       6.783   4.953  14.899  0.00  0.00    +0.000 A 
ATOM      4  C   UNL     1       5.617   4.222  14.717  0.00  0.00    +0.000 A 
ATOM      5  C   UNL     1       4.731   4.043  15.786  0.00  0.00    +0.000 A 
ATOM      6  C   UNL     1       4.992   4.587  17.051  0.00  0.00    +0.000 A 
ATOM      7  C   UNL     1       6.272   5.145  17.248  0.00  0.00    +0.000 A 
ATOM      8 CL   UNL     1       6.912   5.505  18.821  0.00  0.00    +0.000 Cl
ATOM      9  C   UNL     1       7.139   5.382  16.170  0.00  0.00    +0.000 A 
ENDBRANCH   1   6
BRANCH   1  10
ATOM     10  C   UNL     1       2.954   5.858  18.087  0.00  0.00    +0.000 C 
BRANCH  10  11
ATOM     11  C   UNL     1       3.447   7.261  17.706  0.00  0.00    +0.000 C 
BRANCH  11  12
ATOM     12  C   UNL     1       2.524   8.487  17.778  0.00  0.00    +0.000 C 
BRANCH  12  13
ATOM     13  O   UNL     1       1.958   8.414  19.093  0.00  0.00    +0.000 OA
BRANCH  13  14
ATOM     14  C   UNL     1       1.036   9.317  19.521  0.00  0.00    +0.000 A 
ATOM     15  C   UNL     1       0.411  10.016  18.483  0.00  0.00    +0.000 A 
ATOM     16  C   UNL     1      -0.592  10.948  18.738  0.00  0.00    +0.000 A 
ATOM     17  C   UNL     1      -0.989  11.186  20.049  0.00  0.00    +0.000 A 
ATOM     18  C   UNL     1      -0.378  10.487  21.092  0.00  0.00    +0.000 A 
ATOM     19  C   UNL     1       0.637   9.553  20.832  0.00  0.00    +0.000 A 
ENDBRANCH  13  14
ENDBRANCH  12  13
ENDBRANCH  11  12
ENDBRANCH  10  11
ENDBRANCH   1  10
BRANCH   1  20
ATOM     20  C   UNL     1       3.034   3.346  18.199  0.00  0.00    +0.000 C 
BRANCH  20  21
ATOM     21  N   UNL     1       2.531   3.032  19.522  0.00  0.00    +0.000 N 
ATOM     22  C   UNL     1       3.279   2.784  20.630  0.00  0.00    +0.000 A 
ATOM     23  C   UNL     1       2.367   2.708  21.660  0.00  0.00    +0.000 A 
ATOM     24  N   UNL     1       1.089   2.892  21.193  0.00  0.00    +0.000 NA
ATOM     25  C   UNL     1       1.217   3.078  19.902  0.00  0.00    +0.000 A 
ENDBRANCH  20  21
ENDBRANCH   1  20
TORSDOF 8
ENDMDL
MODEL 4
REMARK VINA RESULT:      -7.1      1.101      1.723
REMARK  Name = 
REMARK  8 active torsions:
REMARK  status: ('A' for Active; 'I' for Inactive)
REMARK    1  A    between atoms: C_5  and  C_6
REMARK    2  A    between atoms: C_6  and  C_7
REMARK    3  A    between atoms: C_6  and  C_17
REMARK    4  A    between atoms: C_7  and  C_8
REMARK    5  A    between atoms: C_8  and  C_9
REMARK    6  A    between atoms: C_9  and  O_10
REMARK    7  A    between atoms: O_10  and  C_11
REMARK    8  A    between atoms: C_17  and  N_18
REMARK                            x       y       z     vdW  Elec       q    Type
REMARK                         _______ _______ _______ _____ _____    ______ ____
ROOT
ATOM      1  C   UNL     1       4.592   4.741  18.647  0.00  0.00    +0.000 C 
ENDROOT
BRANCH   1   6
ATOM      2 CL   UNL     1       7.434   5.040  13.319  0.00  0.00    +0.000 Cl
ATOM      3  C   UNL     1       6.725   4.796  14.867  0.00  0.00    +0.000 A 
ATOM      4  C   UNL     1       5.501   4.150  14.971  0.00  0.00    +0.000 A 
ATOM      5  C   UNL     1       4.862   4.063  16.213  0.00  0.00    +0.000 A 
ATOM      6  C   UNL     1       5.430   4.615  17.369  0.00  0.00    +0.000 A 
ATOM      7  C   UNL     1       6.757   5.081  17.261  0.00  0.00    +0.000 A 
ATOM      8 CL   UNL     1       7.750   5.428  18.642  0.00  0.00    +0.000 Cl
ATOM      9  C   UNL     1       7.380   5.227  16.012  0.00  0.00    +0.000 A 
ENDBRANCH   1   6
BRANCH   1  10
ATOM     10  C   UNL     1       3.319   5.641  18.524  0.00  0.00    +0.000 C 
BRANCH  10  11
ATOM     11  C   UNL     1       3.352   7.062  17.944  0.00  0.00    +0.000 C 
BRANCH  11  12
ATOM     12  C   UNL     1       2.237   8.078  18.237  0.00  0.00    +0.000 C 
BRANCH  12  13
ATOM     13  O   UNL     1       2.077   8.012  19.660  0.00  0.00    +0.000 OA
BRANCH  13  14
ATOM     14  C   UNL     1       1.225   8.842  20.319  0.00  0.00    +0.000 A 
ATOM     15  C   UNL     1       1.017   8.486  21.656  0.00  0.00    +0.000 A 
ATOM     16  C   UNL     1       0.209   9.253  22.492  0.00  0.00    +0.000 A 
ATOM     17  C   UNL     1      -0.399  10.400  21.995  0.00  0.00    +0.000 A 
ATOM     18  C   UNL     1      -0.190  10.769  20.664  0.00  0.00    +0.000 A 
ATOM     19  C   UNL     1       0.620   9.991  19.822  0.00  0.00    +0.000 A 
ENDBRANCH  13  14
ENDBRANCH  12  13
ENDBRANCH  11  12
ENDBRANCH  10  11
ENDBRANCH   1  10
BRANCH   1  20
ATOM     20  C   UNL     1       4.210   3.425  19.315  0.00  0.00    +0.000 C 
BRANCH  20  21
ATOM     21  N   UNL     1       2.799   3.099  19.264  0.00  0.00    +0.000 N 
ATOM     22  C   UNL     1       1.878   3.350  20.231  0.00  0.00    +0.000 A 
ATOM     23  C   UNL     1       0.669   3.018  19.662  0.00  0.00    +0.000 A 
ATOM     24  N   UNL     1       0.845   2.561  18.378  0.00  0.00    +0.000 NA
ATOM     25  C   UNL     1       2.136   2.613  18.168  0.00  0.00    +0.000 A 
ENDBRANCH  20  21
ENDBRANCH   1  20
TORSDOF 8
ENDMDL
MODEL 5
REMARK VINA RESULT:      -7.1      1.020      1.258
REMARK  Name = 
REMARK  8 active torsions:
REMARK  status: ('A' for Active; 'I' for Inactive)
REMARK    1  A    between atoms: C_5  and  C_6
REMARK    2  A    between atoms: C_6  and  C_7
REMARK    3  A    between atoms: C_6  and  C_17
REMARK    4  A    between atoms: C_7  and  C_8
REMARK    5  A    between atoms: C_8  and  C_9
REMARK    6  A    between atoms: C_9  and  O_10
REMARK    7  A    between atoms: O_10  and  C_11
REMARK    8  A    between atoms: C_17  and  N_18
REMARK                            x       y       z     vdW  Elec       q    Type
REMARK                         _______ _______ _______ _____ _____    ______ ____
ROOT
ATOM      1  C   UNL     1       4.984   4.471  19.053  0.00  0.00    +0.000 C 
ENDROOT
BRANCH   1   6
ATOM      2 CL   UNL     1       7.280   5.095  13.495  0.00  0.00    +0.000 Cl
ATOM      3  C   UNL     1       6.772   4.798  15.110  0.00  0.00    +0.000 A 
ATOM      4  C   UNL     1       5.804   3.836  15.364  0.00  0.00    +0.000 A 
ATOM      5  C   UNL     1       5.297   3.680  16.658  0.00  0.00    +0.000 A 
ATOM      6  C   UNL     1       5.743   4.479  17.720  0.00  0.00    +0.000 A 
ATOM      7  C   UNL     1       6.862   5.300  17.468  0.00  0.00    +0.000 A 
ATOM      8 CL   UNL     1       7.788   6.048  18.732  0.00  0.00    +0.000 Cl
ATOM      9  C   UNL     1       7.336   5.506  16.163  0.00  0.00    +0.000 A 
ENDBRANCH   1   6
BRANCH   1  10
ATOM     10  C   UNL     1       3.895   5.583  19.206  0.00  0.00    +0.000 C 
BRANCH  10  11
ATOM     11  C   UNL     1       3.224   6.268  18.008  0.00  0.00    +0.000 C 
BRANCH  11  12
ATOM     12  C   UNL     1       3.249   7.794  17.834  0.00  0.00    +0.000 C 
BRANCH  12  13
ATOM     13  O   UNL     1       1.887   8.186  18.049  0.00  0.00    +0.000 OA
BRANCH  13  14
ATOM     14  C   UNL     1       1.480   8.723  19.231  0.00  0.00    +0.000 A 
ATOM     15  C   UNL     1       0.827   9.953  19.093  0.00  0.00    +0.000 A 
ATOM     16  C   UNL     1       0.303  10.621  20.197  0.00  0.00    +0.000 A 
ATOM     17  C   UNL     1       0.423  10.057  21.462  0.00  0.00    +0.000 A 
ATOM     18  C   UNL     1       1.066   8.825  21.608  0.00  0.00    +0.000 A 
ATOM     19  C   UNL     1       1.598   8.156  20.495  0.00  0.00    +0.000 A 
ENDBRANCH  13  14
ENDBRANCH  12  13
ENDBRANCH  11  12
ENDBRANCH  10  11
ENDBRANCH   1  10
BRANCH   1  20
ATOM     20  C   UNL     1       4.389   3.130  19.463  0.00  0.00    +0.000 C 
BRANCH  20  21
ATOM     21  N   UNL     1       2.944   3.050  19.384  0.00  0.00    +0.000 N 
ATOM     22  C   UNL     1       2.216   2.676  18.298  0.00  0.00    +0.000 A 
ATOM     23  C   UNL     1       0.920   2.594  18.756  0.00  0.00    +0.000 A 
ATOM     24  N   UNL     1       0.851   2.922  20.087  0.00  0.00    +0.000 NA
ATOM     25  C   UNL     1       2.083   3.199  20.437  0.00  0.00    +0.000 A 
ENDBRANCH  20  21
ENDBRANCH   1  20
TORSDOF 8
ENDMDL
MODEL 6
REMARK VINA RESULT:      -7.1      5.277      7.538
REMARK  Name = 
REMARK  8 active torsions:
REMARK  status: ('A' for Active; 'I' for Inactive)
REMARK    1  A    between atoms: C_5  and  C_6
REMARK    2  A    between atoms: C_6  and  C_7
REMARK    3  A    between atoms: C_6  and  C_17
REMARK    4  A    between atoms: C_7  and  C_8
REMARK    5  A    between atoms: C_8  and  C_9
REMARK    6  A    between atoms: C_9  and  O_10
REMARK    7  A    between atoms: O_10  and  C_11
REMARK    8  A    between atoms: C_17  and  N_18
REMARK                            x       y       z     vdW  Elec       q    Type
REMARK                         _______ _______ _______ _____ _____    ______ ____
ROOT
ATOM      1  C   UNL     1       6.496   5.785  17.235  0.00  0.00    +0.000 C 
ENDROOT
BRANCH   1   6
ATOM      2 CL   UNL     1       2.193   4.208  21.179  0.00  0.00    +0.000 Cl
ATOM      3  C   UNL     1       3.296   4.600  19.920  0.00  0.00    +0.000 A 
ATOM      4  C   UNL     1       4.277   3.689  19.553  0.00  0.00    +0.000 A 
ATOM      5  C   UNL     1       5.255   4.053  18.620  0.00  0.00    +0.000 A 
ATOM      6  C   UNL     1       5.272   5.328  18.038  0.00  0.00    +0.000 A 
ATOM      7  C   UNL     1       4.151   6.150  18.281  0.00  0.00    +0.000 A 
ATOM      8 CL   UNL     1       3.808   7.575  17.352  0.00  0.00    +0.000 Cl
ATOM      9  C   UNL     1       3.201   5.817  19.259  0.00  0.00    +0.000 A 
ENDBRANCH   1   6
BRANCH   1  10
ATOM     10  C   UNL     1       7.523   6.661  18.026  0.00  0.00    +0.000 C 
BRANCH  10  11
ATOM     11  C   UNL     1       7.788   8.137  17.700  0.00  0.00    +0.000 C 
BRANCH  11  12
ATOM     12  C   UNL     1       8.513   9.063  18.688  0.00  0.00    +0.000 C 
BRANCH  12  13
ATOM     13  O   UNL     1       9.008  10.126  17.863  0.00  0.00    +0.000 OA
BRANCH  13  14
ATOM     14  C   UNL     1       9.649  11.201  18.397  0.00  0.00    +0.000 A 
ATOM     15  C   UNL     1      10.096  10.994  19.707  0.00  0.00    +0.000 A 
ATOM     16  C   UNL     1      10.812  11.973  20.390  0.00  0.00    +0.000 A 
ATOM     17  C   UNL     1      11.097  13.179  19.761  0.00  0.00    +0.000 A 
ATOM     18  C   UNL     1      10.663  13.392  18.450  0.00  0.00    +0.000 A 
ATOM     19  C   UNL     1       9.936  12.406  17.766  0.00  0.00    +0.000 A 
ENDBRANCH  13  14
ENDBRANCH  12  13
ENDBRANCH  11  12
ENDBRANCH  10  11
ENDBRANCH   1  10
BRANCH   1  20
ATOM     20  C   UNL     1       7.246   4.683  16.495  0.00  0.00    +0.000 C 
BRANCH  20  21
ATOM     21  N   UNL     1       6.876   4.519  15.104  0.00  0.00    +0.000 N 
ATOM     22  C   UNL     1       7.524   5.043  14.030  0.00  0.00    +0.000 A 
ATOM     23  C   UNL     1       6.908   4.478  12.936  0.00  0.00    +0.000 A 
ATOM     24  N   UNL     1       5.895   3.637  13.328  0.00  0.00    +0.000 NA
ATOM     25  C   UNL     1       5.894   3.686  14.637  0.00  0.00    +0.000 A 
ENDBRANCH  20  21
ENDBRANCH   1  20
TORSDOF 8
ENDMDL
MODEL 7
REMARK VINA RESULT:      -7.1      5.104      7.471
REMARK  Name = 
REMARK  8 active torsions:
REMARK  status: ('A' for Active; 'I' for Inactive)
REMARK    1  A    between atoms: C_5  and  C_6
REMARK    2  A    between atoms: C_6  and  C_7
REMARK    3  A    between atoms: C_6  and  C_17
REMARK    4  A    between atoms: C_7  and  C_8
REMARK    5  A    between atoms: C_8  and  C_9
REMARK    6  A    between atoms: C_9  and  O_10
REMARK    7  A    between atoms: O_10  and  C_11
REMARK    8  A    between atoms: C_17  and  N_18
REMARK                            x       y       z     vdW  Elec       q    Type
REMARK                         _______ _______ _______ _____ _____    ______ ____
ROOT
ATOM      1  C   UNL     1       5.535   6.231  16.881  0.00  0.00    +0.000 C 
ENDROOT
BRANCH   1   6
ATOM      2 CL   UNL     1       2.153   4.091  21.412  0.00  0.00    +0.000 Cl
ATOM      3  C   UNL     1       2.972   4.649  20.007  0.00  0.00    +0.000 A 
ATOM      4  C   UNL     1       3.894   3.827  19.373  0.00  0.00    +0.000 A 
ATOM      5  C   UNL     1       4.654   4.322  18.308  0.00  0.00    +0.000 A 
ATOM      6  C   UNL     1       4.511   5.642  17.858  0.00  0.00    +0.000 A 
ATOM      7  C   UNL     1       3.431   6.378  18.389  0.00  0.00    +0.000 A 
ATOM      8 CL   UNL     1       2.860   7.858  17.684  0.00  0.00    +0.000 Cl
ATOM      9  C   UNL     1       2.704   5.912  19.496  0.00  0.00    +0.000 A 
ENDBRANCH   1   6
BRANCH   1  10
ATOM     10  C   UNL     1       6.209   7.564  17.345  0.00  0.00    +0.000 C 
BRANCH  10  11
ATOM     11  C   UNL     1       7.730   7.770  17.363  0.00  0.00    +0.000 C 
BRANCH  11  12
ATOM     12  C   UNL     1       8.440   8.429  18.556  0.00  0.00    +0.000 C 
BRANCH  12  13
ATOM     13  O   UNL     1       8.613   9.791  18.144  0.00  0.00    +0.000 OA
BRANCH  13  14
ATOM     14  C   UNL     1       9.461  10.629  18.797  0.00  0.00    +0.000 A 
ATOM     15  C   UNL     1      10.301  11.354  17.945  0.00  0.00    +0.000 A 
ATOM     16  C   UNL     1      11.202  12.293  18.443  0.00  0.00    +0.000 A 
ATOM     17  C   UNL     1      11.266  12.523  19.812  0.00  0.00    +0.000 A 
ATOM     18  C   UNL     1      10.424  11.812  20.671  0.00  0.00    +0.000 A 
ATOM     19  C   UNL     1       9.522  10.862  20.167  0.00  0.00    +0.000 A 
ENDBRANCH  13  14
ENDBRANCH  12  13
ENDBRANCH  11  12
ENDBRANCH  10  11
ENDBRANCH   1  10
BRANCH   1  20
ATOM     20  C   UNL     1       6.613   5.269  16.398  0.00  0.00    +0.000 C 
BRANCH  20  21
ATOM     21  N   UNL     1       6.482   4.841  15.020  0.00  0.00    +0.000 N 
ATOM     22  C   UNL     1       7.390   5.031  14.026  0.00  0.00    +0.000 A 
ATOM     23  C   UNL     1       6.901   4.312  12.959  0.00  0.00    +0.000 A 
ATOM     24  N   UNL     1       5.712   3.705  13.285  0.00  0.00    +0.000 NA
ATOM     25  C   UNL     1       5.481   4.046  14.528  0.00  0.00    +0.000 A 
ENDBRANCH  20  21
ENDBRANCH   1  20
TORSDOF 8
ENDMDL
MODEL 8
REMARK VINA RESULT:      -7.1      1.072      1.214
REMARK  Name = 
REMARK  8 active torsions:
REMARK  status: ('A' for Active; 'I' for Inactive)
REMARK    1  A    between atoms: C_5  and  C_6
REMARK    2  A    between atoms: C_6  and  C_7
REMARK    3  A    between atoms: C_6  and  C_17
REMARK    4  A    between atoms: C_7  and  C_8
REMARK    5  A    between atoms: C_8  and  C_9
REMARK    6  A    between atoms: C_9  and  O_10
REMARK    7  A    between atoms: O_10  and  C_11
REMARK    8  A    between atoms: C_17  and  N_18
REMARK                            x       y       z     vdW  Elec       q    Type
REMARK                         _______ _______ _______ _____ _____    ______ ____
ROOT
ATOM      1  C   UNL     1       4.574   4.618  17.891  0.00  0.00    +0.000 C 
ENDROOT
BRANCH   1   6
ATOM      2 CL   UNL     1       7.719   5.065  12.746  0.00  0.00    +0.000 Cl
ATOM      3  C   UNL     1       6.902   4.765  14.229  0.00  0.00    +0.000 A 
ATOM      4  C   UNL     1       5.603   4.275  14.215  0.00  0.00    +0.000 A 
ATOM      5  C   UNL     1       4.891   4.150  15.413  0.00  0.00    +0.000 A 
ATOM      6  C   UNL     1       5.459   4.510  16.643  0.00  0.00    +0.000 A 
ATOM      7  C   UNL     1       6.837   4.809  16.640  0.00  0.00    +0.000 A 
ATOM      8 CL   UNL     1       7.788   4.890  18.090  0.00  0.00    +0.000 Cl
ATOM      9  C   UNL     1       7.542   4.995  15.439  0.00  0.00    +0.000 A 
ENDBRANCH   1   6
BRANCH   1  10
ATOM     10  C   UNL     1       4.398   6.064  18.460  0.00  0.00    +0.000 C 
BRANCH  10  11
ATOM     11  C   UNL     1       3.717   7.194  17.677  0.00  0.00    +0.000 C 
BRANCH  11  12
ATOM     12  C   UNL     1       2.302   7.679  18.027  0.00  0.00    +0.000 C 
BRANCH  12  13
ATOM     13  O   UNL     1       2.234   8.989  17.448  0.00  0.00    +0.000 OA
BRANCH  13  14
ATOM     14  C   UNL     1       1.610  10.016  18.083  0.00  0.00    +0.000 A 
ATOM     15  C   UNL     1       2.321  11.220  18.037  0.00  0.00    +0.000 A 
ATOM     16  C   UNL     1       1.806  12.387  18.599  0.00  0.00    +0.000 A 
ATOM     17  C   UNL     1       0.559  12.361  19.211  0.00  0.00    +0.000 A 
ATOM     18  C   UNL     1      -0.163  11.166  19.254  0.00  0.00    +0.000 A 
ATOM     19  C   UNL     1       0.360   9.990  18.694  0.00  0.00    +0.000 A 
ENDBRANCH  13  14
ENDBRANCH  12  13
ENDBRANCH  11  12
ENDBRANCH  10  11
ENDBRANCH   1  10
BRANCH   1  20
ATOM     20  C   UNL     1       3.207   3.952  17.786  0.00  0.00    +0.000 C 
BRANCH  20  21
ATOM     21  N   UNL     1       2.580   3.638  19.055  0.00  0.00    +0.000 N 
ATOM     22  C   UNL     1       1.286   3.875  19.396  0.00  0.00    +0.000 A 
ATOM     23  C   UNL     1       1.123   3.257  20.615  0.00  0.00    +0.000 A 
ATOM     24  N   UNL     1       2.294   2.665  21.021  0.00  0.00    +0.000 NA
ATOM     25  C   UNL     1       3.155   2.915  20.066  0.00  0.00    +0.000 A 
ENDBRANCH  20  21
ENDBRANCH   1  20
TORSDOF 8
ENDMDL
MODEL 9
REMARK VINA RESULT:      -7.1      0.995      1.245
REMARK  Name = 
REMARK  8 active torsions:
REMARK  status: ('A' for Active; 'I' for Inactive)
REMARK    1  A    between atoms: C_5  and  C_6
REMARK    2  A    between atoms: C_6  and  C_7
REMARK    3  A    between atoms: C_6  and  C_17
REMARK    4  A    between atoms: C_7  and  C_8
REMARK    5  A    between atoms: C_8  and  C_9
REMARK    6  A    between atoms: C_9  and  O_10
REMARK    7  A    between atoms: O_10  and  C_11
REMARK    8  A    between atoms: C_17  and  N_18
REMARK                            x       y       z     vdW  Elec       q    Type
REMARK                         _______ _______ _______ _____ _____    ______ ____
ROOT
ATOM      1  C   UNL     1       4.461   4.457  18.272  0.00  0.00    +0.000 C 
ENDROOT
BRANCH   1   6
ATOM      2 CL   UNL     1       7.637   5.189  13.179  0.00  0.00    +0.000 Cl
ATOM      3  C   UNL     1       6.837   4.822  14.657  0.00  0.00    +0.000 A 
ATOM      4  C   UNL     1       5.631   4.134  14.637  0.00  0.00    +0.000 A 
ATOM      5  C   UNL     1       4.915   3.947  15.824  0.00  0.00    +0.000 A 
ATOM      6  C   UNL     1       5.386   4.440  17.049  0.00  0.00    +0.000 A 
ATOM      7  C   UNL     1       6.700   4.952  17.061  0.00  0.00    +0.000 A 
ATOM      8 CL   UNL     1       7.587   5.239  18.526  0.00  0.00    +0.000 Cl
ATOM      9  C   UNL     1       7.399   5.198  15.869  0.00  0.00    +0.000 A 
ENDBRANCH   1   6
BRANCH   1  10
ATOM     10  C   UNL     1       4.048   5.878  18.776  0.00  0.00    +0.000 C 
BRANCH  10  11
ATOM     11  C   UNL     1       2.863   6.660  18.193  0.00  0.00    +0.000 C 
BRANCH  11  12
ATOM     12  C   UNL     1       2.199   7.812  18.965  0.00  0.00    +0.000 C 
BRANCH  12  13
ATOM     13  O   UNL     1       2.152   8.881  18.011  0.00  0.00    +0.000 OA
BRANCH  13  14
ATOM     14  C   UNL     1       1.345   9.961  18.193  0.00  0.00    +0.000 A 
ATOM     15  C   UNL     1      -0.017   9.676  18.042  0.00  0.00    +0.000 A 
ATOM     16  C   UNL     1      -0.987  10.655  18.239  0.00  0.00    +0.000 A 
ATOM     17  C   UNL     1      -0.602  11.940  18.600  0.00  0.00    +0.000 A 
ATOM     18  C   UNL     1       0.755  12.233  18.763  0.00  0.00    +0.000 A 
ATOM     19  C   UNL     1       1.731  11.246  18.558  0.00  0.00    +0.000 A 
ENDBRANCH  13  14
ENDBRANCH  12  13
ENDBRANCH  11  12
ENDBRANCH  10  11
ENDBRANCH   1  10
BRANCH   1  20
ATOM     20  C   UNL     1       3.217   3.583  18.168  0.00  0.00    +0.000 C 
BRANCH  20  21
ATOM     21  N   UNL     1       2.613   3.223  19.435  0.00  0.00    +0.000 N 
ATOM     22  C   UNL     1       3.260   2.740  20.529  0.00  0.00    +0.000 A 
ATOM     23  C   UNL     1       2.304   2.713  21.520  0.00  0.00    +0.000 A 
ATOM     24  N   UNL     1       1.095   3.156  21.043  0.00  0.00    +0.000 NA
ATOM     25  C   UNL     1       1.308   3.450  19.784  0.00  0.00    +0.000 A 
ENDBRANCH  20  21
ENDBRANCH   1  20
TORSDOF 8
ENDMDL
