MODEL 1
REMARK VINA RESULT:      -8.5      0.000      0.000
REMARK  Name = 
REMARK  8 active torsions:
REMARK  status: ('A' for Active; 'I' for Inactive)
REMARK    1  A    between atoms: C_1  and  C_2
REMARK    2  A    between atoms: C_3  and  C_4
REMARK    3  A    between atoms: C_7  and  C_8
REMARK    4  A    between atoms: C_11  and  C_12
REMARK    5  A    between atoms: C_17  and  C_18
REMARK    6  A    between atoms: C_21  and  C_22
REMARK    7  A    between atoms: C_25  and  C_26
REMARK    8  A    between atoms: C_30  and  C_31
REMARK                            x       y       z     vdW  Elec       q    Type
REMARK                         _______ _______ _______ _____ _____    ______ ____
ROOT
ATOM      1  C   UNL     1       0.663  13.618  18.720  0.00  0.00    +0.000 C 
ATOM      2  C   UNL     1       0.534  12.186  19.106  0.00  0.00    +0.000 A 
ATOM      3  C   UNL     1      -0.375  11.586  19.971  0.00  0.00    +0.000 A 
ATOM      4  O   UNL     1      -0.037  10.261  20.126  0.00  0.00    +0.000 OA
ATOM      5  C   UNL     1       1.048   9.992  19.325  0.00  0.00    +0.000 A 
ATOM      6  C   UNL     1       1.423  11.146  18.654  0.00  0.00    +0.000 A 
ATOM      7  C   UNL     1       2.559  11.350  17.712  0.00  0.00    +0.000 C 
ENDROOT
BRANCH   3   8
ATOM      8  C   UNL     1      -1.538  12.069  20.744  0.00  0.00    +0.000 A 
ATOM      9  C   UNL     1      -1.599  11.916  22.137  0.00  0.00    +0.000 A 
ATOM     10  C   UNL     1      -2.749  12.264  22.872  0.00  0.00    +0.000 A 
ATOM     11  C   UNL     1      -3.890  12.788  22.246  0.00  0.00    +0.000 A 
ATOM     12  C   UNL     1      -3.806  13.003  20.863  0.00  0.00    +0.000 A 
ATOM     13  C   UNL     1      -2.651  12.652  20.126  0.00  0.00    +0.000 A 
BRANCH  11  14
ATOM     14  C   UNL     1      -5.142  13.001  23.011  0.00  0.00    +0.000 C 
ATOM     15  N   UNL     1      -5.467  12.214  24.167  0.00  0.00    +0.000 NA
ATOM     16  C   UNL     1      -6.924  12.031  24.046  0.00  0.00    +0.000 C 
ATOM     17  C   UNL     1      -7.431  13.251  23.287  0.00  0.00    +0.000 C 
ATOM     18  C   UNL     1      -7.914  14.368  24.208  0.00  0.00    +0.000 C 
ATOM     19  N   UNL     1      -6.290  13.636  22.447  0.00  0.00    +0.000 NA
ATOM     20  H   UNL     1      -5.299  12.796  24.988  0.00  0.00    +0.000 HD
ATOM     21  H   UNL     1      -6.180  14.639  22.315  0.00  0.00    +0.000 HD
ENDBRANCH  11  14
ENDBRANCH   3   8
BRANCH   5  22
ATOM     22  C   UNL     1       1.608   8.632  19.388  0.00  0.00    +0.000 A 
ATOM     23  C   UNL     1       1.477   7.835  20.536  0.00  0.00    +0.000 A 
ATOM     24  C   UNL     1       1.846   6.473  20.538  0.00  0.00    +0.000 A 
ATOM     25  C   UNL     1       2.373   5.865  19.392  0.00  0.00    +0.000 A 
ATOM     26  C   UNL     1       2.558   6.685  18.265  0.00  0.00    +0.000 A 
ATOM     27  C   UNL     1       2.187   8.039  18.261  0.00  0.00    +0.000 A 
BRANCH  25  28
ATOM     28  C   UNL     1       2.632   4.405  19.318  0.00  0.00    +0.000 C 
ATOM     29  N   UNL     1       2.206   3.545  20.387  0.00  0.00    +0.000 NA
ATOM     30  C   UNL     1       3.411   2.737  20.630  0.00  0.00    +0.000 C 
ATOM     31  C   UNL     1       4.068   2.590  19.259  0.00  0.00    +0.000 C 
ATOM     32  C   UNL     1       3.601   1.330  18.535  0.00  0.00    +0.000 C 
ATOM     33  N   UNL     1       3.720   3.845  18.573  0.00  0.00    +0.000 NA
ATOM     34  H   UNL     1       1.508   2.912  19.997  0.00  0.00    +0.000 HD
ATOM     35  H   UNL     1       3.466   3.695  17.598  0.00  0.00    +0.000 HD
ENDBRANCH  25  28
ENDBRANCH   5  22
TORSDOF 4
ENDMDL
MODEL 2
REMARK VINA RESULT:      -8.3      0.641      1.084
REMARK  Name = 
REMARK  8 active torsions:
REMARK  status: ('A' for Active; 'I' for Inactive)
REMARK    1  A    between atoms: C_1  and  C_2
REMARK    2  A    between atoms: C_3  and  C_4
REMARK    3  A    between atoms: C_7  and  C_8
REMARK    4  A    between atoms: C_11  and  C_12
REMARK    5  A    between atoms: C_17  and  C_18
REMARK    6  A    between atoms: C_21  and  C_22
REMARK    7  A    between atoms: C_25  and  C_26
REMARK    8  A    between atoms: C_30  and  C_31
REMARK                            x       y       z     vdW  Elec       q    Type
REMARK                         _______ _______ _______ _____ _____    ______ ____
ROOT
ATOM      1  C   UNL     1       0.437  13.976  19.142  0.00  0.00    +0.000 C 
ATOM      2  C   UNL     1       0.326  12.507  19.360  0.00  0.00    +0.000 A 
ATOM      3  C   UNL     1      -0.635  11.793  20.066  0.00  0.00    +0.000 A 
ATOM      4  O   UNL     1      -0.264  10.468  20.111  0.00  0.00    +0.000 OA
ATOM      5  C   UNL     1       0.898  10.317  19.391  0.00  0.00    +0.000 A 
ATOM      6  C   UNL     1       1.290  11.547  18.885  0.00  0.00    +0.000 A 
ATOM      7  C   UNL     1       2.498  11.883  18.081  0.00  0.00    +0.000 C 
ENDROOT
BRANCH   3   8
ATOM      8  C   UNL     1      -1.880  12.158  20.774  0.00  0.00    +0.000 A 
ATOM      9  C   UNL     1      -3.034  12.532  20.069  0.00  0.00    +0.000 A 
ATOM     10  C   UNL     1      -4.189  12.994  20.729  0.00  0.00    +0.000 A 
ATOM     11  C   UNL     1      -4.244  13.098  22.126  0.00  0.00    +0.000 A 
ATOM     12  C   UNL     1      -3.116  12.662  22.835  0.00  0.00    +0.000 A 
ATOM     13  C   UNL     1      -1.956  12.199  22.171  0.00  0.00    +0.000 A 
BRANCH  11  14
ATOM     14  C   UNL     1      -5.408  13.732  22.792  0.00  0.00    +0.000 C 
ATOM     15  N   UNL     1      -5.739  13.458  24.162  0.00  0.00    +0.000 NA
ATOM     16  C   UNL     1      -7.212  13.437  24.150  0.00  0.00    +0.000 C 
ATOM     17  C   UNL     1      -7.629  14.361  23.014  0.00  0.00    +0.000 C 
ATOM     18  C   UNL     1      -7.916  15.786  23.479  0.00  0.00    +0.000 C 
ATOM     19  N   UNL     1      -6.513  14.268  22.064  0.00  0.00    +0.000 NA
ATOM     20  H   UNL     1      -5.449  14.268  24.712  0.00  0.00    +0.000 HD
ATOM     21  H   UNL     1      -6.299  15.135  21.575  0.00  0.00    +0.000 HD
ENDBRANCH  11  14
ENDBRANCH   3   8
BRANCH   5  22
ATOM     22  C   UNL     1       1.499   8.974  19.362  0.00  0.00    +0.000 A 
ATOM     23  C   UNL     1       1.494   8.141  20.491  0.00  0.00    +0.000 A 
ATOM     24  C   UNL     1       1.900   6.791  20.417  0.00  0.00    +0.000 A 
ATOM     25  C   UNL     1       2.338   6.232  19.211  0.00  0.00    +0.000 A 
ATOM     26  C   UNL     1       2.399   7.089  18.098  0.00  0.00    +0.000 A 
ATOM     27  C   UNL     1       1.990   8.431  18.170  0.00  0.00    +0.000 A 
BRANCH  25  28
ATOM     28  C   UNL     1       2.630   4.783  19.068  0.00  0.00    +0.000 C 
ATOM     29  N   UNL     1       1.992   3.834  19.936  0.00  0.00    +0.000 NA
ATOM     30  C   UNL     1       3.125   3.003  20.369  0.00  0.00    +0.000 C 
ATOM     31  C   UNL     1       4.072   2.975  19.171  0.00  0.00    +0.000 C 
ATOM     32  C   UNL     1       3.797   1.787  18.253  0.00  0.00    +0.000 C 
ATOM     33  N   UNL     1       3.866   4.288  18.537  0.00  0.00    +0.000 NA
ATOM     34  H   UNL     1       1.408   3.241  19.347  0.00  0.00    +0.000 HD
ATOM     35  H   UNL     1       3.836   4.226  17.521  0.00  0.00    +0.000 HD
ENDBRANCH  25  28
ENDBRANCH   5  22
TORSDOF 4
ENDMDL
MODEL 3
REMARK VINA RESULT:      -8.2      4.197     11.961
REMARK  Name = 
REMARK  8 active torsions:
REMARK  status: ('A' for Active; 'I' for Inactive)
REMARK    1  A    between atoms: C_1  and  C_2
REMARK    2  A    between atoms: C_3  and  C_4
REMARK    3  A    between atoms: C_7  and  C_8
REMARK    4  A    between atoms: C_11  and  C_12
REMARK    5  A    between atoms: C_17  and  C_18
REMARK    6  A    between atoms: C_21  and  C_22
REMARK    7  A    between atoms: C_25  and  C_26
REMARK    8  A    between atoms: C_30  and  C_31
REMARK                            x       y       z     vdW  Elec       q    Type
REMARK                         _______ _______ _______ _____ _____    ______ ____
ROOT
ATOM      1  C   UNL     1       2.607   5.730  20.574  0.00  0.00    +0.000 C 
ATOM      2  C   UNL     1       2.357   6.885  19.668  0.00  0.00    +0.000 A 
ATOM      3  C   UNL     1       2.853   7.124  18.391  0.00  0.00    +0.000 A 
ATOM      4  O   UNL     1       2.460   8.380  17.988  0.00  0.00    +0.000 OA
ATOM      5  C   UNL     1       1.670   8.927  18.972  0.00  0.00    +0.000 A 
ATOM      6  C   UNL     1       1.556   8.029  20.022  0.00  0.00    +0.000 A 
ATOM      7  C   UNL     1       0.837   8.194  21.317  0.00  0.00    +0.000 C 
ENDROOT
BRANCH   3   8
ATOM      8  C   UNL     1       3.702   6.362  17.453  0.00  0.00    +0.000 A 
ATOM      9  C   UNL     1       4.592   7.012  16.585  0.00  0.00    +0.000 A 
ATOM     10  C   UNL     1       5.321   6.308  15.606  0.00  0.00    +0.000 A 
ATOM     11  C   UNL     1       5.195   4.920  15.455  0.00  0.00    +0.000 A 
ATOM     12  C   UNL     1       4.357   4.261  16.364  0.00  0.00    +0.000 A 
ATOM     13  C   UNL     1       3.625   4.968  17.346  0.00  0.00    +0.000 A 
BRANCH  11  14
ATOM     14  C   UNL     1       5.848   4.221  14.321  0.00  0.00    +0.000 C 
ATOM     15  N   UNL     1       7.247   4.378  14.038  0.00  0.00    +0.000 NA
ATOM     16  C   UNL     1       7.289   4.384  12.565  0.00  0.00    +0.000 C 
ATOM     17  C   UNL     1       6.096   3.551  12.115  0.00  0.00    +0.000 C 
ATOM     18  C   UNL     1       6.453   2.090  11.856  0.00  0.00    +0.000 C 
ATOM     19  N   UNL     1       5.119   3.733  13.195  0.00  0.00    +0.000 NA
ATOM     20  H   UNL     1       7.718   3.530  14.354  0.00  0.00    +0.000 HD
ATOM     21  H   UNL     1       4.553   2.912  13.397  0.00  0.00    +0.000 HD
ENDBRANCH  11  14
ENDBRANCH   3   8
BRANCH   5  22
ATOM     22  C   UNL     1       1.190  10.302  18.761  0.00  0.00    +0.000 A 
ATOM     23  C   UNL     1      -0.158  10.646  18.942  0.00  0.00    +0.000 A 
ATOM     24  C   UNL     1      -0.589  11.990  18.922  0.00  0.00    +0.000 A 
ATOM     25  C   UNL     1       0.316  13.037  18.705  0.00  0.00    +0.000 A 
ATOM     26  C   UNL     1       1.654  12.679  18.463  0.00  0.00    +0.000 A 
ATOM     27  C   UNL     1       2.084  11.343  18.488  0.00  0.00    +0.000 A 
BRANCH  25  28
ATOM     28  C   UNL     1      -0.079  14.463  18.824  0.00  0.00    +0.000 C 
ATOM     29  N   UNL     1       0.925  15.490  18.805  0.00  0.00    +0.000 NA
ATOM     30  C   UNL     1       0.539  16.320  19.955  0.00  0.00    +0.000 C 
ATOM     31  C   UNL     1      -0.986  16.235  20.006  0.00  0.00    +0.000 C 
ATOM     32  C   UNL     1      -1.646  17.360  19.214  0.00  0.00    +0.000 C 
ATOM     33  N   UNL     1      -1.274  14.886  19.493  0.00  0.00    +0.000 NA
ATOM     34  H   UNL     1       0.755  16.053  17.972  0.00  0.00    +0.000 HD
ATOM     35  H   UNL     1      -2.075  14.874  18.865  0.00  0.00    +0.000 HD
ENDBRANCH  25  28
ENDBRANCH   5  22
TORSDOF 4
ENDMDL
MODEL 4
REMARK VINA RESULT:      -8.2      4.284      6.127
REMARK  Name = 
REMARK  8 active torsions:
REMARK  status: ('A' for Active; 'I' for Inactive)
REMARK    1  A    between atoms: C_1  and  C_2
REMARK    2  A    between atoms: C_3  and  C_4
REMARK    3  A    between atoms: C_7  and  C_8
REMARK    4  A    between atoms: C_11  and  C_12
REMARK    5  A    between atoms: C_17  and  C_18
REMARK    6  A    between atoms: C_21  and  C_22
REMARK    7  A    between atoms: C_25  and  C_26
REMARK    8  A    between atoms: C_30  and  C_31
REMARK                            x       y       z     vdW  Elec       q    Type
REMARK                         _______ _______ _______ _____ _____    ______ ____
ROOT
ATOM      1  C   UNL     1       0.518   7.992  21.294  0.00  0.00    +0.000 C 
ATOM      2  C   UNL     1       1.473   7.929  20.152  0.00  0.00    +0.000 A 
ATOM      3  C   UNL     1       1.768   8.896  19.198  0.00  0.00    +0.000 A 
ATOM      4  O   UNL     1       2.613   8.352  18.258  0.00  0.00    +0.000 OA
ATOM      5  C   UNL     1       2.906   7.061  18.630  0.00  0.00    +0.000 A 
ATOM      6  C   UNL     1       2.244   6.760  19.811  0.00  0.00    +0.000 A 
ATOM      7  C   UNL     1       2.227   5.479  20.571  0.00  0.00    +0.000 C 
ENDROOT
BRANCH   3   8
ATOM      8  C   UNL     1       1.348  10.295  18.982  0.00  0.00    +0.000 A 
ATOM      9  C   UNL     1       2.202  11.225  18.370  0.00  0.00    +0.000 A 
ATOM     10  C   UNL     1       1.861  12.588  18.263  0.00  0.00    +0.000 A 
ATOM     11  C   UNL     1       0.646  13.081  18.759  0.00  0.00    +0.000 A 
ATOM     12  C   UNL     1      -0.236  12.142  19.311  0.00  0.00    +0.000 A 
ATOM     13  C   UNL     1       0.107  10.775  19.419  0.00  0.00    +0.000 A 
BRANCH  11  14
ATOM     14  C   UNL     1       0.374  14.539  18.779  0.00  0.00    +0.000 C 
ATOM     15  N   UNL     1       1.414  15.501  19.009  0.00  0.00    +0.000 NA
ATOM     16  C   UNL     1       0.743  16.526  19.827  0.00  0.00    +0.000 C 
ATOM     17  C   UNL     1      -0.727  16.473  19.433  0.00  0.00    +0.000 C 
ATOM     18  C   UNL     1      -1.091  17.481  18.346  0.00  0.00    +0.000 C 
ATOM     19  N   UNL     1      -0.926  15.076  19.027  0.00  0.00    +0.000 NA
ATOM     20  H   UNL     1       1.638  15.927  18.108  0.00  0.00    +0.000 HD
ATOM     21  H   UNL     1      -1.577  14.947  18.255  0.00  0.00    +0.000 HD
ENDBRANCH  11  14
ENDBRANCH   3   8
BRANCH   5  22
ATOM     22  C   UNL     1       3.757   6.277  17.721  0.00  0.00    +0.000 A 
ATOM     23  C   UNL     1       3.565   4.899  17.539  0.00  0.00    +0.000 A 
ATOM     24  C   UNL     1       4.252   4.181  16.537  0.00  0.00    +0.000 A 
ATOM     25  C   UNL     1       5.165   4.818  15.688  0.00  0.00    +0.000 A 
ATOM     26  C   UNL     1       5.398   6.186  15.916  0.00  0.00    +0.000 A 
ATOM     27  C   UNL     1       4.711   6.901  16.910  0.00  0.00    +0.000 A 
BRANCH  25  28
ATOM     28  C   UNL     1       5.790   4.125  14.533  0.00  0.00    +0.000 C 
ATOM     29  N   UNL     1       7.176   4.345  14.227  0.00  0.00    +0.000 NA
ATOM     30  C   UNL     1       7.136   4.596  12.779  0.00  0.00    +0.000 C 
ATOM     31  C   UNL     1       5.992   3.725  12.262  0.00  0.00    +0.000 C 
ATOM     32  C   UNL     1       6.480   2.348  11.818  0.00  0.00    +0.000 C 
ATOM     33  N   UNL     1       5.044   3.695  13.387  0.00  0.00    +0.000 NA
ATOM     34  H   UNL     1       7.652   3.452  14.353  0.00  0.00    +0.000 HD
ATOM     35  H   UNL     1       4.642   2.770  13.530  0.00  0.00    +0.000 HD
ENDBRANCH  25  28
ENDBRANCH   5  22
TORSDOF 4
ENDMDL
MODEL 5
REMARK VINA RESULT:      -8.1      0.628     10.396
REMARK  Name = 
REMARK  8 active torsions:
REMARK  status: ('A' for Active; 'I' for Inactive)
REMARK    1  A    between atoms: C_1  and  C_2
REMARK    2  A    between atoms: C_3  and  C_4
REMARK    3  A    between atoms: C_7  and  C_8
REMARK    4  A    between atoms: C_11  and  C_12
REMARK    5  A    between atoms: C_17  and  C_18
REMARK    6  A    between atoms: C_21  and  C_22
REMARK    7  A    between atoms: C_25  and  C_26
REMARK    8  A    between atoms: C_30  and  C_31
REMARK                            x       y       z     vdW  Elec       q    Type
REMARK                         _______ _______ _______ _____ _____    ______ ____
ROOT
ATOM      1  C   UNL     1       2.621  11.701  17.827  0.00  0.00    +0.000 C 
ATOM      2  C   UNL     1       1.589  11.501  18.882  0.00  0.00    +0.000 A 
ATOM      3  C   UNL     1       1.146  10.320  19.466  0.00  0.00    +0.000 A 
ATOM      4  O   UNL     1       0.089  10.604  20.300  0.00  0.00    +0.000 OA
ATOM      5  C   UNL     1      -0.114  11.964  20.299  0.00  0.00    +0.000 A 
ATOM      6  C   UNL     1       0.806  12.567  19.456  0.00  0.00    +0.000 A 
ATOM      7  C   UNL     1       0.949  14.008  19.107  0.00  0.00    +0.000 C 
ENDROOT
BRANCH   3   8
ATOM      8  C   UNL     1       1.533   8.900  19.345  0.00  0.00    +0.000 A 
ATOM      9  C   UNL     1       1.479   8.035  20.449  0.00  0.00    +0.000 A 
ATOM     10  C   UNL     1       1.955   6.711  20.378  0.00  0.00    +0.000 A 
ATOM     11  C   UNL     1       2.502   6.190  19.196  0.00  0.00    +0.000 A 
ATOM     12  C   UNL     1       2.496   7.032  18.075  0.00  0.00    +0.000 A 
ATOM     13  C   UNL     1       2.019   8.361  18.148  0.00  0.00    +0.000 A 
BRANCH  11  14
ATOM     14  C   UNL     1       3.139   4.851  19.184  0.00  0.00    +0.000 C 
ATOM     15  N   UNL     1       3.675   4.277  17.982  0.00  0.00    +0.000 NA
ATOM     16  C   UNL     1       3.334   2.850  18.115  0.00  0.00    +0.000 C 
ATOM     17  C   UNL     1       3.279   2.576  19.612  0.00  0.00    +0.000 C 
ATOM     18  C   UNL     1       4.596   2.041  20.169  0.00  0.00    +0.000 C 
ATOM     19  N   UNL     1       2.881   3.867  20.186  0.00  0.00    +0.000 NA
ATOM     20  H   UNL     1       4.691   4.355  18.036  0.00  0.00    +0.000 HD
ATOM     21  H   UNL     1       3.304   4.079  21.087  0.00  0.00    +0.000 HD
ENDBRANCH  11  14
ENDBRANCH   3   8
BRANCH   5  22
ATOM     22  C   UNL     1      -1.246  12.474  21.090  0.00  0.00    +0.000 A 
ATOM     23  C   UNL     1      -2.348  13.095  20.482  0.00  0.00    +0.000 A 
ATOM     24  C   UNL     1      -3.512  13.418  21.211  0.00  0.00    +0.000 A 
ATOM     25  C   UNL     1      -3.608  13.140  22.581  0.00  0.00    +0.000 A 
ATOM     26  C   UNL     1      -2.477  12.575  23.195  0.00  0.00    +0.000 A 
ATOM     27  C   UNL     1      -1.320  12.249  22.469  0.00  0.00    +0.000 A 
BRANCH  25  28
ATOM     28  C   UNL     1      -4.869  13.331  23.341  0.00  0.00    +0.000 C 
ATOM     29  N   UNL     1      -5.040  12.696  24.618  0.00  0.00    +0.000 NA
ATOM     30  C   UNL     1      -6.378  12.100  24.487  0.00  0.00    +0.000 C 
ATOM     31  C   UNL     1      -7.154  13.070  23.597  0.00  0.00    +0.000 C 
ATOM     32  C   UNL     1      -7.908  14.115  24.415  0.00  0.00    +0.000 C 
ATOM     33  N   UNL     1      -6.121  13.627  22.710  0.00  0.00    +0.000 NA
ATOM     34  H   UNL     1      -5.122  13.440  25.310  0.00  0.00    +0.000 HD
ATOM     35  H   UNL     1      -6.236  14.628  22.562  0.00  0.00    +0.000 HD
ENDBRANCH  25  28
ENDBRANCH   5  22
TORSDOF 4
ENDMDL
MODEL 6
REMARK VINA RESULT:      -8.1      0.894     10.390
REMARK  Name = 
REMARK  8 active torsions:
REMARK  status: ('A' for Active; 'I' for Inactive)
REMARK    1  A    between atoms: C_1  and  C_2
REMARK    2  A    between atoms: C_3  and  C_4
REMARK    3  A    between atoms: C_7  and  C_8
REMARK    4  A    between atoms: C_11  and  C_12
REMARK    5  A    between atoms: C_17  and  C_18
REMARK    6  A    between atoms: C_21  and  C_22
REMARK    7  A    between atoms: C_25  and  C_26
REMARK    8  A    between atoms: C_30  and  C_31
REMARK                            x       y       z     vdW  Elec       q    Type
REMARK                         _______ _______ _______ _____ _____    ______ ____
ROOT
ATOM      1  C   UNL     1       2.710  11.932  17.727  0.00  0.00    +0.000 C 
ATOM      2  C   UNL     1       1.580  11.660  18.658  0.00  0.00    +0.000 A 
ATOM      3  C   UNL     1       1.166  10.453  19.211  0.00  0.00    +0.000 A 
ATOM      4  O   UNL     1      -0.002  10.659  19.909  0.00  0.00    +0.000 OA
ATOM      5  C   UNL     1      -0.310  11.998  19.857  0.00  0.00    +0.000 A 
ATOM      6  C   UNL     1       0.652  12.664  19.115  0.00  0.00    +0.000 A 
ATOM      7  C   UNL     1       0.721  14.109  18.756  0.00  0.00    +0.000 C 
ENDROOT
BRANCH   3   8
ATOM      8  C   UNL     1       1.676   9.067  19.164  0.00  0.00    +0.000 A 
ATOM      9  C   UNL     1       2.178   8.516  17.976  0.00  0.00    +0.000 A 
ATOM     10  C   UNL     1       2.558   7.163  17.888  0.00  0.00    +0.000 A 
ATOM     11  C   UNL     1       2.457   6.300  18.988  0.00  0.00    +0.000 A 
ATOM     12  C   UNL     1       2.019   6.865  20.194  0.00  0.00    +0.000 A 
ATOM     13  C   UNL     1       1.637   8.223  20.281  0.00  0.00    +0.000 A 
BRANCH  11  14
ATOM     14  C   UNL     1       2.713   4.847  18.835  0.00  0.00    +0.000 C 
ATOM     15  N   UNL     1       2.534   4.174  17.579  0.00  0.00    +0.000 NA
ATOM     16  C   UNL     1       1.977   2.869  17.978  0.00  0.00    +0.000 C 
ATOM     17  C   UNL     1       2.517   2.600  19.376  0.00  0.00    +0.000 C 
ATOM     18  C   UNL     1       3.791   1.759  19.373  0.00  0.00    +0.000 C 
ATOM     19  N   UNL     1       2.703   3.943  19.940  0.00  0.00    +0.000 NA
ATOM     20  H   UNL     1       3.462   4.005  17.190  0.00  0.00    +0.000 HD
ATOM     21  H   UNL     1       3.509   4.037  20.554  0.00  0.00    +0.000 HD
ENDBRANCH  11  14
ENDBRANCH   3   8
BRANCH   5  22
ATOM     22  C   UNL     1      -1.564  12.424  20.499  0.00  0.00    +0.000 A 
ATOM     23  C   UNL     1      -2.775  12.468  19.792  0.00  0.00    +0.000 A 
ATOM     24  C   UNL     1      -4.006  12.695  20.444  0.00  0.00    +0.000 A 
ATOM     25  C   UNL     1      -4.065  12.898  21.828  0.00  0.00    +0.000 A 
ATOM     26  C   UNL     1      -2.842  12.914  22.521  0.00  0.00    +0.000 A 
ATOM     27  C   UNL     1      -1.617  12.683  21.873  0.00  0.00    +0.000 A 
BRANCH  25  28
ATOM     28  C   UNL     1      -5.353  12.992  22.561  0.00  0.00    +0.000 C 
ATOM     29  N   UNL     1      -6.423  12.085  22.252  0.00  0.00    +0.000 NA
ATOM     30  C   UNL     1      -7.571  12.995  22.129  0.00  0.00    +0.000 C 
ATOM     31  C   UNL     1      -7.296  14.113  23.133  0.00  0.00    +0.000 C 
ATOM     32  C   UNL     1      -7.917  13.821  24.496  0.00  0.00    +0.000 C 
ATOM     33  N   UNL     1      -5.827  14.211  23.147  0.00  0.00    +0.000 NA
ATOM     34  H   UNL     1      -6.586  11.526  23.089  0.00  0.00    +0.000 HD
ATOM     35  H   UNL     1      -5.457  14.342  24.086  0.00  0.00    +0.000 HD
ENDBRANCH  25  28
ENDBRANCH   5  22
TORSDOF 4
ENDMDL
MODEL 7
REMARK VINA RESULT:      -8.0      3.173     10.856
REMARK  Name = 
REMARK  8 active torsions:
REMARK  status: ('A' for Active; 'I' for Inactive)
REMARK    1  A    between atoms: C_1  and  C_2
REMARK    2  A    between atoms: C_3  and  C_4
REMARK    3  A    between atoms: C_7  and  C_8
REMARK    4  A    between atoms: C_11  and  C_12
REMARK    5  A    between atoms: C_17  and  C_18
REMARK    6  A    between atoms: C_21  and  C_22
REMARK    7  A    between atoms: C_25  and  C_26
REMARK    8  A    between atoms: C_30  and  C_31
REMARK                            x       y       z     vdW  Elec       q    Type
REMARK                         _______ _______ _______ _____ _____    ______ ____
ROOT
ATOM      1  C   UNL     1      -1.990   9.789  17.302  0.00  0.00    +0.000 C 
ATOM      2  C   UNL     1      -1.418  10.505  18.476  0.00  0.00    +0.000 A 
ATOM      3  C   UNL     1      -0.234  10.261  19.164  0.00  0.00    +0.000 A 
ATOM      4  O   UNL     1      -0.177  11.090  20.261  0.00  0.00    +0.000 OA
ATOM      5  C   UNL     1      -1.286  11.902  20.252  0.00  0.00    +0.000 A 
ATOM      6  C   UNL     1      -2.073  11.596  19.153  0.00  0.00    +0.000 A 
ATOM      7  C   UNL     1      -3.382  12.182  18.749  0.00  0.00    +0.000 C 
ENDROOT
BRANCH   3   8
ATOM      8  C   UNL     1       0.887   9.316  18.987  0.00  0.00    +0.000 A 
ATOM      9  C   UNL     1       1.605   9.257  17.783  0.00  0.00    +0.000 A 
ATOM     10  C   UNL     1       2.598   8.284  17.557  0.00  0.00    +0.000 A 
ATOM     11  C   UNL     1       2.921   7.327  18.530  0.00  0.00    +0.000 A 
ATOM     12  C   UNL     1       2.252   7.426  19.758  0.00  0.00    +0.000 A 
ATOM     13  C   UNL     1       1.255   8.403  19.983  0.00  0.00    +0.000 A 
BRANCH  11  14
ATOM     14  C   UNL     1       3.854   6.217  18.218  0.00  0.00    +0.000 C 
ATOM     15  N   UNL     1       3.808   4.967  18.924  0.00  0.00    +0.000 NA
ATOM     16  C   UNL     1       5.230   4.603  19.047  0.00  0.00    +0.000 C 
ATOM     17  C   UNL     1       5.926   5.240  17.851  0.00  0.00    +0.000 C 
ATOM     18  C   UNL     1       6.059   4.291  16.663  0.00  0.00    +0.000 C 
ATOM     19  N   UNL     1       5.107   6.426  17.566  0.00  0.00    +0.000 NA
ATOM     20  H   UNL     1       3.370   4.285  18.303  0.00  0.00    +0.000 HD
ATOM     21  H   UNL     1       5.022   6.654  16.578  0.00  0.00    +0.000 HD
ENDBRANCH  11  14
ENDBRANCH   3   8
BRANCH   5  22
ATOM     22  C   UNL     1      -1.447  12.832  21.382  0.00  0.00    +0.000 A 
ATOM     23  C   UNL     1      -2.104  12.449  22.562  0.00  0.00    +0.000 A 
ATOM     24  C   UNL     1      -2.099  13.268  23.711  0.00  0.00    +0.000 A 
ATOM     25  C   UNL     1      -1.445  14.506  23.715  0.00  0.00    +0.000 A 
ATOM     26  C   UNL     1      -0.842  14.910  22.511  0.00  0.00    +0.000 A 
ATOM     27  C   UNL     1      -0.843  14.093  21.368  0.00  0.00    +0.000 A 
BRANCH  25  28
ATOM     28  C   UNL     1      -1.297  15.320  24.947  0.00  0.00    +0.000 C 
ATOM     29  N   UNL     1      -2.441  15.974  25.518  0.00  0.00    +0.000 NA
ATOM     30  C   UNL     1      -1.933  17.333  25.754  0.00  0.00    +0.000 C 
ATOM     31  C   UNL     1      -0.455  17.146  26.095  0.00  0.00    +0.000 C 
ATOM     32  C   UNL     1      -0.230  17.006  27.598  0.00  0.00    +0.000 C 
ATOM     33  N   UNL     1      -0.068  15.961  25.313  0.00  0.00    +0.000 NA
ATOM     34  H   UNL     1      -2.591  15.558  26.437  0.00  0.00    +0.000 HD
ATOM     35  H   UNL     1       0.538  15.333  25.837  0.00  0.00    +0.000 HD
ENDBRANCH  25  28
ENDBRANCH   5  22
TORSDOF 4
ENDMDL
MODEL 8
REMARK VINA RESULT:      -8.0      3.290      4.087
REMARK  Name = 
REMARK  8 active torsions:
REMARK  status: ('A' for Active; 'I' for Inactive)
REMARK    1  A    between atoms: C_1  and  C_2
REMARK    2  A    between atoms: C_3  and  C_4
REMARK    3  A    between atoms: C_7  and  C_8
REMARK    4  A    between atoms: C_11  and  C_12
REMARK    5  A    between atoms: C_17  and  C_18
REMARK    6  A    between atoms: C_21  and  C_22
REMARK    7  A    between atoms: C_25  and  C_26
REMARK    8  A    between atoms: C_30  and  C_31
REMARK                            x       y       z     vdW  Elec       q    Type
REMARK                         _______ _______ _______ _____ _____    ______ ____
ROOT
ATOM      1  C   UNL     1      -3.243  12.168  18.868  0.00  0.00    +0.000 C 
ATOM      2  C   UNL     1      -1.983  11.527  19.337  0.00  0.00    +0.000 A 
ATOM      3  C   UNL     1      -1.177  11.860  20.419  0.00  0.00    +0.000 A 
ATOM      4  O   UNL     1      -0.046  11.076  20.392  0.00  0.00    +0.000 OA
ATOM      5  C   UNL     1      -0.145  10.205  19.333  0.00  0.00    +0.000 A 
ATOM      6  C   UNL     1      -1.339  10.428  18.663  0.00  0.00    +0.000 A 
ATOM      7  C   UNL     1      -1.863   9.757  17.441  0.00  0.00    +0.000 C 
ENDROOT
BRANCH   3   8
ATOM      8  C   UNL     1      -1.266  12.858  21.505  0.00  0.00    +0.000 A 
ATOM      9  C   UNL     1      -0.375  13.939  21.575  0.00  0.00    +0.000 A 
ATOM     10  C   UNL     1      -0.373  14.831  22.665  0.00  0.00    +0.000 A 
ATOM     11  C   UNL     1      -1.268  14.683  23.735  0.00  0.00    +0.000 A 
ATOM     12  C   UNL     1      -2.203  13.643  23.635  0.00  0.00    +0.000 A 
ATOM     13  C   UNL     1      -2.203  12.749  22.540  0.00  0.00    +0.000 A 
BRANCH  11  14
ATOM     14  C   UNL     1      -1.148  15.534  24.944  0.00  0.00    +0.000 C 
ATOM     15  N   UNL     1      -2.289  16.172  25.538  0.00  0.00    +0.000 NA
ATOM     16  C   UNL     1      -1.754  17.475  25.967  0.00  0.00    +0.000 C 
ATOM     17  C   UNL     1      -0.274  17.244  26.244  0.00  0.00    +0.000 C 
ATOM     18  C   UNL     1       0.019  16.938  27.710  0.00  0.00    +0.000 C 
ATOM     19  N   UNL     1       0.081  16.148  25.334  0.00  0.00    +0.000 NA
ATOM     20  H   UNL     1      -2.526  15.646  26.380  0.00  0.00    +0.000 HD
ATOM     21  H   UNL     1       0.766  15.493  25.705  0.00  0.00    +0.000 HD
ENDBRANCH  11  14
ENDBRANCH   3   8
BRANCH   5  22
ATOM     22  C   UNL     1       0.998   9.310  19.090  0.00  0.00    +0.000 A 
ATOM     23  C   UNL     1       1.369   8.323  20.016  0.00  0.00    +0.000 A 
ATOM     24  C   UNL     1       2.342   7.348  19.709  0.00  0.00    +0.000 A 
ATOM     25  C   UNL     1       2.986   7.334  18.466  0.00  0.00    +0.000 A 
ATOM     26  C   UNL     1       2.653   8.363  17.567  0.00  0.00    +0.000 A 
ATOM     27  C   UNL     1       1.682   9.331  17.870  0.00  0.00    +0.000 A 
BRANCH  25  28
ATOM     28  C   UNL     1       3.901   6.238  18.060  0.00  0.00    +0.000 C 
ATOM     29  N   UNL     1       4.206   5.179  18.980  0.00  0.00    +0.000 NA
ATOM     30  C   UNL     1       5.671   5.096  18.879  0.00  0.00    +0.000 C 
ATOM     31  C   UNL     1       5.984   5.452  17.427  0.00  0.00    +0.000 C 
ATOM     32  C   UNL     1       6.042   4.215  16.535  0.00  0.00    +0.000 C 
ATOM     33  N   UNL     1       4.922   6.406  17.068  0.00  0.00    +0.000 NA
ATOM     34  H   UNL     1       3.839   4.319  18.573  0.00  0.00    +0.000 HD
ATOM     35  H   UNL     1       4.559   6.245  16.130  0.00  0.00    +0.000 HD
ENDBRANCH  25  28
ENDBRANCH   5  22
TORSDOF 4
ENDMDL
MODEL 9
REMARK VINA RESULT:      -7.9      1.264      1.985
REMARK  Name = 
REMARK  8 active torsions:
REMARK  status: ('A' for Active; 'I' for Inactive)
REMARK    1  A    between atoms: C_1  and  C_2
REMARK    2  A    between atoms: C_3  and  C_4
REMARK    3  A    between atoms: C_7  and  C_8
REMARK    4  A    between atoms: C_11  and  C_12
REMARK    5  A    between atoms: C_17  and  C_18
REMARK    6  A    between atoms: C_21  and  C_22
REMARK    7  A    between atoms: C_25  and  C_26
REMARK    8  A    between atoms: C_30  and  C_31
REMARK                            x       y       z     vdW  Elec       q    Type
REMARK                         _______ _______ _______ _____ _____    ______ ____
ROOT
ATOM      1  C   UNL     1       0.573  14.560  19.220  0.00  0.00    +0.000 C 
ATOM      2  C   UNL     1       0.342  13.098  19.388  0.00  0.00    +0.000 A 
ATOM      3  C   UNL     1      -0.670  12.441  20.079  0.00  0.00    +0.000 A 
ATOM      4  O   UNL     1      -0.409  11.089  20.074  0.00  0.00    +0.000 OA
ATOM      5  C   UNL     1       0.733  10.869  19.339  0.00  0.00    +0.000 A 
ATOM      6  C   UNL     1       1.221  12.079  18.872  0.00  0.00    +0.000 A 
ATOM      7  C   UNL     1       2.448  12.343  18.069  0.00  0.00    +0.000 C 
ENDROOT
BRANCH   3   8
ATOM      8  C   UNL     1      -1.876  12.881  20.809  0.00  0.00    +0.000 A 
ATOM      9  C   UNL     1      -3.155  12.755  20.245  0.00  0.00    +0.000 A 
ATOM     10  C   UNL     1      -4.300  13.276  20.878  0.00  0.00    +0.000 A 
ATOM     11  C   UNL     1      -4.218  13.944  22.109  0.00  0.00    +0.000 A 
ATOM     12  C   UNL     1      -2.951  14.013  22.705  0.00  0.00    +0.000 A 
ATOM     13  C   UNL     1      -1.802  13.490  22.068  0.00  0.00    +0.000 A 
BRANCH  11  14
ATOM     14  C   UNL     1      -5.407  14.621  22.682  0.00  0.00    +0.000 C 
ATOM     15  N   UNL     1      -5.830  14.392  24.035  0.00  0.00    +0.000 NA
ATOM     16  C   UNL     1      -7.300  14.402  23.928  0.00  0.00    +0.000 C 
ATOM     17  C   UNL     1      -7.622  15.304  22.744  0.00  0.00    +0.000 C 
ATOM     18  C   UNL     1      -7.906  16.746  23.153  0.00  0.00    +0.000 C 
ATOM     19  N   UNL     1      -6.450  15.161  21.871  0.00  0.00    +0.000 NA
ATOM     20  H   UNL     1      -5.557  15.210  24.581  0.00  0.00    +0.000 HD
ATOM     21  H   UNL     1      -6.186  16.009  21.374  0.00  0.00    +0.000 HD
ENDBRANCH  11  14
ENDBRANCH   3   8
BRANCH   5  22
ATOM     22  C   UNL     1       1.221   9.483  19.259  0.00  0.00    +0.000 A 
ATOM     23  C   UNL     1       1.829   8.983  18.097  0.00  0.00    +0.000 A 
ATOM     24  C   UNL     1       2.461   7.722  18.076  0.00  0.00    +0.000 A 
ATOM     25  C   UNL     1       2.496   6.910  19.216  0.00  0.00    +0.000 A 
ATOM     26  C   UNL     1       1.831   7.391  20.358  0.00  0.00    +0.000 A 
ATOM     27  C   UNL     1       1.206   8.648  20.381  0.00  0.00    +0.000 A 
BRANCH  25  28
ATOM     28  C   UNL     1       3.277   5.649  19.268  0.00  0.00    +0.000 C 
ATOM     29  N   UNL     1       4.543   5.560  18.595  0.00  0.00    +0.000 NA
ATOM     30  C   UNL     1       4.419   4.286  17.873  0.00  0.00    +0.000 C 
ATOM     31  C   UNL     1       3.559   3.404  18.778  0.00  0.00    +0.000 C 
ATOM     32  C   UNL     1       4.408   2.565  19.728  0.00  0.00    +0.000 C 
ATOM     33  N   UNL     1       2.669   4.364  19.450  0.00  0.00    +0.000 NA
ATOM     34  H   UNL     1       5.251   5.417  19.315  0.00  0.00    +0.000 HD
ATOM     35  H   UNL     1       2.543   4.149  20.438  0.00  0.00    +0.000 HD
ENDBRANCH  25  28
ENDBRANCH   5  22
TORSDOF 4
ENDMDL
