MODEL 1
REMARK VINA RESULT:      -4.3      0.000      0.000
REMARK  Name = 
REMARK  14 active torsions:
REMARK  status: ('A' for Active; 'I' for Inactive)
REMARK    1  A    between atoms: C_1  and  O_2
REMARK    2  A    between atoms: O_2  and  C_3
REMARK    3  A    between atoms: C_3  and  C_4
REMARK    4  A    between atoms: C_4  and  O_5
REMARK    5  A    between atoms: O_5  and  C_6
REMARK    6  A    between atoms: C_6  and  C_7
REMARK    7  A    between atoms: C_7  and  O_8
REMARK    8  A    between atoms: O_8  and  C_9
REMARK    9  A    between atoms: C_9  and  C_10
REMARK   10  A    between atoms: C_10  and  O_11
REMARK   11  A    between atoms: O_11  and  C_12
REMARK   12  A    between atoms: C_12  and  C_13
REMARK   13  A    between atoms: C_13  and  O_14
REMARK   14  A    between atoms: O_14  and  C_15
REMARK                            x       y       z     vdW  Elec       q    Type
REMARK                         _______ _______ _______ _____ _____    ______ ____
ROOT
ATOM      1  O   UNL     1       3.774   5.845  17.861  0.00  0.00    +0.000 OA
ENDROOT
BRANCH   1   2
ATOM      2  C   UNL     1       4.263   5.706  19.193  0.00  0.00    +0.000 C 
BRANCH   2   3
ATOM      3  C   UNL     1       5.546   4.885  19.166  0.00  0.00    +0.000 C 
BRANCH   3   4
ATOM      4  O   UNL     1       6.638   5.738  18.833  0.00  0.00    +0.000 OA
BRANCH   4   5
ATOM      5  C   UNL     1       7.634   5.034  18.092  0.00  0.00    +0.000 C 
BRANCH   5   6
ATOM      6  C   UNL     1       7.021   4.533  16.792  0.00  0.00    +0.000 C 
BRANCH   6   8
ATOM      7  C   UNL     1       6.924   4.937  14.478  0.00  0.00    +0.000 C 
ATOM      8  O   UNL     1       7.335   5.445  15.740  0.00  0.00    +0.000 OA
ENDBRANCH   6   8
ENDBRANCH   5   6
ENDBRANCH   4   5
ENDBRANCH   3   4
ENDBRANCH   2   3
ENDBRANCH   1   2
BRANCH   1   9
ATOM      9  C   UNL     1       3.340   4.593  17.336  0.00  0.00    +0.000 C 
BRANCH   9  10
ATOM     10  C   UNL     1       1.888   4.366  17.731  0.00  0.00    +0.000 C 
BRANCH  10  11
ATOM     11  O   UNL     1       1.589   2.975  17.629  0.00  0.00    +0.000 OA
BRANCH  11  12
ATOM     12  C   UNL     1       0.848   2.521  18.761  0.00  0.00    +0.000 C 
BRANCH  12  13
ATOM     13  C   UNL     1       1.820   2.144  19.871  0.00  0.00    +0.000 C 
BRANCH  13  14
ATOM     14  O   UNL     1       1.343   2.656  21.113  0.00  0.00    +0.000 OA
ATOM     15  C   UNL     1       2.166   3.714  21.586  0.00  0.00    +0.000 C 
ENDBRANCH  13  14
ENDBRANCH  12  13
ENDBRANCH  11  12
ENDBRANCH  10  11
ENDBRANCH   9  10
ENDBRANCH   1   9
TORSDOF 12
ENDMDL
MODEL 2
REMARK VINA RESULT:      -4.2      1.692      6.161
REMARK  Name = 
REMARK  14 active torsions:
REMARK  status: ('A' for Active; 'I' for Inactive)
REMARK    1  A    between atoms: C_1  and  O_2
REMARK    2  A    between atoms: O_2  and  C_3
REMARK    3  A    between atoms: C_3  and  C_4
REMARK    4  A    between atoms: C_4  and  O_5
REMARK    5  A    between atoms: O_5  and  C_6
REMARK    6  A    between atoms: C_6  and  C_7
REMARK    7  A    between atoms: C_7  and  O_8
REMARK    8  A    between atoms: O_8  and  C_9
REMARK    9  A    between atoms: C_9  and  C_10
REMARK   10  A    between atoms: C_10  and  O_11
REMARK   11  A    between atoms: O_11  and  C_12
REMARK   12  A    between atoms: C_12  and  C_13
REMARK   13  A    between atoms: C_13  and  O_14
REMARK   14  A    between atoms: O_14  and  C_15
REMARK                            x       y       z     vdW  Elec       q    Type
REMARK                         _______ _______ _______ _____ _____    ______ ____
ROOT
ATOM      1  O   UNL     1       3.688   2.560  18.604  0.00  0.00    +0.000 OA
ENDROOT
BRANCH   1   2
ATOM      2  C   UNL     1       2.512   2.332  17.832  0.00  0.00    +0.000 C 
BRANCH   2   3
ATOM      3  C   UNL     1       1.298   2.385  18.749  0.00  0.00    +0.000 C 
BRANCH   3   4
ATOM      4  O   UNL     1       1.117   3.722  19.208  0.00  0.00    +0.000 OA
BRANCH   4   5
ATOM      5  C   UNL     1       1.176   3.792  20.632  0.00  0.00    +0.000 C 
BRANCH   5   6
ATOM      6  C   UNL     1       2.070   4.958  21.032  0.00  0.00    +0.000 C 
BRANCH   6   8
ATOM      7  C   UNL     1       2.323   6.946  19.805  0.00  0.00    +0.000 C 
ATOM      8  O   UNL     1       1.457   6.182  20.633  0.00  0.00    +0.000 OA
ENDBRANCH   6   8
ENDBRANCH   5   6
ENDBRANCH   4   5
ENDBRANCH   3   4
ENDBRANCH   2   3
ENDBRANCH   1   2
BRANCH   1   9
ATOM      9  C   UNL     1       4.547   3.505  17.971  0.00  0.00    +0.000 C 
BRANCH   9  10
ATOM     10  C   UNL     1       5.035   4.506  19.009  0.00  0.00    +0.000 C 
BRANCH  10  11
ATOM     11  O   UNL     1       6.458   4.576  18.957  0.00  0.00    +0.000 OA
BRANCH  11  12
ATOM     12  C   UNL     1       6.929   4.537  17.611  0.00  0.00    +0.000 C 
BRANCH  12  13
ATOM     13  C   UNL     1       7.303   5.947  17.175  0.00  0.00    +0.000 C 
BRANCH  13  14
ATOM     14  O   UNL     1       7.365   6.003  15.752  0.00  0.00    +0.000 OA
ATOM     15  C   UNL     1       6.878   4.803  15.166  0.00  0.00    +0.000 C 
ENDBRANCH  13  14
ENDBRANCH  12  13
ENDBRANCH  11  12
ENDBRANCH  10  11
ENDBRANCH   9  10
ENDBRANCH   1   9
TORSDOF 12
ENDMDL
MODEL 3
REMARK VINA RESULT:      -4.2      1.352      5.686
REMARK  Name = 
REMARK  14 active torsions:
REMARK  status: ('A' for Active; 'I' for Inactive)
REMARK    1  A    between atoms: C_1  and  O_2
REMARK    2  A    between atoms: O_2  and  C_3
REMARK    3  A    between atoms: C_3  and  C_4
REMARK    4  A    between atoms: C_4  and  O_5
REMARK    5  A    between atoms: O_5  and  C_6
REMARK    6  A    between atoms: C_6  and  C_7
REMARK    7  A    between atoms: C_7  and  O_8
REMARK    8  A    between atoms: O_8  and  C_9
REMARK    9  A    between atoms: C_9  and  C_10
REMARK   10  A    between atoms: C_10  and  O_11
REMARK   11  A    between atoms: O_11  and  C_12
REMARK   12  A    between atoms: C_12  and  C_13
REMARK   13  A    between atoms: C_13  and  O_14
REMARK   14  A    between atoms: O_14  and  C_15
REMARK                            x       y       z     vdW  Elec       q    Type
REMARK                         _______ _______ _______ _____ _____    ______ ____
ROOT
ATOM      1  O   UNL     1       3.167   5.758  19.911  0.00  0.00    +0.000 OA
ENDROOT
BRANCH   1   2
ATOM      2  C   UNL     1       1.938   5.367  20.518  0.00  0.00    +0.000 C 
BRANCH   2   3
ATOM      3  C   UNL     1       2.140   4.040  21.237  0.00  0.00    +0.000 C 
BRANCH   3   4
ATOM      4  O   UNL     1       1.074   3.158  20.895  0.00  0.00    +0.000 OA
BRANCH   4   5
ATOM      5  C   UNL     1       0.691   3.316  19.530  0.00  0.00    +0.000 C 
BRANCH   5   6
ATOM      6  C   UNL     1       1.266   2.162  18.719  0.00  0.00    +0.000 C 
BRANCH   6   8
ATOM      7  C   UNL     1       3.504   1.936  18.037  0.00  0.00    +0.000 C 
ATOM      8  O   UNL     1       2.292   2.655  17.859  0.00  0.00    +0.000 OA
ENDBRANCH   6   8
ENDBRANCH   5   6
ENDBRANCH   4   5
ENDBRANCH   3   4
ENDBRANCH   2   3
ENDBRANCH   1   2
BRANCH   1   9
ATOM      9  C   UNL     1       2.954   6.277  18.601  0.00  0.00    +0.000 C 
BRANCH   9  10
ATOM     10  C   UNL     1       4.035   5.740  17.673  0.00  0.00    +0.000 C 
BRANCH  10  11
ATOM     11  O   UNL     1       5.179   5.386  18.446  0.00  0.00    +0.000 OA
BRANCH  11  12
ATOM     12  C   UNL     1       6.103   4.614  17.679  0.00  0.00    +0.000 C 
BRANCH  12  13
ATOM     13  C   UNL     1       7.377   5.423  17.477  0.00  0.00    +0.000 C 
BRANCH  13  14
ATOM     14  O   UNL     1       7.439   5.882  16.129  0.00  0.00    +0.000 OA
ATOM     15  C   UNL     1       6.927   4.909  15.228  0.00  0.00    +0.000 C 
ENDBRANCH  13  14
ENDBRANCH  12  13
ENDBRANCH  11  12
ENDBRANCH  10  11
ENDBRANCH   9  10
ENDBRANCH   1   9
TORSDOF 12
ENDMDL
MODEL 4
REMARK VINA RESULT:      -4.2      1.464      3.213
REMARK  Name = 
REMARK  14 active torsions:
REMARK  status: ('A' for Active; 'I' for Inactive)
REMARK    1  A    between atoms: C_1  and  O_2
REMARK    2  A    between atoms: O_2  and  C_3
REMARK    3  A    between atoms: C_3  and  C_4
REMARK    4  A    between atoms: C_4  and  O_5
REMARK    5  A    between atoms: O_5  and  C_6
REMARK    6  A    between atoms: C_6  and  C_7
REMARK    7  A    between atoms: C_7  and  O_8
REMARK    8  A    between atoms: O_8  and  C_9
REMARK    9  A    between atoms: C_9  and  C_10
REMARK   10  A    between atoms: C_10  and  O_11
REMARK   11  A    between atoms: O_11  and  C_12
REMARK   12  A    between atoms: C_12  and  C_13
REMARK   13  A    between atoms: C_13  and  O_14
REMARK   14  A    between atoms: O_14  and  C_15
REMARK                            x       y       z     vdW  Elec       q    Type
REMARK                         _______ _______ _______ _____ _____    ______ ____
ROOT
ATOM      1  O   UNL     1       6.209   5.806  18.101  0.00  0.00    +0.000 OA
ENDROOT
BRANCH   1   2
ATOM      2  C   UNL     1       7.387   5.049  17.837  0.00  0.00    +0.000 C 
BRANCH   2   3
ATOM      3  C   UNL     1       7.282   4.439  16.446  0.00  0.00    +0.000 C 
BRANCH   3   4
ATOM      4  O   UNL     1       7.486   5.460  15.473  0.00  0.00    +0.000 OA
BRANCH   4   5
ATOM      5  C   UNL     1       7.086   5.022  14.174  0.00  0.00    +0.000 C 
BRANCH   5   6
ATOM      6  C   UNL     1       5.811   4.201  14.300  0.00  0.00    +0.000 C 
BRANCH   6   8
ATOM      7  C   UNL     1       6.621   3.564  12.187  0.00  0.00    +0.000 C 
ATOM      8  O   UNL     1       5.478   3.648  13.028  0.00  0.00    +0.000 OA
ENDBRANCH   6   8
ENDBRANCH   5   6
ENDBRANCH   4   5
ENDBRANCH   3   4
ENDBRANCH   2   3
ENDBRANCH   1   2
BRANCH   1   9
ATOM      9  C   UNL     1       5.559   5.354  19.287  0.00  0.00    +0.000 C 
BRANCH   9  10
ATOM     10  C   UNL     1       4.910   4.004  19.012  0.00  0.00    +0.000 C 
BRANCH  10  11
ATOM     11  O   UNL     1       3.954   4.150  17.966  0.00  0.00    +0.000 OA
BRANCH  11  12
ATOM     12  C   UNL     1       2.833   4.924  18.393  0.00  0.00    +0.000 C 
BRANCH  12  13
ATOM     13  C   UNL     1       1.580   4.408  17.699  0.00  0.00    +0.000 C 
BRANCH  13  14
ATOM     14  O   UNL     1       1.590   2.983  17.698  0.00  0.00    +0.000 OA
ATOM     15  C   UNL     1       0.939   2.461  18.849  0.00  0.00    +0.000 C 
ENDBRANCH  13  14
ENDBRANCH  12  13
ENDBRANCH  11  12
ENDBRANCH  10  11
ENDBRANCH   9  10
ENDBRANCH   1   9
TORSDOF 12
ENDMDL
MODEL 5
REMARK VINA RESULT:      -4.1      1.192      1.280
REMARK  Name = 
REMARK  14 active torsions:
REMARK  status: ('A' for Active; 'I' for Inactive)
REMARK    1  A    between atoms: C_1  and  O_2
REMARK    2  A    between atoms: O_2  and  C_3
REMARK    3  A    between atoms: C_3  and  C_4
REMARK    4  A    between atoms: C_4  and  O_5
REMARK    5  A    between atoms: O_5  and  C_6
REMARK    6  A    between atoms: C_6  and  C_7
REMARK    7  A    between atoms: C_7  and  O_8
REMARK    8  A    between atoms: O_8  and  C_9
REMARK    9  A    between atoms: C_9  and  C_10
REMARK   10  A    between atoms: C_10  and  O_11
REMARK   11  A    between atoms: O_11  and  C_12
REMARK   12  A    between atoms: C_12  and  C_13
REMARK   13  A    between atoms: C_13  and  O_14
REMARK   14  A    between atoms: O_14  and  C_15
REMARK                            x       y       z     vdW  Elec       q    Type
REMARK                         _______ _______ _______ _____ _____    ______ ____
ROOT
ATOM      1  O   UNL     1       4.005   4.568  17.011  0.00  0.00    +0.000 OA
ENDROOT
BRANCH   1   2
ATOM      2  C   UNL     1       4.770   3.659  17.799  0.00  0.00    +0.000 C 
BRANCH   2   3
ATOM      3  C   UNL     1       5.461   4.430  18.915  0.00  0.00    +0.000 C 
BRANCH   3   4
ATOM      4  O   UNL     1       6.862   4.469  18.657  0.00  0.00    +0.000 OA
BRANCH   4   5
ATOM      5  C   UNL     1       7.306   5.804  18.418  0.00  0.00    +0.000 C 
BRANCH   5   6
ATOM      6  C   UNL     1       7.194   6.102  16.929  0.00  0.00    +0.000 C 
BRANCH   6   8
ATOM      7  C   UNL     1       6.946   4.842  14.960  0.00  0.00    +0.000 C 
ATOM      8  O   UNL     1       7.653   4.974  16.186  0.00  0.00    +0.000 OA
ENDBRANCH   6   8
ENDBRANCH   5   6
ENDBRANCH   4   5
ENDBRANCH   3   4
ENDBRANCH   2   3
ENDBRANCH   1   2
BRANCH   1   9
ATOM      9  C   UNL     1       3.366   5.547  17.827  0.00  0.00    +0.000 C 
BRANCH   9  10
ATOM     10  C   UNL     1       1.876   5.242  17.893  0.00  0.00    +0.000 C 
BRANCH  10  11
ATOM     11  O   UNL     1       1.617   4.423  19.031  0.00  0.00    +0.000 OA
BRANCH  11  12
ATOM     12  C   UNL     1       1.148   3.132  18.642  0.00  0.00    +0.000 C 
BRANCH  12  13
ATOM     13  C   UNL     1       1.853   2.074  19.480  0.00  0.00    +0.000 C 
BRANCH  13  14
ATOM     14  O   UNL     1       2.501   2.700  20.586  0.00  0.00    +0.000 OA
ATOM     15  C   UNL     1       1.715   2.606  21.766  0.00  0.00    +0.000 C 
ENDBRANCH  13  14
ENDBRANCH  12  13
ENDBRANCH  11  12
ENDBRANCH  10  11
ENDBRANCH   9  10
ENDBRANCH   1   9
TORSDOF 12
ENDMDL
MODEL 6
REMARK VINA RESULT:      -4.1      1.318      1.493
REMARK  Name = 
REMARK  14 active torsions:
REMARK  status: ('A' for Active; 'I' for Inactive)
REMARK    1  A    between atoms: C_1  and  O_2
REMARK    2  A    between atoms: O_2  and  C_3
REMARK    3  A    between atoms: C_3  and  C_4
REMARK    4  A    between atoms: C_4  and  O_5
REMARK    5  A    between atoms: O_5  and  C_6
REMARK    6  A    between atoms: C_6  and  C_7
REMARK    7  A    between atoms: C_7  and  O_8
REMARK    8  A    between atoms: O_8  and  C_9
REMARK    9  A    between atoms: C_9  and  C_10
REMARK   10  A    between atoms: C_10  and  O_11
REMARK   11  A    between atoms: O_11  and  C_12
REMARK   12  A    between atoms: C_12  and  C_13
REMARK   13  A    between atoms: C_13  and  O_14
REMARK   14  A    between atoms: O_14  and  C_15
REMARK                            x       y       z     vdW  Elec       q    Type
REMARK                         _______ _______ _______ _____ _____    ______ ____
ROOT
ATOM      1  O   UNL     1       4.440   4.921  18.942  0.00  0.00    +0.000 OA
ENDROOT
BRANCH   1   2
ATOM      2  C   UNL     1       3.861   5.732  17.923  0.00  0.00    +0.000 C 
BRANCH   2   3
ATOM      3  C   UNL     1       4.909   6.713  17.415  0.00  0.00    +0.000 C 
BRANCH   3   4
ATOM      4  O   UNL     1       6.159   6.424  18.037  0.00  0.00    +0.000 OA
BRANCH   4   5
ATOM      5  C   UNL     1       7.188   6.240  17.066  0.00  0.00    +0.000 C 
BRANCH   5   6
ATOM      6  C   UNL     1       7.262   4.765  16.697  0.00  0.00    +0.000 C 
BRANCH   6   8
ATOM      7  C   UNL     1       6.371   4.721  14.522  0.00  0.00    +0.000 C 
ATOM      8  O   UNL     1       7.553   4.641  15.306  0.00  0.00    +0.000 OA
ENDBRANCH   6   8
ENDBRANCH   5   6
ENDBRANCH   4   5
ENDBRANCH   3   4
ENDBRANCH   2   3
ENDBRANCH   1   2
BRANCH   1   9
ATOM      9  C   UNL     1       4.265   3.535  18.661  0.00  0.00    +0.000 C 
BRANCH   9  10
ATOM     10  C   UNL     1       3.724   3.381  17.246  0.00  0.00    +0.000 C 
BRANCH  10  11
ATOM     11  O   UNL     1       2.504   2.644  17.291  0.00  0.00    +0.000 OA
BRANCH  11  12
ATOM     12  C   UNL     1       2.236   2.167  18.609  0.00  0.00    +0.000 C 
BRANCH  12  13
ATOM     13  C   UNL     1       0.808   2.534  18.990  0.00  0.00    +0.000 C 
BRANCH  13  14
ATOM     14  O   UNL     1       0.774   2.959  20.350  0.00  0.00    +0.000 OA
ATOM     15  C   UNL     1       1.160   4.322  20.476  0.00  0.00    +0.000 C 
ENDBRANCH  13  14
ENDBRANCH  12  13
ENDBRANCH  11  12
ENDBRANCH  10  11
ENDBRANCH   9  10
ENDBRANCH   1   9
TORSDOF 12
ENDMDL
MODEL 7
REMARK VINA RESULT:      -4.1      1.291      6.252
REMARK  Name = 
REMARK  14 active torsions:
REMARK  status: ('A' for Active; 'I' for Inactive)
REMARK    1  A    between atoms: C_1  and  O_2
REMARK    2  A    between atoms: O_2  and  C_3
REMARK    3  A    between atoms: C_3  and  C_4
REMARK    4  A    between atoms: C_4  and  O_5
REMARK    5  A    between atoms: O_5  and  C_6
REMARK    6  A    between atoms: C_6  and  C_7
REMARK    7  A    between atoms: C_7  and  O_8
REMARK    8  A    between atoms: O_8  and  C_9
REMARK    9  A    between atoms: C_9  and  C_10
REMARK   10  A    between atoms: C_10  and  O_11
REMARK   11  A    between atoms: O_11  and  C_12
REMARK   12  A    between atoms: C_12  and  C_13
REMARK   13  A    between atoms: C_13  and  O_14
REMARK   14  A    between atoms: O_14  and  C_15
REMARK                            x       y       z     vdW  Elec       q    Type
REMARK                         _______ _______ _______ _____ _____    ______ ____
ROOT
ATOM      1  O   UNL     1       4.194   4.699  18.346  0.00  0.00    +0.000 OA
ENDROOT
BRANCH   1   2
ATOM      2  C   UNL     1       3.919   3.442  17.732  0.00  0.00    +0.000 C 
BRANCH   2   3
ATOM      3  C   UNL     1       2.443   3.384  17.362  0.00  0.00    +0.000 C 
BRANCH   3   4
ATOM      4  O   UNL     1       1.886   2.168  17.856  0.00  0.00    +0.000 OA
BRANCH   4   5
ATOM      5  C   UNL     1       0.728   2.417  18.652  0.00  0.00    +0.000 C 
BRANCH   5   6
ATOM      6  C   UNL     1       1.063   3.475  19.694  0.00  0.00    +0.000 C 
BRANCH   6   8
ATOM      7  C   UNL     1       2.252   3.231  21.708  0.00  0.00    +0.000 C 
ATOM      8  O   UNL     1       1.080   2.874  20.988  0.00  0.00    +0.000 OA
ENDBRANCH   6   8
ENDBRANCH   5   6
ENDBRANCH   4   5
ENDBRANCH   3   4
ENDBRANCH   2   3
ENDBRANCH   1   2
BRANCH   1   9
ATOM      9  C   UNL     1       3.462   5.750  17.722  0.00  0.00    +0.000 C 
BRANCH   9  10
ATOM     10  C   UNL     1       4.440   6.788  17.190  0.00  0.00    +0.000 C 
BRANCH  10  11
ATOM     11  O   UNL     1       5.664   6.690  17.914  0.00  0.00    +0.000 OA
BRANCH  11  12
ATOM     12  C   UNL     1       6.766   6.455  17.038  0.00  0.00    +0.000 C 
BRANCH  12  13
ATOM     13  C   UNL     1       7.558   5.257  17.545  0.00  0.00    +0.000 C 
BRANCH  13  14
ATOM     14  O   UNL     1       7.832   4.377  16.458  0.00  0.00    +0.000 OA
ATOM     15  C   UNL     1       6.973   4.633  15.355  0.00  0.00    +0.000 C 
ENDBRANCH  13  14
ENDBRANCH  12  13
ENDBRANCH  11  12
ENDBRANCH  10  11
ENDBRANCH   9  10
ENDBRANCH   1   9
TORSDOF 12
ENDMDL
MODEL 8
REMARK VINA RESULT:      -4.1      1.302      6.247
REMARK  Name = 
REMARK  14 active torsions:
REMARK  status: ('A' for Active; 'I' for Inactive)
REMARK    1  A    between atoms: C_1  and  O_2
REMARK    2  A    between atoms: O_2  and  C_3
REMARK    3  A    between atoms: C_3  and  C_4
REMARK    4  A    between atoms: C_4  and  O_5
REMARK    5  A    between atoms: O_5  and  C_6
REMARK    6  A    between atoms: C_6  and  C_7
REMARK    7  A    between atoms: C_7  and  O_8
REMARK    8  A    between atoms: O_8  and  C_9
REMARK    9  A    between atoms: C_9  and  C_10
REMARK   10  A    between atoms: C_10  and  O_11
REMARK   11  A    between atoms: O_11  and  C_12
REMARK   12  A    between atoms: C_12  and  C_13
REMARK   13  A    between atoms: C_13  and  O_14
REMARK   14  A    between atoms: O_14  and  C_15
REMARK                            x       y       z     vdW  Elec       q    Type
REMARK                         _______ _______ _______ _____ _____    ______ ____
ROOT
ATOM      1  O   UNL     1       4.576   3.463  18.152  0.00  0.00    +0.000 OA
ENDROOT
BRANCH   1   2
ATOM      2  C   UNL     1       3.459   3.199  17.307  0.00  0.00    +0.000 C 
BRANCH   2   3
ATOM      3  C   UNL     1       2.356   4.203  17.613  0.00  0.00    +0.000 C 
BRANCH   3   4
ATOM      4  O   UNL     1       1.146   3.498  17.881  0.00  0.00    +0.000 OA
BRANCH   4   5
ATOM      5  C   UNL     1       0.831   3.524  19.273  0.00  0.00    +0.000 C 
BRANCH   5   6
ATOM      6  C   UNL     1       1.409   2.280  19.934  0.00  0.00    +0.000 C 
BRANCH   6   8
ATOM      7  C   UNL     1       2.246   3.508  21.755  0.00  0.00    +0.000 C 
ATOM      8  O   UNL     1       1.392   2.447  21.350  0.00  0.00    +0.000 OA
ENDBRANCH   6   8
ENDBRANCH   5   6
ENDBRANCH   4   5
ENDBRANCH   3   4
ENDBRANCH   2   3
ENDBRANCH   1   2
BRANCH   1   9
ATOM      9  C   UNL     1       4.329   4.584  18.998  0.00  0.00    +0.000 C 
BRANCH   9  10
ATOM     10  C   UNL     1       5.651   5.275  19.303  0.00  0.00    +0.000 C 
BRANCH  10  11
ATOM     11  O   UNL     1       6.720   4.489  18.782  0.00  0.00    +0.000 OA
BRANCH  11  12
ATOM     12  C   UNL     1       7.569   5.265  17.937  0.00  0.00    +0.000 C 
BRANCH  12  13
ATOM     13  C   UNL     1       6.811   6.502  17.473  0.00  0.00    +0.000 C 
BRANCH  13  14
ATOM     14  O   UNL     1       6.567   6.411  16.072  0.00  0.00    +0.000 OA
ATOM     15  C   UNL     1       5.177   6.312  15.794  0.00  0.00    +0.000 C 
ENDBRANCH  13  14
ENDBRANCH  12  13
ENDBRANCH  11  12
ENDBRANCH  10  11
ENDBRANCH   9  10
ENDBRANCH   1   9
TORSDOF 12
ENDMDL
MODEL 9
REMARK VINA RESULT:      -4.1      1.750      2.592
REMARK  Name = 
REMARK  14 active torsions:
REMARK  status: ('A' for Active; 'I' for Inactive)
REMARK    1  A    between atoms: C_1  and  O_2
REMARK    2  A    between atoms: O_2  and  C_3
REMARK    3  A    between atoms: C_3  and  C_4
REMARK    4  A    between atoms: C_4  and  O_5
REMARK    5  A    between atoms: O_5  and  C_6
REMARK    6  A    between atoms: C_6  and  C_7
REMARK    7  A    between atoms: C_7  and  O_8
REMARK    8  A    between atoms: O_8  and  C_9
REMARK    9  A    between atoms: C_9  and  C_10
REMARK   10  A    between atoms: C_10  and  O_11
REMARK   11  A    between atoms: O_11  and  C_12
REMARK   12  A    between atoms: C_12  and  C_13
REMARK   13  A    between atoms: C_13  and  O_14
REMARK   14  A    between atoms: O_14  and  C_15
REMARK                            x       y       z     vdW  Elec       q    Type
REMARK                         _______ _______ _______ _____ _____    ______ ____
ROOT
ATOM      1  O   UNL     1       2.678   6.686  19.297  0.00  0.00    +0.000 OA
ENDROOT
BRANCH   1   2
ATOM      2  C   UNL     1       3.119   6.935  17.964  0.00  0.00    +0.000 C 
BRANCH   2   3
ATOM      3  C   UNL     1       4.511   6.345  17.784  0.00  0.00    +0.000 C 
BRANCH   3   4
ATOM      4  O   UNL     1       4.616   5.789  16.477  0.00  0.00    +0.000 OA
BRANCH   4   5
ATOM      5  C   UNL     1       5.971   5.779  16.027  0.00  0.00    +0.000 C 
BRANCH   5   6
ATOM      6  C   UNL     1       6.522   4.365  16.151  0.00  0.00    +0.000 C 
BRANCH   6   8
ATOM      7  C   UNL     1       7.837   4.661  18.077  0.00  0.00    +0.000 C 
ATOM      8  O   UNL     1       7.847   4.419  16.676  0.00  0.00    +0.000 OA
ENDBRANCH   6   8
ENDBRANCH   5   6
ENDBRANCH   4   5
ENDBRANCH   3   4
ENDBRANCH   2   3
ENDBRANCH   1   2
BRANCH   1   9
ATOM      9  C   UNL     1       3.170   5.438  19.779  0.00  0.00    +0.000 C 
BRANCH   9  10
ATOM     10  C   UNL     1       2.191   4.880  20.802  0.00  0.00    +0.000 C 
BRANCH  10  11
ATOM     11  O   UNL     1       1.069   4.326  20.120  0.00  0.00    +0.000 OA
BRANCH  11  12
ATOM     12  C   UNL     1       1.025   2.906  20.264  0.00  0.00    +0.000 C 
BRANCH  12  13
ATOM     13  C   UNL     1       1.343   2.261  18.922  0.00  0.00    +0.000 C 
BRANCH  13  14
ATOM     14  O   UNL     1       2.693   1.801  18.926  0.00  0.00    +0.000 OA
ATOM     15  C   UNL     1       3.418   2.317  17.818  0.00  0.00    +0.000 C 
ENDBRANCH  13  14
ENDBRANCH  12  13
ENDBRANCH  11  12
ENDBRANCH  10  11
ENDBRANCH   9  10
ENDBRANCH   1   9
TORSDOF 12
ENDMDL
