MODEL 1
REMARK VINA RESULT:      -5.1      0.000      0.000
REMARK  Name = 
REMARK  6 active torsions:
REMARK  status: ('A' for Active; 'I' for Inactive)
REMARK    1  A    between atoms: S_1  and  C_2
REMARK    2  A    between atoms: C_5  and  N_6
REMARK    3  A    between atoms: N_6  and  C_7
REMARK    4  A    between atoms: N_6  and  C_10
REMARK    5  A    between atoms: C_7  and  C_8
REMARK    6  A    between atoms: C_10  and  C_11
REMARK                            x       y       z     vdW  Elec       q    Type
REMARK                         _______ _______ _______ _____ _____    ______ ____
ROOT
ATOM      1  C   UNL     1       2.459   4.105  19.298  0.00  0.00    +0.000 A 
ATOM      2  C   UNL     1       3.614   4.691  19.809  0.00  0.00    +0.000 A 
ATOM      3  C   UNL     1       4.738   4.887  18.990  0.00  0.00    +0.000 A 
ATOM      4  C   UNL     1       4.741   4.517  17.637  0.00  0.00    +0.000 A 
ATOM      5  C   UNL     1       3.575   3.898  17.158  0.00  0.00    +0.000 A 
ATOM      6  C   UNL     1       2.449   3.699  17.968  0.00  0.00    +0.000 A 
ENDROOT
BRANCH   1   7
ATOM      7  S   UNL     1       1.018   3.849  20.307  0.00  0.00    +0.000 S 
ATOM      8  H   UNL     1       0.314   3.129  19.423  0.00  0.00    +0.000 HD
ENDBRANCH   1   7
BRANCH   4   9
ATOM      9  N   UNL     1       5.825   4.749  16.794  0.00  0.00    +0.000 N 
BRANCH   9  10
ATOM     10  C   UNL     1       6.160   3.849  15.675  0.00  0.00    +0.000 C 
BRANCH  10  11
ATOM     11  C   UNL     1       6.597   4.589  14.413  0.00  0.00    +0.000 C 
ATOM     12 BR   UNL     1       6.112   3.604  12.799  0.00  0.00    +0.000 Br
ENDBRANCH  10  11
ENDBRANCH   9  10
BRANCH   9  13
ATOM     13  C   UNL     1       6.895   5.667  17.249  0.00  0.00    +0.000 C 
BRANCH  13  14
ATOM     14  C   UNL     1       6.535   7.145  17.120  0.00  0.00    +0.000 C 
ATOM     15 BR   UNL     1       7.955   8.305  17.784  0.00  0.00    +0.000 Br
ENDBRANCH  13  14
ENDBRANCH   9  13
ENDBRANCH   4   9
TORSDOF 6
ENDMDL
MODEL 2
REMARK VINA RESULT:      -5.0      3.557      4.188
REMARK  Name = 
REMARK  6 active torsions:
REMARK  status: ('A' for Active; 'I' for Inactive)
REMARK    1  A    between atoms: S_1  and  C_2
REMARK    2  A    between atoms: C_5  and  N_6
REMARK    3  A    between atoms: N_6  and  C_7
REMARK    4  A    between atoms: N_6  and  C_10
REMARK    5  A    between atoms: C_7  and  C_8
REMARK    6  A    between atoms: C_10  and  C_11
REMARK                            x       y       z     vdW  Elec       q    Type
REMARK                         _______ _______ _______ _____ _____    ______ ____
ROOT
ATOM      1  C   UNL     1       1.780   8.266  19.436  0.00  0.00    +0.000 A 
ATOM      2  C   UNL     1       1.832   7.171  20.295  0.00  0.00    +0.000 A 
ATOM      3  C   UNL     1       2.491   5.992  19.909  0.00  0.00    +0.000 A 
ATOM      4  C   UNL     1       3.127   5.873  18.665  0.00  0.00    +0.000 A 
ATOM      5  C   UNL     1       3.031   6.981  17.808  0.00  0.00    +0.000 A 
ATOM      6  C   UNL     1       2.375   8.161  18.184  0.00  0.00    +0.000 A 
ENDROOT
BRANCH   1   7
ATOM      7  S   UNL     1       0.959   9.774  19.896  0.00  0.00    +0.000 S 
ATOM      8  H   UNL     1       2.037  10.570  19.880  0.00  0.00    +0.000 HD
ENDBRANCH   1   7
BRANCH   4   9
ATOM      9  N   UNL     1       3.831   4.733  18.283  0.00  0.00    +0.000 N 
BRANCH   9  10
ATOM     10  C   UNL     1       3.282   3.748  17.334  0.00  0.00    +0.000 C 
BRANCH  10  11
ATOM     11  C   UNL     1       2.872   2.434  17.993  0.00  0.00    +0.000 C 
ATOM     12 BR   UNL     1       1.088   2.550  18.778  0.00  0.00    +0.000 Br
ENDBRANCH  10  11
ENDBRANCH   9  10
BRANCH   9  13
ATOM     13  C   UNL     1       4.961   4.281  19.128  0.00  0.00    +0.000 C 
BRANCH  13  14
ATOM     14  C   UNL     1       6.155   5.234  19.123  0.00  0.00    +0.000 C 
ATOM     15 BR   UNL     1       7.407   4.830  17.683  0.00  0.00    +0.000 Br
ENDBRANCH  13  14
ENDBRANCH   9  13
ENDBRANCH   4   9
TORSDOF 6
ENDMDL
MODEL 3
REMARK VINA RESULT:      -5.0      0.930      1.082
REMARK  Name = 
REMARK  6 active torsions:
REMARK  status: ('A' for Active; 'I' for Inactive)
REMARK    1  A    between atoms: S_1  and  C_2
REMARK    2  A    between atoms: C_5  and  N_6
REMARK    3  A    between atoms: N_6  and  C_7
REMARK    4  A    between atoms: N_6  and  C_10
REMARK    5  A    between atoms: C_7  and  C_8
REMARK    6  A    between atoms: C_10  and  C_11
REMARK                            x       y       z     vdW  Elec       q    Type
REMARK                         _______ _______ _______ _____ _____    ______ ____
ROOT
ATOM      1  C   UNL     1       2.552   3.812  19.612  0.00  0.00    +0.000 A 
ATOM      2  C   UNL     1       3.625   2.990  19.278  0.00  0.00    +0.000 A 
ATOM      3  C   UNL     1       4.486   3.334  18.222  0.00  0.00    +0.000 A 
ATOM      4  C   UNL     1       4.311   4.509  17.477  0.00  0.00    +0.000 A 
ATOM      5  C   UNL     1       3.202   5.301  17.815  0.00  0.00    +0.000 A 
ATOM      6  C   UNL     1       2.338   4.967  18.867  0.00  0.00    +0.000 A 
ENDROOT
BRANCH   1   7
ATOM      7  S   UNL     1       1.448   3.410  20.946  0.00  0.00    +0.000 S 
ATOM      8  H   UNL     1       0.557   2.712  20.229  0.00  0.00    +0.000 HD
ENDBRANCH   1   7
BRANCH   4   9
ATOM      9  N   UNL     1       5.182   4.895  16.461  0.00  0.00    +0.000 N 
BRANCH   9  10
ATOM     10  C   UNL     1       5.775   3.928  15.520  0.00  0.00    +0.000 C 
BRANCH  10  11
ATOM     11  C   UNL     1       6.402   4.583  14.293  0.00  0.00    +0.000 C 
ATOM     12 BR   UNL     1       6.113   3.518  12.683  0.00  0.00    +0.000 Br
ENDBRANCH  10  11
ENDBRANCH   9  10
BRANCH   9  13
ATOM     13  C   UNL     1       5.846   6.216  16.560  0.00  0.00    +0.000 C 
BRANCH  13  14
ATOM     14  C   UNL     1       6.978   6.261  17.585  0.00  0.00    +0.000 C 
ATOM     15 BR   UNL     1       7.805   8.024  17.684  0.00  0.00    +0.000 Br
ENDBRANCH  13  14
ENDBRANCH   9  13
ENDBRANCH   4   9
TORSDOF 6
ENDMDL
MODEL 4
REMARK VINA RESULT:      -5.0      1.189      3.162
REMARK  Name = 
REMARK  6 active torsions:
REMARK  status: ('A' for Active; 'I' for Inactive)
REMARK    1  A    between atoms: S_1  and  C_2
REMARK    2  A    between atoms: C_5  and  N_6
REMARK    3  A    between atoms: N_6  and  C_7
REMARK    4  A    between atoms: N_6  and  C_10
REMARK    5  A    between atoms: C_7  and  C_8
REMARK    6  A    between atoms: C_10  and  C_11
REMARK                            x       y       z     vdW  Elec       q    Type
REMARK                         _______ _______ _______ _____ _____    ______ ____
ROOT
ATOM      1  C   UNL     1       2.461   3.622  19.559  0.00  0.00    +0.000 A 
ATOM      2  C   UNL     1       3.641   2.921  19.322  0.00  0.00    +0.000 A 
ATOM      3  C   UNL     1       4.521   3.328  18.306  0.00  0.00    +0.000 A 
ATOM      4  C   UNL     1       4.259   4.450  17.506  0.00  0.00    +0.000 A 
ATOM      5  C   UNL     1       3.047   5.118  17.747  0.00  0.00    +0.000 A 
ATOM      6  C   UNL     1       2.163   4.718  18.758  0.00  0.00    +0.000 A 
ENDROOT
BRANCH   1   7
ATOM      7  S   UNL     1       1.329   3.136  20.841  0.00  0.00    +0.000 S 
ATOM      8  H   UNL     1       2.060   2.135  21.349  0.00  0.00    +0.000 HD
ENDBRANCH   1   7
BRANCH   4   9
ATOM      9  N   UNL     1       5.142   4.902  16.529  0.00  0.00    +0.000 N 
BRANCH   9  10
ATOM     10  C   UNL     1       5.332   6.335  16.239  0.00  0.00    +0.000 C 
BRANCH  10  11
ATOM     11  C   UNL     1       6.245   7.040  17.239  0.00  0.00    +0.000 C 
ATOM     12 BR   UNL     1       7.426   5.778  18.146  0.00  0.00    +0.000 Br
ENDBRANCH  10  11
ENDBRANCH   9  10
BRANCH   9  13
ATOM     13  C   UNL     1       5.598   3.950  15.489  0.00  0.00    +0.000 C 
BRANCH  13  14
ATOM     14  C   UNL     1       6.487   4.583  14.421  0.00  0.00    +0.000 C 
ATOM     15 BR   UNL     1       6.308   3.690  12.696  0.00  0.00    +0.000 Br
ENDBRANCH  13  14
ENDBRANCH   9  13
ENDBRANCH   4   9
TORSDOF 6
ENDMDL
MODEL 5
REMARK VINA RESULT:      -5.0      1.083      1.638
REMARK  Name = 
REMARK  6 active torsions:
REMARK  status: ('A' for Active; 'I' for Inactive)
REMARK    1  A    between atoms: S_1  and  C_2
REMARK    2  A    between atoms: C_5  and  N_6
REMARK    3  A    between atoms: N_6  and  C_7
REMARK    4  A    between atoms: N_6  and  C_10
REMARK    5  A    between atoms: C_7  and  C_8
REMARK    6  A    between atoms: C_10  and  C_11
REMARK                            x       y       z     vdW  Elec       q    Type
REMARK                         _______ _______ _______ _____ _____    ______ ____
ROOT
ATOM      1  C   UNL     1       2.411   3.647  19.218  0.00  0.00    +0.000 A 
ATOM      2  C   UNL     1       2.577   2.862  18.080  0.00  0.00    +0.000 A 
ATOM      3  C   UNL     1       3.553   3.188  17.123  0.00  0.00    +0.000 A 
ATOM      4  C   UNL     1       4.398   4.296  17.278  0.00  0.00    +0.000 A 
ATOM      5  C   UNL     1       4.187   5.087  18.418  0.00  0.00    +0.000 A 
ATOM      6  C   UNL     1       3.215   4.770  19.377  0.00  0.00    +0.000 A 
ENDROOT
BRANCH   1   7
ATOM      7  S   UNL     1       1.190   3.258  20.450  0.00  0.00    +0.000 S 
ATOM      8  H   UNL     1       0.387   4.309  20.235  0.00  0.00    +0.000 HD
ENDBRANCH   1   7
BRANCH   4   9
ATOM      9  N   UNL     1       5.407   4.607  16.369  0.00  0.00    +0.000 N 
BRANCH   9  10
ATOM     10  C   UNL     1       5.193   4.575  14.911  0.00  0.00    +0.000 C 
BRANCH  10  11
ATOM     11  C   UNL     1       6.361   3.966  14.140  0.00  0.00    +0.000 C 
ATOM     12 BR   UNL     1       5.816   3.368  12.364  0.00  0.00    +0.000 Br
ENDBRANCH  10  11
ENDBRANCH   9  10
BRANCH   9  13
ATOM     13  C   UNL     1       6.814   4.578  16.833  0.00  0.00    +0.000 C 
BRANCH  13  14
ATOM     14  C   UNL     1       7.341   5.937  17.288  0.00  0.00    +0.000 C 
ATOM     15 BR   UNL     1       7.869   5.926  19.166  0.00  0.00    +0.000 Br
ENDBRANCH  13  14
ENDBRANCH   9  13
ENDBRANCH   4   9
TORSDOF 6
ENDMDL
MODEL 6
REMARK VINA RESULT:      -5.0      3.749      5.518
REMARK  Name = 
REMARK  6 active torsions:
REMARK  status: ('A' for Active; 'I' for Inactive)
REMARK    1  A    between atoms: S_1  and  C_2
REMARK    2  A    between atoms: C_5  and  N_6
REMARK    3  A    between atoms: N_6  and  C_7
REMARK    4  A    between atoms: N_6  and  C_10
REMARK    5  A    between atoms: C_7  and  C_8
REMARK    6  A    between atoms: C_10  and  C_11
REMARK                            x       y       z     vdW  Elec       q    Type
REMARK                         _______ _______ _______ _____ _____    ______ ____
ROOT
ATOM      1  C   UNL     1       6.528   4.645  15.295  0.00  0.00    +0.000 A 
ATOM      2  C   UNL     1       7.145   4.799  16.534  0.00  0.00    +0.000 A 
ATOM      3  C   UNL     1       6.406   4.665  17.721  0.00  0.00    +0.000 A 
ATOM      4  C   UNL     1       5.037   4.361  17.709  0.00  0.00    +0.000 A 
ATOM      5  C   UNL     1       4.435   4.243  16.446  0.00  0.00    +0.000 A 
ATOM      6  C   UNL     1       5.165   4.376  15.256  0.00  0.00    +0.000 A 
ENDROOT
BRANCH   1   7
ATOM      7  S   UNL     1       7.437   4.802  13.775  0.00  0.00    +0.000 S 
ATOM      8  H   UNL     1       6.435   5.279  13.023  0.00  0.00    +0.000 HD
ENDBRANCH   1   7
BRANCH   4   9
ATOM      9  N   UNL     1       4.296   4.172  18.874  0.00  0.00    +0.000 N 
BRANCH   9  10
ATOM     10  C   UNL     1       3.836   5.297  19.708  0.00  0.00    +0.000 C 
BRANCH  10  11
ATOM     11  C   UNL     1       2.533   5.923  19.217  0.00  0.00    +0.000 C 
ATOM     12 BR   UNL     1       2.866   7.458  18.057  0.00  0.00    +0.000 Br
ENDBRANCH  10  11
ENDBRANCH   9  10
BRANCH   9  13
ATOM     13  C   UNL     1       4.307   2.835  19.512  0.00  0.00    +0.000 C 
BRANCH  13  14
ATOM     14  C   UNL     1       3.435   1.804  18.798  0.00  0.00    +0.000 C 
ATOM     15 BR   UNL     1       1.546   2.288  18.838  0.00  0.00    +0.000 Br
ENDBRANCH  13  14
ENDBRANCH   9  13
ENDBRANCH   4   9
TORSDOF 6
ENDMDL
MODEL 7
REMARK VINA RESULT:      -5.0      4.216      5.346
REMARK  Name = 
REMARK  6 active torsions:
REMARK  status: ('A' for Active; 'I' for Inactive)
REMARK    1  A    between atoms: S_1  and  C_2
REMARK    2  A    between atoms: C_5  and  N_6
REMARK    3  A    between atoms: N_6  and  C_7
REMARK    4  A    between atoms: N_6  and  C_10
REMARK    5  A    between atoms: C_7  and  C_8
REMARK    6  A    between atoms: C_10  and  C_11
REMARK                            x       y       z     vdW  Elec       q    Type
REMARK                         _______ _______ _______ _____ _____    ______ ____
ROOT
ATOM      1  C   UNL     1       1.383   9.220  19.107  0.00  0.00    +0.000 A 
ATOM      2  C   UNL     1       1.296   8.632  20.366  0.00  0.00    +0.000 A 
ATOM      3  C   UNL     1       1.799   7.339  20.586  0.00  0.00    +0.000 A 
ATOM      4  C   UNL     1       2.413   6.600  19.564  0.00  0.00    +0.000 A 
ATOM      5  C   UNL     1       2.457   7.206  18.298  0.00  0.00    +0.000 A 
ATOM      6  C   UNL     1       1.957   8.495  18.069  0.00  0.00    +0.000 A 
ENDROOT
BRANCH   1   7
ATOM      7  S   UNL     1       0.761  10.857  18.797  0.00  0.00    +0.000 S 
ATOM      8  H   UNL     1      -0.125  10.529  17.847  0.00  0.00    +0.000 HD
ENDBRANCH   1   7
BRANCH   4   9
ATOM      9  N   UNL     1       2.965   5.339  19.772  0.00  0.00    +0.000 N 
BRANCH   9  10
ATOM     10  C   UNL     1       2.370   4.360  20.701  0.00  0.00    +0.000 C 
BRANCH  10  11
ATOM     11  C   UNL     1       0.982   3.888  20.275  0.00  0.00    +0.000 C 
ATOM     12 BR   UNL     1       1.082   2.554  18.853  0.00  0.00    +0.000 Br
ENDBRANCH  10  11
ENDBRANCH   9  10
BRANCH   9  13
ATOM     13  C   UNL     1       4.375   5.108  19.382  0.00  0.00    +0.000 C 
BRANCH  13  14
ATOM     14  C   UNL     1       4.541   4.137  18.215  0.00  0.00    +0.000 C 
ATOM     15 BR   UNL     1       5.056   5.050  16.570  0.00  0.00    +0.000 Br
ENDBRANCH  13  14
ENDBRANCH   9  13
ENDBRANCH   4   9
TORSDOF 6
ENDMDL
MODEL 8
REMARK VINA RESULT:      -5.0      1.333      3.203
REMARK  Name = 
REMARK  6 active torsions:
REMARK  status: ('A' for Active; 'I' for Inactive)
REMARK    1  A    between atoms: S_1  and  C_2
REMARK    2  A    between atoms: C_5  and  N_6
REMARK    3  A    between atoms: N_6  and  C_7
REMARK    4  A    between atoms: N_6  and  C_10
REMARK    5  A    between atoms: C_7  and  C_8
REMARK    6  A    between atoms: C_10  and  C_11
REMARK                            x       y       z     vdW  Elec       q    Type
REMARK                         _______ _______ _______ _____ _____    ______ ____
ROOT
ATOM      1  C   UNL     1       2.600   3.597  20.337  0.00  0.00    +0.000 A 
ATOM      2  C   UNL     1       2.934   4.948  20.291  0.00  0.00    +0.000 A 
ATOM      3  C   UNL     1       3.843   5.426  19.333  0.00  0.00    +0.000 A 
ATOM      4  C   UNL     1       4.435   4.578  18.387  0.00  0.00    +0.000 A 
ATOM      5  C   UNL     1       4.105   3.216  18.478  0.00  0.00    +0.000 A 
ATOM      6  C   UNL     1       3.200   2.730  19.431  0.00  0.00    +0.000 A 
ENDROOT
BRANCH   1   7
ATOM      7  S   UNL     1       1.450   2.960  21.534  0.00  0.00    +0.000 S 
ATOM      8  H   UNL     1       0.967   1.955  20.792  0.00  0.00    +0.000 HD
ENDBRANCH   1   7
BRANCH   4   9
ATOM      9  N   UNL     1       5.298   5.039  17.395  0.00  0.00    +0.000 N 
BRANCH   9  10
ATOM     10  C   UNL     1       5.636   6.466  17.244  0.00  0.00    +0.000 C 
BRANCH  10  11
ATOM     11  C   UNL     1       7.108   6.770  17.503  0.00  0.00    +0.000 C 
ATOM     12 BR   UNL     1       7.755   5.872  19.111  0.00  0.00    +0.000 Br
ENDBRANCH  10  11
ENDBRANCH   9  10
BRANCH   9  13
ATOM     13  C   UNL     1       5.567   4.167  16.228  0.00  0.00    +0.000 C 
BRANCH  13  14
ATOM     14  C   UNL     1       5.405   4.871  14.882  0.00  0.00    +0.000 C 
ATOM     15 BR   UNL     1       6.205   3.854  13.423  0.00  0.00    +0.000 Br
ENDBRANCH  13  14
ENDBRANCH   9  13
ENDBRANCH   4   9
TORSDOF 6
ENDMDL
MODEL 9
REMARK VINA RESULT:      -5.0      4.525      5.514
REMARK  Name = 
REMARK  6 active torsions:
REMARK  status: ('A' for Active; 'I' for Inactive)
REMARK    1  A    between atoms: S_1  and  C_2
REMARK    2  A    between atoms: C_5  and  N_6
REMARK    3  A    between atoms: N_6  and  C_7
REMARK    4  A    between atoms: N_6  and  C_10
REMARK    5  A    between atoms: C_7  and  C_8
REMARK    6  A    between atoms: C_10  and  C_11
REMARK                            x       y       z     vdW  Elec       q    Type
REMARK                         _______ _______ _______ _____ _____    ______ ____
ROOT
ATOM      1  C   UNL     1       1.083   9.680  18.991  0.00  0.00    +0.000 A 
ATOM      2  C   UNL     1       1.769   9.220  17.870  0.00  0.00    +0.000 A 
ATOM      3  C   UNL     1       2.482   8.011  17.915  0.00  0.00    +0.000 A 
ATOM      4  C   UNL     1       2.524   7.220  19.073  0.00  0.00    +0.000 A 
ATOM      5  C   UNL     1       1.850   7.725  20.197  0.00  0.00    +0.000 A 
ATOM      6  C   UNL     1       1.136   8.930  20.161  0.00  0.00    +0.000 A 
ENDROOT
BRANCH   1   7
ATOM      7  S   UNL     1       0.165  11.203  18.964  0.00  0.00    +0.000 S 
ATOM      8  H   UNL     1       0.508  11.633  20.186  0.00  0.00    +0.000 HD
ENDBRANCH   1   7
BRANCH   4   9
ATOM      9  N   UNL     1       3.181   5.993  19.125  0.00  0.00    +0.000 N 
BRANCH   9  10
ATOM     10  C   UNL     1       2.930   5.008  20.192  0.00  0.00    +0.000 C 
BRANCH  10  11
ATOM     11  C   UNL     1       1.823   4.015  19.851  0.00  0.00    +0.000 C 
ATOM     12 BR   UNL     1       1.489   2.777  21.324  0.00  0.00    +0.000 Br
ENDBRANCH  10  11
ENDBRANCH   9  10
BRANCH   9  13
ATOM     13  C   UNL     1       4.433   5.826  18.350  0.00  0.00    +0.000 C 
BRANCH  13  14
ATOM     14  C   UNL     1       5.558   5.153  19.135  0.00  0.00    +0.000 C 
ATOM     15 BR   UNL     1       7.316   5.808  18.601  0.00  0.00    +0.000 Br
ENDBRANCH  13  14
ENDBRANCH   9  13
ENDBRANCH   4   9
TORSDOF 6
ENDMDL
