MODEL 1
REMARK VINA RESULT:      -6.8      0.000      0.000
REMARK  Name = 
REMARK  12 active torsions:
REMARK  status: ('A' for Active; 'I' for Inactive)
REMARK    1  A    between atoms: C_1  and  C_2
REMARK    2  A    between atoms: C_2  and  C_3
REMARK    3  A    between atoms: C_3  and  N_4
REMARK    4  A    between atoms: N_4  and  C_5
REMARK    5  A    between atoms: C_5  and  C_6
REMARK    6  A    between atoms: C_6  and  C_7
REMARK    7  A    between atoms: C_13  and  C_15
REMARK    8  A    between atoms: C_17  and  C_18
REMARK    9  A    between atoms: C_18  and  O_20
REMARK   10  A    between atoms: C_22  and  N_23
REMARK   11  A    between atoms: C_27  and  N_28
REMARK   12  A    between atoms: C_29  and  C_30
REMARK                            x       y       z     vdW  Elec       q    Type
REMARK                         _______ _______ _______ _____ _____    ______ ____
ROOT
ATOM      1  C   UNL     1      -1.962  11.433  18.044  0.00  0.00    +0.000 C 
ATOM      2  O   UNL     1      -2.113  11.428  16.611  0.00  0.00    +0.000 OA
ATOM      3  C   UNL     1      -3.292  10.858  16.170  0.00  0.00    +0.000 C 
ATOM      4  C   UNL     1      -4.406  10.795  16.917  0.00  0.00    +0.000 C 
ATOM      5  C   UNL     1      -4.503  11.338  18.309  0.00  0.00    +0.000 C 
ATOM      6  C   UNL     1      -3.195  12.044  18.765  0.00  0.00    +0.000 C 
ENDROOT
BRANCH   5   7
ATOM      7  N   UNL     1      -5.606  12.305  18.299  0.00  0.00    +0.000 NA
ATOM      8  C   UNL     1      -6.778  11.955  18.673  0.00  0.00    +0.000 C 
ATOM      9  N   UNL     1      -7.238  10.767  19.106  0.00  0.00    +0.000 N 
ATOM     10  N   UNL     1      -7.780  12.855  18.681  0.00  0.00    +0.000 N 
ATOM     11  H   UNL     1      -6.507  10.105  19.342  0.00  0.00    +0.000 HD
ATOM     12  H   UNL     1      -7.906  10.855  19.866  0.00  0.00    +0.000 HD
ATOM     13  H   UNL     1      -7.550  13.666  18.119  0.00  0.00    +0.000 HD
ATOM     14  H   UNL     1      -8.676  12.466  18.420  0.00  0.00    +0.000 HD
ENDBRANCH   5   7
BRANCH   6  15
ATOM     15  N   UNL     1      -3.058  12.106  20.244  0.00  0.00    +0.000 N 
ATOM     16  C   UNL     1      -3.419  13.187  21.010  0.00  0.00    +0.000 C 
ATOM     17  C   UNL     1      -3.297  12.977  22.498  0.00  0.00    +0.000 C 
ATOM     18  O   UNL     1      -3.770  14.259  20.528  0.00  0.00    +0.000 OA
ATOM     19  H   UNL     1      -3.076  11.194  20.696  0.00  0.00    +0.000 HD
ENDBRANCH   6  15
BRANCH   1  21
ATOM     20  N   UNL     1       0.518  11.539  18.634  0.00  0.00    +0.000 N 
ATOM     21  C   UNL     1      -0.679  12.244  18.389  0.00  0.00    +0.000 C 
ATOM     22  O   UNL     1      -0.720  13.474  18.497  0.00  0.00    +0.000 OA
BRANCH  20  23
ATOM     23  C   UNL     1       1.664  12.325  19.133  0.00  0.00    +0.000 C 
BRANCH  23  25
ATOM     24  C   UNL     1       3.008  14.368  18.235  0.00  0.00    +0.000 C 
ATOM     25  C   UNL     1       2.631  12.900  18.086  0.00  0.00    +0.000 C 
ENDBRANCH  23  25
ENDBRANCH  20  23
BRANCH  20  26
ATOM     26  C   UNL     1       0.573  10.058  18.543  0.00  0.00    +0.000 C 
BRANCH  26  27
ATOM     27  C   UNL     1       1.774   9.391  17.868  0.00  0.00    +0.000 C 
BRANCH  27  28
ATOM     28  C   UNL     1       2.239   8.107  18.537  0.00  0.00    +0.000 A 
ATOM     29  C   UNL     1       1.788   7.791  19.828  0.00  0.00    +0.000 A 
ATOM     30  C   UNL     1       2.092   6.559  20.414  0.00  0.00    +0.000 A 
ATOM     31  C   UNL     1       2.859   5.625  19.725  0.00  0.00    +0.000 A 
ATOM     32  C   UNL     1       3.339   5.934  18.454  0.00  0.00    +0.000 A 
ATOM     33  C   UNL     1       3.037   7.168  17.864  0.00  0.00    +0.000 A 
ENDBRANCH  27  28
ENDBRANCH  26  27
ENDBRANCH  20  26
ENDBRANCH   1  21
BRANCH   3  34
ATOM     34  C   UNL     1      -3.327  10.275  14.791  0.00  0.00    +0.000 C 
ATOM     35  O   UNL     1      -2.348  10.021  14.105  0.00  0.00    +0.000 OA
BRANCH  34  36
ATOM     36  O   UNL     1      -4.594  10.085  14.368  0.00  0.00    +0.000 OA
ATOM     37  H   UNL     1      -5.228  10.482  14.994  0.00  0.00    +0.000 HD
ENDBRANCH  34  36
ENDBRANCH   3  34
TORSDOF 10
ENDMDL
MODEL 2
REMARK VINA RESULT:      -6.6      6.048     10.115
REMARK  Name = 
REMARK  12 active torsions:
REMARK  status: ('A' for Active; 'I' for Inactive)
REMARK    1  A    between atoms: C_1  and  C_2
REMARK    2  A    between atoms: C_2  and  C_3
REMARK    3  A    between atoms: C_3  and  N_4
REMARK    4  A    between atoms: N_4  and  C_5
REMARK    5  A    between atoms: C_5  and  C_6
REMARK    6  A    between atoms: C_6  and  C_7
REMARK    7  A    between atoms: C_13  and  C_15
REMARK    8  A    between atoms: C_17  and  C_18
REMARK    9  A    between atoms: C_18  and  O_20
REMARK   10  A    between atoms: C_22  and  N_23
REMARK   11  A    between atoms: C_27  and  N_28
REMARK   12  A    between atoms: C_29  and  C_30
REMARK                            x       y       z     vdW  Elec       q    Type
REMARK                         _______ _______ _______ _____ _____    ______ ____
ROOT
ATOM      1  C   UNL     1       3.949   4.879  19.599  0.00  0.00    +0.000 C 
ATOM      2  O   UNL     1       5.055   5.797  19.692  0.00  0.00    +0.000 OA
ATOM      3  C   UNL     1       6.153   5.436  18.936  0.00  0.00    +0.000 C 
ATOM      4  C   UNL     1       6.074   4.660  17.843  0.00  0.00    +0.000 C 
ATOM      5  C   UNL     1       4.790   4.102  17.314  0.00  0.00    +0.000 C 
ATOM      6  C   UNL     1       3.554   4.578  18.128  0.00  0.00    +0.000 C 
ENDROOT
BRANCH   5   7
ATOM      7  N   UNL     1       4.676   4.570  15.928  0.00  0.00    +0.000 NA
ATOM      8  C   UNL     1       5.479   4.140  15.030  0.00  0.00    +0.000 C 
ATOM      9  N   UNL     1       6.503   3.272  15.120  0.00  0.00    +0.000 N 
ATOM     10  N   UNL     1       5.354   4.559  13.757  0.00  0.00    +0.000 N 
ATOM     11  H   UNL     1       6.521   2.744  15.985  0.00  0.00    +0.000 HD
ATOM     12  H   UNL     1       6.566   2.652  14.318  0.00  0.00    +0.000 HD
ATOM     13  H   UNL     1       4.789   5.398  13.699  0.00  0.00    +0.000 HD
ATOM     14  H   UNL     1       6.238   4.675  13.279  0.00  0.00    +0.000 HD
ENDBRANCH   5   7
BRANCH   6  15
ATOM     15  N   UNL     1       2.386   3.667  17.992  0.00  0.00    +0.000 N 
ATOM     16  C   UNL     1       2.235   2.494  18.688  0.00  0.00    +0.000 C 
ATOM     17  C   UNL     1       0.916   1.796  18.472  0.00  0.00    +0.000 C 
ATOM     18  O   UNL     1       3.116   2.021  19.399  0.00  0.00    +0.000 OA
ATOM     19  H   UNL     1       1.537   4.134  17.684  0.00  0.00    +0.000 HD
ENDBRANCH   6  15
BRANCH   1  21
ATOM     20  N   UNL     1       2.260   6.758  19.954  0.00  0.00    +0.000 N 
ATOM     21  C   UNL     1       2.744   5.499  20.366  0.00  0.00    +0.000 C 
ATOM     22  O   UNL     1       2.258   4.925  21.346  0.00  0.00    +0.000 OA
BRANCH  20  23
ATOM     23  C   UNL     1       1.241   7.393  20.814  0.00  0.00    +0.000 C 
BRANCH  23  25
ATOM     24  C   UNL     1       0.475   9.650  21.867  0.00  0.00    +0.000 C 
ATOM     25  C   UNL     1       1.621   8.719  21.492  0.00  0.00    +0.000 C 
ENDBRANCH  23  25
ENDBRANCH  20  23
BRANCH  20  26
ATOM     26  C   UNL     1       2.858   7.475  18.801  0.00  0.00    +0.000 C 
BRANCH  26  27
ATOM     27  C   UNL     1       1.945   8.024  17.702  0.00  0.00    +0.000 C 
BRANCH  27  28
ATOM     28  C   UNL     1       1.400   9.417  17.972  0.00  0.00    +0.000 A 
ATOM     29  C   UNL     1       0.015   9.616  18.078  0.00  0.00    +0.000 A 
ATOM     30  C   UNL     1      -0.507  10.856  18.456  0.00  0.00    +0.000 A 
ATOM     31  C   UNL     1       0.345  11.922  18.728  0.00  0.00    +0.000 A 
ATOM     32  C   UNL     1       1.722  11.750  18.600  0.00  0.00    +0.000 A 
ATOM     33  C   UNL     1       2.249  10.509  18.221  0.00  0.00    +0.000 A 
ENDBRANCH  27  28
ENDBRANCH  26  27
ENDBRANCH  20  26
ENDBRANCH   1  21
BRANCH   3  34
ATOM     34  C   UNL     1       7.503   5.928  19.361  0.00  0.00    +0.000 C 
ATOM     35  O   UNL     1       8.172   6.759  18.764  0.00  0.00    +0.000 OA
BRANCH  34  36
ATOM     36  O   UNL     1       7.920   5.314  20.487  0.00  0.00    +0.000 OA
ATOM     37  H   UNL     1       7.663   4.374  20.480  0.00  0.00    +0.000 HD
ENDBRANCH  34  36
ENDBRANCH   3  34
TORSDOF 10
ENDMDL
MODEL 3
REMARK VINA RESULT:      -6.3      1.300      1.665
REMARK  Name = 
REMARK  12 active torsions:
REMARK  status: ('A' for Active; 'I' for Inactive)
REMARK    1  A    between atoms: C_1  and  C_2
REMARK    2  A    between atoms: C_2  and  C_3
REMARK    3  A    between atoms: C_3  and  N_4
REMARK    4  A    between atoms: N_4  and  C_5
REMARK    5  A    between atoms: C_5  and  C_6
REMARK    6  A    between atoms: C_6  and  C_7
REMARK    7  A    between atoms: C_13  and  C_15
REMARK    8  A    between atoms: C_17  and  C_18
REMARK    9  A    between atoms: C_18  and  O_20
REMARK   10  A    between atoms: C_22  and  N_23
REMARK   11  A    between atoms: C_27  and  N_28
REMARK   12  A    between atoms: C_29  and  C_30
REMARK                            x       y       z     vdW  Elec       q    Type
REMARK                         _______ _______ _______ _____ _____    ______ ____
ROOT
ATOM      1  C   UNL     1      -1.859  12.036  19.298  0.00  0.00    +0.000 C 
ATOM      2  O   UNL     1      -1.936  12.005  17.859  0.00  0.00    +0.000 OA
ATOM      3  C   UNL     1      -3.061  11.371  17.368  0.00  0.00    +0.000 C 
ATOM      4  C   UNL     1      -4.208  11.261  18.059  0.00  0.00    +0.000 C 
ATOM      5  C   UNL     1      -4.402  11.816  19.436  0.00  0.00    +0.000 C 
ATOM      6  C   UNL     1      -3.156  12.593  19.946  0.00  0.00    +0.000 C 
ENDROOT
BRANCH   5   7
ATOM      7  N   UNL     1      -5.550  12.726  19.356  0.00  0.00    +0.000 NA
ATOM      8  C   UNL     1      -6.491  12.660  20.220  0.00  0.00    +0.000 C 
ATOM      9  N   UNL     1      -6.649  11.843  21.277  0.00  0.00    +0.000 N 
ATOM     10  N   UNL     1      -7.531  13.513  20.151  0.00  0.00    +0.000 N 
ATOM     11  H   UNL     1      -5.811  11.329  21.529  0.00  0.00    +0.000 HD
ATOM     12  H   UNL     1      -7.040  12.315  22.087  0.00  0.00    +0.000 HD
ATOM     13  H   UNL     1      -7.588  13.951  19.239  0.00  0.00    +0.000 HD
ATOM     14  H   UNL     1      -8.413  13.099  20.419  0.00  0.00    +0.000 HD
ENDBRANCH   5   7
BRANCH   6  15
ATOM     15  N   UNL     1      -3.097  12.681  21.429  0.00  0.00    +0.000 N 
ATOM     16  C   UNL     1      -3.500  13.774  22.156  0.00  0.00    +0.000 C 
ATOM     17  C   UNL     1      -3.457  13.590  23.652  0.00  0.00    +0.000 C 
ATOM     18  O   UNL     1      -3.828  14.836  21.637  0.00  0.00    +0.000 OA
ATOM     19  H   UNL     1      -3.137  11.778  21.895  0.00  0.00    +0.000 HD
ENDBRANCH   6  15
BRANCH   1  21
ATOM     20  N   UNL     1       0.590  12.277  19.972  0.00  0.00    +0.000 N 
ATOM     21  C   UNL     1      -0.636  12.915  19.693  0.00  0.00    +0.000 C 
ATOM     22  O   UNL     1      -0.752  14.140  19.812  0.00  0.00    +0.000 OA
BRANCH  20  23
ATOM     23  C   UNL     1       1.672  13.121  20.517  0.00  0.00    +0.000 C 
BRANCH  23  25
ATOM     24  C   UNL     1       2.387  13.474  18.038  0.00  0.00    +0.000 C 
ATOM     25  C   UNL     1       2.667  13.724  19.513  0.00  0.00    +0.000 C 
ENDBRANCH  23  25
ENDBRANCH  20  23
BRANCH  20  26
ATOM     26  C   UNL     1       0.733  10.803  19.868  0.00  0.00    +0.000 C 
BRANCH  26  27
ATOM     27  C   UNL     1       1.264  10.189  18.570  0.00  0.00    +0.000 C 
BRANCH  27  28
ATOM     28  C   UNL     1       1.821   8.783  18.721  0.00  0.00    +0.000 A 
ATOM     29  C   UNL     1       2.618   8.236  17.702  0.00  0.00    +0.000 A 
ATOM     30  C   UNL     1       3.252   7.001  17.870  0.00  0.00    +0.000 A 
ATOM     31  C   UNL     1       3.093   6.287  19.053  0.00  0.00    +0.000 A 
ATOM     32  C   UNL     1       2.282   6.802  20.063  0.00  0.00    +0.000 A 
ATOM     33  C   UNL     1       1.646   8.039  19.899  0.00  0.00    +0.000 A 
ENDBRANCH  27  28
ENDBRANCH  26  27
ENDBRANCH  20  26
ENDBRANCH   1  21
BRANCH   3  34
ATOM     34  C   UNL     1      -2.998  10.768  15.998  0.00  0.00    +0.000 C 
ATOM     35  O   UNL     1      -3.328  11.328  14.964  0.00  0.00    +0.000 OA
BRANCH  34  36
ATOM     36  O   UNL     1      -2.553   9.495  16.039  0.00  0.00    +0.000 OA
ATOM     37  H   UNL     1      -3.201   8.920  16.486  0.00  0.00    +0.000 HD
ENDBRANCH  34  36
ENDBRANCH   3  34
TORSDOF 10
ENDMDL
MODEL 4
REMARK VINA RESULT:      -6.2      2.413      6.610
REMARK  Name = 
REMARK  12 active torsions:
REMARK  status: ('A' for Active; 'I' for Inactive)
REMARK    1  A    between atoms: C_1  and  C_2
REMARK    2  A    between atoms: C_2  and  C_3
REMARK    3  A    between atoms: C_3  and  N_4
REMARK    4  A    between atoms: N_4  and  C_5
REMARK    5  A    between atoms: C_5  and  C_6
REMARK    6  A    between atoms: C_6  and  C_7
REMARK    7  A    between atoms: C_13  and  C_15
REMARK    8  A    between atoms: C_17  and  C_18
REMARK    9  A    between atoms: C_18  and  O_20
REMARK   10  A    between atoms: C_22  and  N_23
REMARK   11  A    between atoms: C_27  and  N_28
REMARK   12  A    between atoms: C_29  and  C_30
REMARK                            x       y       z     vdW  Elec       q    Type
REMARK                         _______ _______ _______ _____ _____    ______ ____
ROOT
ATOM      1  C   UNL     1      -2.124  12.589  20.185  0.00  0.00    +0.000 C 
ATOM      2  O   UNL     1      -2.427  12.664  21.592  0.00  0.00    +0.000 OA
ATOM      3  C   UNL     1      -3.639  13.263  21.876  0.00  0.00    +0.000 C 
ATOM      4  C   UNL     1      -4.667  13.298  21.012  0.00  0.00    +0.000 C 
ATOM      5  C   UNL     1      -4.620  12.689  19.645  0.00  0.00    +0.000 C 
ATOM      6  C   UNL     1      -3.280  11.953  19.366  0.00  0.00    +0.000 C 
ENDROOT
BRANCH   5   7
ATOM      7  N   UNL     1      -5.730  11.731  19.581  0.00  0.00    +0.000 NA
ATOM      8  C   UNL     1      -6.384  11.568  18.495  0.00  0.00    +0.000 C 
ATOM      9  N   UNL     1      -6.245  12.161  17.295  0.00  0.00    +0.000 N 
ATOM     10  N   UNL     1      -7.388  10.672  18.440  0.00  0.00    +0.000 N 
ATOM     11  H   UNL     1      -5.377  12.676  17.189  0.00  0.00    +0.000 HD
ATOM     12  H   UNL     1      -6.381  11.519  16.519  0.00  0.00    +0.000 HD
ATOM     13  H   UNL     1      -7.698  10.410  19.368  0.00  0.00    +0.000 HD
ATOM     14  H   UNL     1      -8.163  10.966  17.860  0.00  0.00    +0.000 HD
ENDBRANCH   5   7
BRANCH   6  15
ATOM     15  N   UNL     1      -2.986  11.817  17.915  0.00  0.00    +0.000 N 
ATOM     16  C   UNL     1      -2.959  10.624  17.238  0.00  0.00    +0.000 C 
ATOM     17  C   UNL     1      -2.754  10.744  15.750  0.00  0.00    +0.000 C 
ATOM     18  O   UNL     1      -3.050   9.536  17.800  0.00  0.00    +0.000 OA
ATOM     19  H   UNL     1      -3.208  12.650  17.373  0.00  0.00    +0.000 HD
ENDBRANCH   6  15
BRANCH   1  21
ATOM     20  N   UNL     1       0.232  12.292  19.250  0.00  0.00    +0.000 N 
ATOM     21  C   UNL     1      -0.821  11.753  20.020  0.00  0.00    +0.000 C 
ATOM     22  O   UNL     1      -0.731  10.622  20.508  0.00  0.00    +0.000 OA
BRANCH  20  23
ATOM     23  C   UNL     1       1.374  11.400  18.966  0.00  0.00    +0.000 C 
BRANCH  23  25
ATOM     24  C   UNL     1       2.263   9.201  17.889  0.00  0.00    +0.000 C 
ATOM     25  C   UNL     1       1.095  10.152  18.114  0.00  0.00    +0.000 C 
ENDBRANCH  23  25
ENDBRANCH  20  23
BRANCH  20  26
ATOM     26  C   UNL     1       0.123  13.635  18.629  0.00  0.00    +0.000 C 
BRANCH  26  27
ATOM     27  C   UNL     1       0.659  14.857  19.380  0.00  0.00    +0.000 C 
BRANCH  27  28
ATOM     28  C   UNL     1       0.666  16.142  18.568  0.00  0.00    +0.000 A 
ATOM     29  C   UNL     1       1.876  16.637  18.056  0.00  0.00    +0.000 A 
ATOM     30  C   UNL     1       1.896  17.740  17.198  0.00  0.00    +0.000 A 
ATOM     31  C   UNL     1       0.709  18.373  16.843  0.00  0.00    +0.000 A 
ATOM     32  C   UNL     1      -0.499  17.913  17.365  0.00  0.00    +0.000 A 
ATOM     33  C   UNL     1      -0.522  16.808  18.225  0.00  0.00    +0.000 A 
ENDBRANCH  27  28
ENDBRANCH  26  27
ENDBRANCH  20  26
ENDBRANCH   1  21
BRANCH   3  34
ATOM     34  C   UNL     1      -3.815  13.913  23.214  0.00  0.00    +0.000 C 
ATOM     35  O   UNL     1      -4.826  14.486  23.594  0.00  0.00    +0.000 OA
BRANCH  34  36
ATOM     36  O   UNL     1      -2.694  13.820  23.959  0.00  0.00    +0.000 OA
ATOM     37  H   UNL     1      -2.556  14.637  24.474  0.00  0.00    +0.000 HD
ENDBRANCH  34  36
ENDBRANCH   3  34
TORSDOF 10
ENDMDL
MODEL 5
REMARK VINA RESULT:      -6.1      3.771      7.354
REMARK  Name = 
REMARK  12 active torsions:
REMARK  status: ('A' for Active; 'I' for Inactive)
REMARK    1  A    between atoms: C_1  and  C_2
REMARK    2  A    between atoms: C_2  and  C_3
REMARK    3  A    between atoms: C_3  and  N_4
REMARK    4  A    between atoms: N_4  and  C_5
REMARK    5  A    between atoms: C_5  and  C_6
REMARK    6  A    between atoms: C_6  and  C_7
REMARK    7  A    between atoms: C_13  and  C_15
REMARK    8  A    between atoms: C_17  and  C_18
REMARK    9  A    between atoms: C_18  and  O_20
REMARK   10  A    between atoms: C_22  and  N_23
REMARK   11  A    between atoms: C_27  and  N_28
REMARK   12  A    between atoms: C_29  and  C_30
REMARK                            x       y       z     vdW  Elec       q    Type
REMARK                         _______ _______ _______ _____ _____    ______ ____
ROOT
ATOM      1  C   UNL     1      -1.274  13.376  20.311  0.00  0.00    +0.000 C 
ATOM      2  O   UNL     1      -0.907  12.473  21.372  0.00  0.00    +0.000 OA
ATOM      3  C   UNL     1       0.226  11.727  21.110  0.00  0.00    +0.000 C 
ATOM      4  C   UNL     1       1.189  12.119  20.261  0.00  0.00    +0.000 C 
ATOM      5  C   UNL     1       1.151  13.410  19.504  0.00  0.00    +0.000 C 
ATOM      6  C   UNL     1      -0.090  14.275  19.865  0.00  0.00    +0.000 C 
ENDROOT
BRANCH   5   7
ATOM      7  N   UNL     1       2.376  14.134  19.861  0.00  0.00    +0.000 NA
ATOM      8  C   UNL     1       3.215  14.473  18.957  0.00  0.00    +0.000 C 
ATOM      9  N   UNL     1       3.195  14.270  17.627  0.00  0.00    +0.000 N 
ATOM     10  N   UNL     1       4.327  15.155  19.291  0.00  0.00    +0.000 N 
ATOM     11  H   UNL     1       2.295  13.967  17.271  0.00  0.00    +0.000 HD
ATOM     12  H   UNL     1       3.542  15.066  17.101  0.00  0.00    +0.000 HD
ATOM     13  H   UNL     1       4.514  15.091  20.285  0.00  0.00    +0.000 HD
ATOM     14  H   UNL     1       5.139  14.900  18.745  0.00  0.00    +0.000 HD
ENDBRANCH   5   7
BRANCH   6  15
ATOM     15  N   UNL     1      -0.442  15.251  18.800  0.00  0.00    +0.000 N 
ATOM     16  C   UNL     1      -0.056  16.568  18.798  0.00  0.00    +0.000 C 
ATOM     17  C   UNL     1      -0.433  17.337  17.558  0.00  0.00    +0.000 C 
ATOM     18  O   UNL     1       0.514  17.098  19.748  0.00  0.00    +0.000 OA
ATOM     19  H   UNL     1      -0.622  14.822  17.895  0.00  0.00    +0.000 HD
ENDBRANCH   6  15
BRANCH   1  21
ATOM     20  N   UNL     1      -3.765  13.728  20.739  0.00  0.00    +0.000 N 
ATOM     21  C   UNL     1      -2.458  14.252  20.815  0.00  0.00    +0.000 C 
ATOM     22  O   UNL     1      -2.262  15.402  21.224  0.00  0.00    +0.000 OA
BRANCH  20  23
ATOM     23  C   UNL     1      -4.873  14.652  21.055  0.00  0.00    +0.000 C 
BRANCH  23  25
ATOM     24  C   UNL     1      -4.974  14.899  23.646  0.00  0.00    +0.000 C 
ATOM     25  C   UNL     1      -5.638  14.410  22.366  0.00  0.00    +0.000 C 
ENDBRANCH  23  25
ENDBRANCH  20  23
BRANCH  20  26
ATOM     26  C   UNL     1      -4.018  12.362  20.216  0.00  0.00    +0.000 C 
BRANCH  26  27
ATOM     27  C   UNL     1      -4.754  12.192  18.884  0.00  0.00    +0.000 C 
BRANCH  27  28
ATOM     28  C   UNL     1      -3.949  11.483  17.806  0.00  0.00    +0.000 A 
ATOM     29  C   UNL     1      -2.768  10.807  18.150  0.00  0.00    +0.000 A 
ATOM     30  C   UNL     1      -2.080  10.037  17.207  0.00  0.00    +0.000 A 
ATOM     31  C   UNL     1      -2.554   9.937  15.903  0.00  0.00    +0.000 A 
ATOM     32  C   UNL     1      -3.710  10.625  15.537  0.00  0.00    +0.000 A 
ATOM     33  C   UNL     1      -4.402  11.397  16.480  0.00  0.00    +0.000 A 
ENDBRANCH  27  28
ENDBRANCH  26  27
ENDBRANCH  20  26
ENDBRANCH   1  21
BRANCH   3  34
ATOM     34  C   UNL     1       0.385  10.408  21.804  0.00  0.00    +0.000 C 
ATOM     35  O   UNL     1       0.290  10.227  23.009  0.00  0.00    +0.000 OA
BRANCH  34  36
ATOM     36  O   UNL     1       0.685   9.424  20.931  0.00  0.00    +0.000 OA
ATOM     37  H   UNL     1      -0.110   8.902  20.717  0.00  0.00    +0.000 HD
ENDBRANCH  34  36
ENDBRANCH   3  34
TORSDOF 10
ENDMDL
MODEL 6
REMARK VINA RESULT:      -6.1      2.949      4.723
REMARK  Name = 
REMARK  12 active torsions:
REMARK  status: ('A' for Active; 'I' for Inactive)
REMARK    1  A    between atoms: C_1  and  C_2
REMARK    2  A    between atoms: C_2  and  C_3
REMARK    3  A    between atoms: C_3  and  N_4
REMARK    4  A    between atoms: N_4  and  C_5
REMARK    5  A    between atoms: C_5  and  C_6
REMARK    6  A    between atoms: C_6  and  C_7
REMARK    7  A    between atoms: C_13  and  C_15
REMARK    8  A    between atoms: C_17  and  C_18
REMARK    9  A    between atoms: C_18  and  O_20
REMARK   10  A    between atoms: C_22  and  N_23
REMARK   11  A    between atoms: C_27  and  N_28
REMARK   12  A    between atoms: C_29  and  C_30
REMARK                            x       y       z     vdW  Elec       q    Type
REMARK                         _______ _______ _______ _____ _____    ______ ____
ROOT
ATOM      1  C   UNL     1       0.285   9.774  18.525  0.00  0.00    +0.000 C 
ATOM      2  O   UNL     1      -0.495  10.255  17.413  0.00  0.00    +0.000 OA
ATOM      3  C   UNL     1      -1.757  10.697  17.759  0.00  0.00    +0.000 C 
ATOM      4  C   UNL     1      -2.073  11.144  18.985  0.00  0.00    +0.000 C 
ATOM      5  C   UNL     1      -1.096  11.221  20.116  0.00  0.00    +0.000 C 
ATOM      6  C   UNL     1       0.338  10.794  19.694  0.00  0.00    +0.000 C 
ENDROOT
BRANCH   5   7
ATOM      7  N   UNL     1      -1.083  12.621  20.557  0.00  0.00    +0.000 NA
ATOM      8  C   UNL     1      -1.181  12.910  21.798  0.00  0.00    +0.000 C 
ATOM      9  N   UNL     1      -1.312  12.112  22.873  0.00  0.00    +0.000 N 
ATOM     10  N   UNL     1      -1.148  14.197  22.195  0.00  0.00    +0.000 N 
ATOM     11  H   UNL     1      -1.120  11.134  22.685  0.00  0.00    +0.000 HD
ATOM     12  H   UNL     1      -0.779  12.437  23.674  0.00  0.00    +0.000 HD
ATOM     13  H   UNL     1      -1.322  14.826  21.420  0.00  0.00    +0.000 HD
ATOM     14  H   UNL     1      -1.757  14.396  22.977  0.00  0.00    +0.000 HD
ENDBRANCH   5   7
BRANCH   6  15
ATOM     15  N   UNL     1       1.171  10.350  20.843  0.00  0.00    +0.000 N 
ATOM     16  C   UNL     1       0.745   9.484  21.819  0.00  0.00    +0.000 C 
ATOM     17  C   UNL     1       1.801   9.088  22.819  0.00  0.00    +0.000 C 
ATOM     18  O   UNL     1      -0.415   9.093  21.904  0.00  0.00    +0.000 OA
ATOM     19  H   UNL     1       2.171  10.384  20.661  0.00  0.00    +0.000 HD
ENDBRANCH   6  15
BRANCH   1  21
ATOM     20  N   UNL     1       2.255   8.181  18.220  0.00  0.00    +0.000 N 
ATOM     21  C   UNL     1       1.721   9.469  18.007  0.00  0.00    +0.000 C 
ATOM     22  O   UNL     1       2.398  10.352  17.469  0.00  0.00    +0.000 OA
BRANCH  20  23
ATOM     23  C   UNL     1       3.679   7.985  17.879  0.00  0.00    +0.000 C 
BRANCH  23  25
ATOM     24  C   UNL     1       5.007   6.562  16.148  0.00  0.00    +0.000 C 
ATOM     25  C   UNL     1       4.094   6.598  17.367  0.00  0.00    +0.000 C 
ENDBRANCH  23  25
ENDBRANCH  20  23
BRANCH  20  26
ATOM     26  C   UNL     1       1.466   7.122  18.897  0.00  0.00    +0.000 C 
BRANCH  26  27
ATOM     27  C   UNL     1       2.026   6.457  20.157  0.00  0.00    +0.000 C 
BRANCH  27  28
ATOM     28  C   UNL     1       1.829   4.951  20.216  0.00  0.00    +0.000 A 
ATOM     29  C   UNL     1       1.432   4.255  19.064  0.00  0.00    +0.000 A 
ATOM     30  C   UNL     1       1.371   2.858  19.053  0.00  0.00    +0.000 A 
ATOM     31  C   UNL     1       1.698   2.133  20.194  0.00  0.00    +0.000 A 
ATOM     32  C   UNL     1       2.066   2.810  21.356  0.00  0.00    +0.000 A 
ATOM     33  C   UNL     1       2.128   4.210  21.370  0.00  0.00    +0.000 A 
ENDBRANCH  27  28
ENDBRANCH  26  27
ENDBRANCH  20  26
ENDBRANCH   1  21
BRANCH   3  34
ATOM     34  C   UNL     1      -2.831  10.669  16.715  0.00  0.00    +0.000 C 
ATOM     35  O   UNL     1      -3.017   9.763  15.916  0.00  0.00    +0.000 OA
BRANCH  34  36
ATOM     36  O   UNL     1      -3.569  11.798  16.736  0.00  0.00    +0.000 OA
ATOM     37  H   UNL     1      -4.421  11.643  17.184  0.00  0.00    +0.000 HD
ENDBRANCH  34  36
ENDBRANCH   3  34
TORSDOF 10
ENDMDL
MODEL 7
REMARK VINA RESULT:      -6.1      5.843     10.010
REMARK  Name = 
REMARK  12 active torsions:
REMARK  status: ('A' for Active; 'I' for Inactive)
REMARK    1  A    between atoms: C_1  and  C_2
REMARK    2  A    between atoms: C_2  and  C_3
REMARK    3  A    between atoms: C_3  and  N_4
REMARK    4  A    between atoms: N_4  and  C_5
REMARK    5  A    between atoms: C_5  and  C_6
REMARK    6  A    between atoms: C_6  and  C_7
REMARK    7  A    between atoms: C_13  and  C_15
REMARK    8  A    between atoms: C_17  and  C_18
REMARK    9  A    between atoms: C_18  and  O_20
REMARK   10  A    between atoms: C_22  and  N_23
REMARK   11  A    between atoms: C_27  and  N_28
REMARK   12  A    between atoms: C_29  and  C_30
REMARK                            x       y       z     vdW  Elec       q    Type
REMARK                         _______ _______ _______ _____ _____    ______ ____
ROOT
ATOM      1  C   UNL     1       4.475   5.195  19.146  0.00  0.00    +0.000 C 
ATOM      2  O   UNL     1       5.175   6.403  18.789  0.00  0.00    +0.000 OA
ATOM      3  C   UNL     1       6.242   6.204  17.935  0.00  0.00    +0.000 C 
ATOM      4  C   UNL     1       6.334   5.156  17.099  0.00  0.00    +0.000 C 
ATOM      5  C   UNL     1       5.292   4.087  16.993  0.00  0.00    +0.000 C 
ATOM      6  C   UNL     1       4.062   4.362  17.903  0.00  0.00    +0.000 C 
ENDROOT
BRANCH   5   7
ATOM      7  N   UNL     1       4.869   4.060  15.588  0.00  0.00    +0.000 NA
ATOM      8  C   UNL     1       5.734   4.143  14.649  0.00  0.00    +0.000 C 
ATOM      9  N   UNL     1       7.072   4.267  14.704  0.00  0.00    +0.000 N 
ATOM     10  N   UNL     1       5.338   4.097  13.363  0.00  0.00    +0.000 N 
ATOM     11  H   UNL     1       7.465   4.083  15.621  0.00  0.00    +0.000 HD
ATOM     12  H   UNL     1       7.549   3.722  13.991  0.00  0.00    +0.000 HD
ATOM     13  H   UNL     1       4.344   4.275  13.277  0.00  0.00    +0.000 HD
ATOM     14  H   UNL     1       5.876   4.696  12.751  0.00  0.00    +0.000 HD
ENDBRANCH   5   7
BRANCH   6  15
ATOM     15  N   UNL     1       3.298   3.129  18.230  0.00  0.00    +0.000 N 
ATOM     16  C   UNL     1       1.951   2.974  18.019  0.00  0.00    +0.000 C 
ATOM     17  C   UNL     1       1.417   1.596  18.320  0.00  0.00    +0.000 C 
ATOM     18  O   UNL     1       1.222   3.892  17.657  0.00  0.00    +0.000 OA
ATOM     19  H   UNL     1       3.865   2.284  18.229  0.00  0.00    +0.000 HD
ENDBRANCH   6  15
BRANCH   1  21
ATOM     20  N   UNL     1       2.523   6.772  19.613  0.00  0.00    +0.000 N 
ATOM     21  C   UNL     1       3.216   5.596  19.970  0.00  0.00    +0.000 C 
ATOM     22  O   UNL     1       2.863   4.928  20.948  0.00  0.00    +0.000 OA
BRANCH  20  23
ATOM     23  C   UNL     1       1.449   7.215  20.524  0.00  0.00    +0.000 C 
BRANCH  23  25
ATOM     24  C   UNL     1       0.427   9.252  21.785  0.00  0.00    +0.000 C 
ATOM     25  C   UNL     1       1.671   8.531  21.285  0.00  0.00    +0.000 C 
ENDBRANCH  23  25
ENDBRANCH  20  23
BRANCH  20  26
ATOM     26  C   UNL     1       2.958   7.603  18.463  0.00  0.00    +0.000 C 
BRANCH  26  27
ATOM     27  C   UNL     1       1.907   8.165  17.502  0.00  0.00    +0.000 C 
BRANCH  27  28
ATOM     28  C   UNL     1       1.357   9.527  17.896  0.00  0.00    +0.000 A 
ATOM     29  C   UNL     1      -0.024   9.695  18.076  0.00  0.00    +0.000 A 
ATOM     30  C   UNL     1      -0.545  10.897  18.565  0.00  0.00    +0.000 A 
ATOM     31  C   UNL     1       0.305  11.954  18.875  0.00  0.00    +0.000 A 
ATOM     32  C   UNL     1       1.678  11.814  18.674  0.00  0.00    +0.000 A 
ATOM     33  C   UNL     1       2.202  10.611  18.184  0.00  0.00    +0.000 A 
ENDBRANCH  27  28
ENDBRANCH  26  27
ENDBRANCH  20  26
ENDBRANCH   1  21
BRANCH   3  34
ATOM     34  C   UNL     1       7.357   7.204  17.945  0.00  0.00    +0.000 C 
ATOM     35  O   UNL     1       7.473   8.141  17.169  0.00  0.00    +0.000 OA
BRANCH  34  36
ATOM     36  O   UNL     1       8.258   6.928  18.911  0.00  0.00    +0.000 OA
ATOM     37  H   UNL     1       9.016   7.538  18.856  0.00  0.00    +0.000 HD
ENDBRANCH  34  36
ENDBRANCH   3  34
TORSDOF 10
ENDMDL
MODEL 8
REMARK VINA RESULT:      -6.1      2.573      5.275
REMARK  Name = 
REMARK  12 active torsions:
REMARK  status: ('A' for Active; 'I' for Inactive)
REMARK    1  A    between atoms: C_1  and  C_2
REMARK    2  A    between atoms: C_2  and  C_3
REMARK    3  A    between atoms: C_3  and  N_4
REMARK    4  A    between atoms: N_4  and  C_5
REMARK    5  A    between atoms: C_5  and  C_6
REMARK    6  A    between atoms: C_6  and  C_7
REMARK    7  A    between atoms: C_13  and  C_15
REMARK    8  A    between atoms: C_17  and  C_18
REMARK    9  A    between atoms: C_18  and  O_20
REMARK   10  A    between atoms: C_22  and  N_23
REMARK   11  A    between atoms: C_27  and  N_28
REMARK   12  A    between atoms: C_29  and  C_30
REMARK                            x       y       z     vdW  Elec       q    Type
REMARK                         _______ _______ _______ _____ _____    ______ ____
ROOT
ATOM      1  C   UNL     1      -3.221  12.616  19.996  0.00  0.00    +0.000 C 
ATOM      2  O   UNL     1      -2.414  12.122  21.083  0.00  0.00    +0.000 OA
ATOM      3  C   UNL     1      -2.390  12.949  22.188  0.00  0.00    +0.000 C 
ATOM      4  C   UNL     1      -3.370  13.819  22.482  0.00  0.00    +0.000 C 
ATOM      5  C   UNL     1      -4.603  13.988  21.650  0.00  0.00    +0.000 C 
ATOM      6  C   UNL     1      -4.655  12.999  20.452  0.00  0.00    +0.000 C 
ENDROOT
BRANCH   5   7
ATOM      7  N   UNL     1      -5.741  13.740  22.543  0.00  0.00    +0.000 NA
ATOM      8  C   UNL     1      -6.166  14.660  23.323  0.00  0.00    +0.000 C 
ATOM      9  N   UNL     1      -5.730  15.920  23.505  0.00  0.00    +0.000 N 
ATOM     10  N   UNL     1      -7.223  14.429  24.124  0.00  0.00    +0.000 N 
ATOM     11  H   UNL     1      -5.090  16.241  22.787  0.00  0.00    +0.000 HD
ATOM     12  H   UNL     1      -6.487  16.584  23.638  0.00  0.00    +0.000 HD
ATOM     13  H   UNL     1      -7.406  13.437  24.217  0.00  0.00    +0.000 HD
ATOM     14  H   UNL     1      -7.154  14.879  25.027  0.00  0.00    +0.000 HD
ENDBRANCH   5   7
BRANCH   6  15
ATOM     15  N   UNL     1      -5.532  13.472  19.349  0.00  0.00    +0.000 N 
ATOM     16  C   UNL     1      -6.849  13.114  19.199  0.00  0.00    +0.000 C 
ATOM     17  C   UNL     1      -7.569  13.810  18.073  0.00  0.00    +0.000 C 
ATOM     18  O   UNL     1      -7.392  12.261  19.895  0.00  0.00    +0.000 OA
ATOM     19  H   UNL     1      -5.251  14.368  18.959  0.00  0.00    +0.000 HD
ENDBRANCH   6  15
BRANCH   1  21
ATOM     20  N   UNL     1      -2.089  11.164  18.228  0.00  0.00    +0.000 N 
ATOM     21  C   UNL     1      -3.280  11.510  18.901  0.00  0.00    +0.000 C 
ATOM     22  O   UNL     1      -4.355  10.985  18.592  0.00  0.00    +0.000 OA
BRANCH  20  23
ATOM     23  C   UNL     1      -2.217  10.247  17.077  0.00  0.00    +0.000 C 
BRANCH  23  25
ATOM     24  C   UNL     1      -3.593  10.118  14.869  0.00  0.00    +0.000 C 
ATOM     25  C   UNL     1      -2.577  10.870  15.719  0.00  0.00    +0.000 C 
ENDBRANCH  23  25
ENDBRANCH  20  23
BRANCH  20  26
ATOM     26  C   UNL     1      -0.798  11.813  18.564  0.00  0.00    +0.000 C 
BRANCH  26  27
ATOM     27  C   UNL     1       0.061  11.239  19.694  0.00  0.00    +0.000 C 
BRANCH  27  28
ATOM     28  C   UNL     1       0.786   9.951  19.341  0.00  0.00    +0.000 A 
ATOM     29  C   UNL     1       1.297   9.770  18.046  0.00  0.00    +0.000 A 
ATOM     30  C   UNL     1       2.081   8.657  17.731  0.00  0.00    +0.000 A 
ATOM     31  C   UNL     1       2.363   7.700  18.701  0.00  0.00    +0.000 A 
ATOM     32  C   UNL     1       1.840   7.849  19.985  0.00  0.00    +0.000 A 
ATOM     33  C   UNL     1       1.054   8.963  20.304  0.00  0.00    +0.000 A 
ENDBRANCH  27  28
ENDBRANCH  26  27
ENDBRANCH  20  26
ENDBRANCH   1  21
BRANCH   3  34
ATOM     34  C   UNL     1      -1.206  12.879  23.103  0.00  0.00    +0.000 C 
ATOM     35  O   UNL     1      -0.738  13.820  23.727  0.00  0.00    +0.000 OA
BRANCH  34  36
ATOM     36  O   UNL     1      -0.682  11.637  23.138  0.00  0.00    +0.000 OA
ATOM     37  H   UNL     1       0.267  11.658  22.914  0.00  0.00    +0.000 HD
ENDBRANCH  34  36
ENDBRANCH   3  34
TORSDOF 10
ENDMDL
MODEL 9
REMARK VINA RESULT:      -6.0      5.156      9.682
REMARK  Name = 
REMARK  12 active torsions:
REMARK  status: ('A' for Active; 'I' for Inactive)
REMARK    1  A    between atoms: C_1  and  C_2
REMARK    2  A    between atoms: C_2  and  C_3
REMARK    3  A    between atoms: C_3  and  N_4
REMARK    4  A    between atoms: N_4  and  C_5
REMARK    5  A    between atoms: C_5  and  C_6
REMARK    6  A    between atoms: C_6  and  C_7
REMARK    7  A    between atoms: C_13  and  C_15
REMARK    8  A    between atoms: C_17  and  C_18
REMARK    9  A    between atoms: C_18  and  O_20
REMARK   10  A    between atoms: C_22  and  N_23
REMARK   11  A    between atoms: C_27  and  N_28
REMARK   12  A    between atoms: C_29  and  C_30
REMARK                            x       y       z     vdW  Elec       q    Type
REMARK                         _______ _______ _______ _____ _____    ______ ____
ROOT
ATOM      1  C   UNL     1       2.852   6.398  18.416  0.00  0.00    +0.000 C 
ATOM      2  O   UNL     1       2.271   6.027  19.681  0.00  0.00    +0.000 OA
ATOM      3  C   UNL     1       2.754   4.840  20.197  0.00  0.00    +0.000 C 
ATOM      4  C   UNL     1       3.963   4.340  19.892  0.00  0.00    +0.000 C 
ATOM      5  C   UNL     1       4.927   5.011  18.965  0.00  0.00    +0.000 C 
ATOM      6  C   UNL     1       4.405   6.382  18.452  0.00  0.00    +0.000 C 
ENDROOT
BRANCH   5   7
ATOM      7  N   UNL     1       6.164   5.210  19.729  0.00  0.00    +0.000 NA
ATOM      8  C   UNL     1       7.301   4.961  19.200  0.00  0.00    +0.000 C 
ATOM      9  N   UNL     1       7.610   4.505  17.973  0.00  0.00    +0.000 N 
ATOM     10  N   UNL     1       8.431   5.167  19.902  0.00  0.00    +0.000 N 
ATOM     11  H   UNL     1       6.840   4.540  17.314  0.00  0.00    +0.000 HD
ATOM     12  H   UNL     1       8.438   4.947  17.584  0.00  0.00    +0.000 HD
ATOM     13  H   UNL     1       8.240   5.246  20.894  0.00  0.00    +0.000 HD
ATOM     14  H   UNL     1       9.153   4.483  19.718  0.00  0.00    +0.000 HD
ENDBRANCH   5   7
BRANCH   6  15
ATOM     15  N   UNL     1       5.041   6.802  17.175  0.00  0.00    +0.000 N 
ATOM     16  C   UNL     1       5.163   5.997  16.070  0.00  0.00    +0.000 C 
ATOM     17  C   UNL     1       5.739   6.677  14.853  0.00  0.00    +0.000 C 
ATOM     18  O   UNL     1       4.870   4.806  16.075  0.00  0.00    +0.000 OA
ATOM     19  H   UNL     1       5.012   7.806  17.014  0.00  0.00    +0.000 HD
ENDBRANCH   6  15
BRANCH   1  21
ATOM     20  N   UNL     1       1.593   8.536  19.011  0.00  0.00    +0.000 N 
ATOM     21  C   UNL     1       2.335   7.820  18.048  0.00  0.00    +0.000 C 
ATOM     22  O   UNL     1       2.525   8.289  16.921  0.00  0.00    +0.000 OA
BRANCH  20  23
ATOM     23  C   UNL     1       0.968   9.798  18.566  0.00  0.00    +0.000 C 
BRANCH  23  25
ATOM     24  C   UNL     1      -1.446  10.773  18.488  0.00  0.00    +0.000 C 
ATOM     25  C   UNL     1      -0.461   9.716  18.008  0.00  0.00    +0.000 C 
ENDBRANCH  23  25
ENDBRANCH  20  23
BRANCH  20  26
ATOM     26  C   UNL     1       1.327   7.970  20.356  0.00  0.00    +0.000 C 
BRANCH  26  27
ATOM     27  C   UNL     1       1.639   8.808  21.600  0.00  0.00    +0.000 C 
BRANCH  27  28
ATOM     28  C   UNL     1       0.597   9.866  21.924  0.00  0.00    +0.000 A 
ATOM     29  C   UNL     1      -0.412   9.587  22.859  0.00  0.00    +0.000 A 
ATOM     30  C   UNL     1      -1.302  10.582  23.275  0.00  0.00    +0.000 A 
ATOM     31  C   UNL     1      -1.205  11.870  22.758  0.00  0.00    +0.000 A 
ATOM     32  C   UNL     1      -0.227  12.157  21.807  0.00  0.00    +0.000 A 
ATOM     33  C   UNL     1       0.666  11.163  21.388  0.00  0.00    +0.000 A 
ENDBRANCH  27  28
ENDBRANCH  26  27
ENDBRANCH  20  26
ENDBRANCH   1  21
BRANCH   3  34
ATOM     34  C   UNL     1       1.883   4.067  21.139  0.00  0.00    +0.000 C 
ATOM     35  O   UNL     1       2.250   3.564  22.190  0.00  0.00    +0.000 OA
BRANCH  34  36
ATOM     36  O   UNL     1       0.623   3.958  20.668  0.00  0.00    +0.000 OA
ATOM     37  H   UNL     1       0.468   3.067  20.305  0.00  0.00    +0.000 HD
ENDBRANCH  34  36
ENDBRANCH   3  34
TORSDOF 10
ENDMDL
