MODEL 1
REMARK VINA RESULT:      -6.3      0.000      0.000
REMARK  Name = 
REMARK  18 active torsions:
REMARK  status: ('A' for Active; 'I' for Inactive)
REMARK    1  A    between atoms: C_1  and  C_2
REMARK    2  A    between atoms: C_2  and  C_3
REMARK    3  A    between atoms: C_3  and  C_4
REMARK    4  A    between atoms: C_4  and  C_5
REMARK    5  A    between atoms: C_5  and  C_6
REMARK    6  A    between atoms: C_6  and  C_7
REMARK    7  A    between atoms: C_7  and  C_8
REMARK    8  A    between atoms: C_8  and  C_9
REMARK    9  A    between atoms: C_9  and  C_10
REMARK   10  A    between atoms: C_10  and  C_11
REMARK   11  A    between atoms: C_11  and  C_12
REMARK   12  A    between atoms: C_12  and  N_13
REMARK   13  A    between atoms: C_14  and  C_16
REMARK   14  A    between atoms: C_19  and  C_20
REMARK   15  A    between atoms: C_23  and  O_24
REMARK   16  A    between atoms: O_24  and  C_25
REMARK   17  A    between atoms: C_26  and  O_27
REMARK   18  A    between atoms: O_27  and  C_28
REMARK                            x       y       z     vdW  Elec       q    Type
REMARK                         _______ _______ _______ _____ _____    ______ ____
ROOT
ATOM      1  N   UNL     1       2.319   5.726  18.544  0.00  0.00    +0.000 N 
ATOM      2  C   UNL     1       1.628   4.654  18.013  0.00  0.00    +0.000 C 
ATOM      3  O   UNL     1       0.993   4.690  16.968  0.00  0.00    +0.000 OA
ATOM      4  H   UNL     1       2.521   5.618  19.537  0.00  0.00    +0.000 HD
ENDROOT
BRANCH   2   5
ATOM      5  C   UNL     1       1.859   3.367  18.832  0.00  0.00    +0.000 C 
ATOM      6  C   UNL     1       2.409   3.637  20.236  0.00  0.00    +0.000 C 
ATOM      7  S   UNL     1       3.758   2.439  20.402  0.00  0.00    +0.000 S 
ATOM      8  C   UNL     1       4.090   2.498  18.620  0.00  0.00    +0.000 C 
ATOM      9  N   UNL     1       2.733   2.416  18.052  0.00  0.00    +0.000 NA
ATOM     10  H   UNL     1       2.407   1.483  18.310  0.00  0.00    +0.000 HD
BRANCH   8  11
ATOM     11  C   UNL     1       4.864   3.715  18.123  0.00  0.00    +0.000 A 
ATOM     12  C   UNL     1       5.536   4.589  18.984  0.00  0.00    +0.000 A 
ATOM     13  C   UNL     1       6.192   5.724  18.506  0.00  0.00    +0.000 A 
ATOM     14  C   UNL     1       6.233   6.017  17.143  0.00  0.00    +0.000 A 
ATOM     15  C   UNL     1       5.623   5.128  16.244  0.00  0.00    +0.000 A 
ATOM     16  C   UNL     1       4.943   3.995  16.744  0.00  0.00    +0.000 A 
BRANCH  14  17
ATOM     17  O   UNL     1       6.905   7.115  16.670  0.00  0.00    +0.000 OA
ATOM     18  C   UNL     1       7.663   7.858  17.621  0.00  0.00    +0.000 C 
ENDBRANCH  14  17
BRANCH  15  19
ATOM     19  O   UNL     1       5.571   5.207  14.874  0.00  0.00    +0.000 OA
ATOM     20  C   UNL     1       5.910   4.054  14.116  0.00  0.00    +0.000 C 
ENDBRANCH  15  19
ENDBRANCH   8  11
ENDBRANCH   2   5
BRANCH   1  21
ATOM     21  C   UNL     1       2.175   7.054  17.998  0.00  0.00    +0.000 C 
BRANCH  21  22
ATOM     22  C   UNL     1       1.908   8.088  19.085  0.00  0.00    +0.000 C 
BRANCH  22  23
ATOM     23  C   UNL     1       1.807   7.408  20.449  0.00  0.00    +0.000 C 
BRANCH  23  24
ATOM     24  C   UNL     1       1.501   8.409  21.559  0.00  0.00    +0.000 C 
BRANCH  24  25
ATOM     25  C   UNL     1       0.102   8.995  21.386  0.00  0.00    +0.000 C 
BRANCH  25  26
ATOM     26  C   UNL     1      -0.507   9.351  22.738  0.00  0.00    +0.000 C 
BRANCH  26  27
ATOM     27  C   UNL     1      -0.875  10.829  22.796  0.00  0.00    +0.000 C 
BRANCH  27  28
ATOM     28  C   UNL     1      -0.562  11.514  21.470  0.00  0.00    +0.000 C 
BRANCH  28  29
ATOM     29  C   UNL     1      -1.780  12.269  20.948  0.00  0.00    +0.000 C 
BRANCH  29  30
ATOM     30  C   UNL     1      -2.026  11.945  19.477  0.00  0.00    +0.000 C 
BRANCH  30  32
ATOM     31  C   UNL     1      -1.154  10.133  17.976  0.00  0.00    +0.000 C 
ATOM     32  C   UNL     1      -0.786  11.329  18.837  0.00  0.00    +0.000 C 
ENDBRANCH  30  32
ENDBRANCH  29  30
ENDBRANCH  28  29
ENDBRANCH  27  28
ENDBRANCH  26  27
ENDBRANCH  25  26
ENDBRANCH  24  25
ENDBRANCH  23  24
ENDBRANCH  22  23
ENDBRANCH  21  22
ENDBRANCH   1  21
TORSDOF 15
ENDMDL
MODEL 2
REMARK VINA RESULT:      -6.2      1.036      2.117
REMARK  Name = 
REMARK  18 active torsions:
REMARK  status: ('A' for Active; 'I' for Inactive)
REMARK    1  A    between atoms: C_1  and  C_2
REMARK    2  A    between atoms: C_2  and  C_3
REMARK    3  A    between atoms: C_3  and  C_4
REMARK    4  A    between atoms: C_4  and  C_5
REMARK    5  A    between atoms: C_5  and  C_6
REMARK    6  A    between atoms: C_6  and  C_7
REMARK    7  A    between atoms: C_7  and  C_8
REMARK    8  A    between atoms: C_8  and  C_9
REMARK    9  A    between atoms: C_9  and  C_10
REMARK   10  A    between atoms: C_10  and  C_11
REMARK   11  A    between atoms: C_11  and  C_12
REMARK   12  A    between atoms: C_12  and  N_13
REMARK   13  A    between atoms: C_14  and  C_16
REMARK   14  A    between atoms: C_19  and  C_20
REMARK   15  A    between atoms: C_23  and  O_24
REMARK   16  A    between atoms: O_24  and  C_25
REMARK   17  A    between atoms: C_26  and  O_27
REMARK   18  A    between atoms: O_27  and  C_28
REMARK                            x       y       z     vdW  Elec       q    Type
REMARK                         _______ _______ _______ _____ _____    ______ ____
ROOT
ATOM      1  N   UNL     1       2.147   5.310  18.549  0.00  0.00    +0.000 N 
ATOM      2  C   UNL     1       1.546   4.154  18.089  0.00  0.00    +0.000 C 
ATOM      3  O   UNL     1       0.905   4.076  17.050  0.00  0.00    +0.000 OA
ATOM      4  H   UNL     1       2.363   5.277  19.544  0.00  0.00    +0.000 HD
ENDROOT
BRANCH   2   5
ATOM      5  C   UNL     1       1.888   2.942  18.979  0.00  0.00    +0.000 C 
ATOM      6  C   UNL     1       2.384   3.338  20.374  0.00  0.00    +0.000 C 
ATOM      7  S   UNL     1       3.842   2.292  20.621  0.00  0.00    +0.000 S 
ATOM      8  C   UNL     1       4.199   2.290  18.843  0.00  0.00    +0.000 C 
ATOM      9  N   UNL     1       2.867   2.044  18.263  0.00  0.00    +0.000 NA
ATOM     10  H   UNL     1       2.631   1.097  18.567  0.00  0.00    +0.000 HD
BRANCH   8  11
ATOM     11  C   UNL     1       4.857   3.551  18.290  0.00  0.00    +0.000 A 
ATOM     12  C   UNL     1       5.431   4.527  19.111  0.00  0.00    +0.000 A 
ATOM     13  C   UNL     1       5.980   5.695  18.582  0.00  0.00    +0.000 A 
ATOM     14  C   UNL     1       6.008   5.925  17.206  0.00  0.00    +0.000 A 
ATOM     15  C   UNL     1       5.496   4.937  16.349  0.00  0.00    +0.000 A 
ATOM     16  C   UNL     1       4.924   3.769  16.900  0.00  0.00    +0.000 A 
BRANCH  14  17
ATOM     17  O   UNL     1       6.575   7.058  16.683  0.00  0.00    +0.000 OA
ATOM     18  C   UNL     1       7.587   7.684  17.466  0.00  0.00    +0.000 C 
ENDBRANCH  14  17
BRANCH  15  19
ATOM     19  O   UNL     1       5.452   4.944  14.976  0.00  0.00    +0.000 OA
ATOM     20  C   UNL     1       6.238   3.995  14.268  0.00  0.00    +0.000 C 
ENDBRANCH  15  19
ENDBRANCH   8  11
ENDBRANCH   2   5
BRANCH   1  21
ATOM     21  C   UNL     1       1.889   6.586  17.928  0.00  0.00    +0.000 C 
BRANCH  21  22
ATOM     22  C   UNL     1       2.596   7.723  18.656  0.00  0.00    +0.000 C 
BRANCH  22  23
ATOM     23  C   UNL     1       2.401   9.037  17.902  0.00  0.00    +0.000 C 
BRANCH  23  24
ATOM     24  C   UNL     1       0.959   9.527  17.981  0.00  0.00    +0.000 C 
BRANCH  24  25
ATOM     25  C   UNL     1       0.778  10.486  19.155  0.00  0.00    +0.000 C 
BRANCH  25  26
ATOM     26  C   UNL     1      -0.380  10.045  20.043  0.00  0.00    +0.000 C 
BRANCH  26  27
ATOM     27  C   UNL     1       0.072   8.982  21.037  0.00  0.00    +0.000 C 
BRANCH  27  28
ATOM     28  C   UNL     1       0.195   9.572  22.438  0.00  0.00    +0.000 C 
BRANCH  28  29
ATOM     29  C   UNL     1      -0.335  11.001  22.474  0.00  0.00    +0.000 C 
BRANCH  29  30
ATOM     30  C   UNL     1      -1.642  11.072  23.258  0.00  0.00    +0.000 C 
BRANCH  30  32
ATOM     31  C   UNL     1      -1.243  13.528  22.934  0.00  0.00    +0.000 C 
ATOM     32  C   UNL     1      -2.292  12.445  23.118  0.00  0.00    +0.000 C 
ENDBRANCH  30  32
ENDBRANCH  29  30
ENDBRANCH  28  29
ENDBRANCH  27  28
ENDBRANCH  26  27
ENDBRANCH  25  26
ENDBRANCH  24  25
ENDBRANCH  23  24
ENDBRANCH  22  23
ENDBRANCH  21  22
ENDBRANCH   1  21
TORSDOF 15
ENDMDL
MODEL 3
REMARK VINA RESULT:      -6.2      2.877      8.326
REMARK  Name = 
REMARK  18 active torsions:
REMARK  status: ('A' for Active; 'I' for Inactive)
REMARK    1  A    between atoms: C_1  and  C_2
REMARK    2  A    between atoms: C_2  and  C_3
REMARK    3  A    between atoms: C_3  and  C_4
REMARK    4  A    between atoms: C_4  and  C_5
REMARK    5  A    between atoms: C_5  and  C_6
REMARK    6  A    between atoms: C_6  and  C_7
REMARK    7  A    between atoms: C_7  and  C_8
REMARK    8  A    between atoms: C_8  and  C_9
REMARK    9  A    between atoms: C_9  and  C_10
REMARK   10  A    between atoms: C_10  and  C_11
REMARK   11  A    between atoms: C_11  and  C_12
REMARK   12  A    between atoms: C_12  and  N_13
REMARK   13  A    between atoms: C_14  and  C_16
REMARK   14  A    between atoms: C_19  and  C_20
REMARK   15  A    between atoms: C_23  and  O_24
REMARK   16  A    between atoms: O_24  and  C_25
REMARK   17  A    between atoms: C_26  and  O_27
REMARK   18  A    between atoms: O_27  and  C_28
REMARK                            x       y       z     vdW  Elec       q    Type
REMARK                         _______ _______ _______ _____ _____    ______ ____
ROOT
ATOM      1  N   UNL     1       6.035   3.702  18.550  0.00  0.00    +0.000 N 
ATOM      2  C   UNL     1       4.999   4.139  19.353  0.00  0.00    +0.000 C 
ATOM      3  O   UNL     1       4.844   5.298  19.710  0.00  0.00    +0.000 OA
ATOM      4  H   UNL     1       6.186   2.696  18.607  0.00  0.00    +0.000 HD
ENDROOT
BRANCH   2   5
ATOM      5  C   UNL     1       3.987   3.011  19.639  0.00  0.00    +0.000 C 
ATOM      6  C   UNL     1       3.118   2.657  18.428  0.00  0.00    +0.000 C 
ATOM      7  S   UNL     1       1.444   2.570  19.115  0.00  0.00    +0.000 S 
ATOM      8  C   UNL     1       1.843   3.822  20.366  0.00  0.00    +0.000 C 
ATOM      9  N   UNL     1       3.157   3.364  20.849  0.00  0.00    +0.000 NA
ATOM     10  H   UNL     1       2.961   2.471  21.306  0.00  0.00    +0.000 HD
BRANCH   8  11
ATOM     11  C   UNL     1       1.866   5.268  19.882  0.00  0.00    +0.000 A 
ATOM     12  C   UNL     1       1.988   5.615  18.533  0.00  0.00    +0.000 A 
ATOM     13  C   UNL     1       2.058   6.946  18.124  0.00  0.00    +0.000 A 
ATOM     14  C   UNL     1       1.978   7.992  19.043  0.00  0.00    +0.000 A 
ATOM     15  C   UNL     1       1.792   7.683  20.400  0.00  0.00    +0.000 A 
ATOM     16  C   UNL     1       1.745   6.329  20.802  0.00  0.00    +0.000 A 
BRANCH  14  17
ATOM     17  O   UNL     1       2.015   9.302  18.638  0.00  0.00    +0.000 OA
ATOM     18  C   UNL     1       0.928   9.753  17.837  0.00  0.00    +0.000 C 
ENDBRANCH  14  17
BRANCH  15  19
ATOM     19  O   UNL     1       1.659   8.548  21.458  0.00  0.00    +0.000 OA
ATOM     20  C   UNL     1       0.377   9.105  21.719  0.00  0.00    +0.000 C 
ENDBRANCH  15  19
ENDBRANCH   8  11
ENDBRANCH   2   5
BRANCH   1  21
ATOM     21  C   UNL     1       7.149   4.562  18.232  0.00  0.00    +0.000 C 
BRANCH  21  22
ATOM     22  C   UNL     1       7.166   4.945  16.757  0.00  0.00    +0.000 C 
BRANCH  22  23
ATOM     23  C   UNL     1       5.817   4.630  16.113  0.00  0.00    +0.000 C 
BRANCH  23  24
ATOM     24  C   UNL     1       5.693   5.256  14.728  0.00  0.00    +0.000 C 
BRANCH  24  25
ATOM     25  C   UNL     1       6.950   4.996  13.903  0.00  0.00    +0.000 C 
BRANCH  25  26
ATOM     26  C   UNL     1       6.903   3.613  13.261  0.00  0.00    +0.000 C 
BRANCH  26  27
ATOM     27  C   UNL     1       6.492   3.707  11.797  0.00  0.00    +0.000 C 
BRANCH  27  28
ATOM     28  C   UNL     1       5.322   2.774  11.504  0.00  0.00    +0.000 C 
BRANCH  28  29
ATOM     29  C   UNL     1       3.993   3.507  11.652  0.00  0.00    +0.000 C 
BRANCH  29  30
ATOM     30  C   UNL     1       3.025   3.096  10.546  0.00  0.00    +0.000 C 
BRANCH  30  32
ATOM     31  C   UNL     1       2.054   4.904   9.104  0.00  0.00    +0.000 C 
ATOM     32  C   UNL     1       3.221   3.952   9.300  0.00  0.00    +0.000 C 
ENDBRANCH  30  32
ENDBRANCH  29  30
ENDBRANCH  28  29
ENDBRANCH  27  28
ENDBRANCH  26  27
ENDBRANCH  25  26
ENDBRANCH  24  25
ENDBRANCH  23  24
ENDBRANCH  22  23
ENDBRANCH  21  22
ENDBRANCH   1  21
TORSDOF 15
ENDMDL
MODEL 4
REMARK VINA RESULT:      -6.1      1.229      1.797
REMARK  Name = 
REMARK  18 active torsions:
REMARK  status: ('A' for Active; 'I' for Inactive)
REMARK    1  A    between atoms: C_1  and  C_2
REMARK    2  A    between atoms: C_2  and  C_3
REMARK    3  A    between atoms: C_3  and  C_4
REMARK    4  A    between atoms: C_4  and  C_5
REMARK    5  A    between atoms: C_5  and  C_6
REMARK    6  A    between atoms: C_6  and  C_7
REMARK    7  A    between atoms: C_7  and  C_8
REMARK    8  A    between atoms: C_8  and  C_9
REMARK    9  A    between atoms: C_9  and  C_10
REMARK   10  A    between atoms: C_10  and  C_11
REMARK   11  A    between atoms: C_11  and  C_12
REMARK   12  A    between atoms: C_12  and  N_13
REMARK   13  A    between atoms: C_14  and  C_16
REMARK   14  A    between atoms: C_19  and  C_20
REMARK   15  A    between atoms: C_23  and  O_24
REMARK   16  A    between atoms: O_24  and  C_25
REMARK   17  A    between atoms: C_26  and  O_27
REMARK   18  A    between atoms: O_27  and  C_28
REMARK                            x       y       z     vdW  Elec       q    Type
REMARK                         _______ _______ _______ _____ _____    ______ ____
ROOT
ATOM      1  N   UNL     1       2.707   6.086  19.107  0.00  0.00    +0.000 N 
ATOM      2  C   UNL     1       1.960   5.105  18.484  0.00  0.00    +0.000 C 
ATOM      3  O   UNL     1       1.324   5.272  17.453  0.00  0.00    +0.000 OA
ATOM      4  H   UNL     1       2.908   5.875  20.083  0.00  0.00    +0.000 HD
ENDROOT
BRANCH   2   5
ATOM      5  C   UNL     1       2.129   3.737  19.176  0.00  0.00    +0.000 C 
ATOM      6  C   UNL     1       2.845   3.829  20.527  0.00  0.00    +0.000 C 
ATOM      7  S   UNL     1       4.063   2.490  20.456  0.00  0.00    +0.000 S 
ATOM      8  C   UNL     1       4.218   2.665  18.657  0.00  0.00    +0.000 C 
ATOM      9  N   UNL     1       2.810   2.771  18.237  0.00  0.00    +0.000 NA
ATOM     10  H   UNL     1       2.410   1.857  18.461  0.00  0.00    +0.000 HD
BRANCH   8  11
ATOM     11  C   UNL     1       5.068   3.834  18.169  0.00  0.00    +0.000 A 
ATOM     12  C   UNL     1       5.867   4.599  19.024  0.00  0.00    +0.000 A 
ATOM     13  C   UNL     1       6.594   5.695  18.559  0.00  0.00    +0.000 A 
ATOM     14  C   UNL     1       6.578   6.057  17.212  0.00  0.00    +0.000 A 
ATOM     15  C   UNL     1       5.835   5.274  16.314  0.00  0.00    +0.000 A 
ATOM     16  C   UNL     1       5.087   4.179  16.803  0.00  0.00    +0.000 A 
BRANCH  14  17
ATOM     17  O   UNL     1       7.316   7.115  16.749  0.00  0.00    +0.000 OA
ATOM     18  C   UNL     1       7.830   8.012  17.729  0.00  0.00    +0.000 C 
ENDBRANCH  14  17
BRANCH  15  19
ATOM     19  O   UNL     1       5.706   5.431  14.955  0.00  0.00    +0.000 OA
ATOM     20  C   UNL     1       6.534   4.651  14.103  0.00  0.00    +0.000 C 
ENDBRANCH  15  19
ENDBRANCH   8  11
ENDBRANCH   2   5
BRANCH   1  21
ATOM     21  C   UNL     1       2.628   7.465  18.689  0.00  0.00    +0.000 C 
BRANCH  21  22
ATOM     22  C   UNL     1       1.463   8.191  19.350  0.00  0.00    +0.000 C 
BRANCH  22  23
ATOM     23  C   UNL     1       1.566   8.083  20.871  0.00  0.00    +0.000 C 
BRANCH  23  24
ATOM     24  C   UNL     1       0.822   9.218  21.569  0.00  0.00    +0.000 C 
BRANCH  24  25
ATOM     25  C   UNL     1       0.591  10.383  20.610  0.00  0.00    +0.000 C 
BRANCH  25  26
ATOM     26  C   UNL     1      -0.721  11.093  20.924  0.00  0.00    +0.000 C 
BRANCH  26  27
ATOM     27  C   UNL     1      -1.344  11.670  19.659  0.00  0.00    +0.000 C 
BRANCH  27  28
ATOM     28  C   UNL     1      -1.358  10.630  18.543  0.00  0.00    +0.000 C 
BRANCH  28  29
ATOM     29  C   UNL     1      -2.778  10.383  18.047  0.00  0.00    +0.000 C 
BRANCH  29  30
ATOM     30  C   UNL     1      -2.763   9.685  16.691  0.00  0.00    +0.000 C 
BRANCH  30  32
ATOM     31  C   UNL     1      -3.335  10.130  14.289  0.00  0.00    +0.000 C 
ATOM     32  C   UNL     1      -2.713  10.699  15.552  0.00  0.00    +0.000 C 
ENDBRANCH  30  32
ENDBRANCH  29  30
ENDBRANCH  28  29
ENDBRANCH  27  28
ENDBRANCH  26  27
ENDBRANCH  25  26
ENDBRANCH  24  25
ENDBRANCH  23  24
ENDBRANCH  22  23
ENDBRANCH  21  22
ENDBRANCH   1  21
TORSDOF 15
ENDMDL
MODEL 5
REMARK VINA RESULT:      -6.1      3.995      9.023
REMARK  Name = 
REMARK  18 active torsions:
REMARK  status: ('A' for Active; 'I' for Inactive)
REMARK    1  A    between atoms: C_1  and  C_2
REMARK    2  A    between atoms: C_2  and  C_3
REMARK    3  A    between atoms: C_3  and  C_4
REMARK    4  A    between atoms: C_4  and  C_5
REMARK    5  A    between atoms: C_5  and  C_6
REMARK    6  A    between atoms: C_6  and  C_7
REMARK    7  A    between atoms: C_7  and  C_8
REMARK    8  A    between atoms: C_8  and  C_9
REMARK    9  A    between atoms: C_9  and  C_10
REMARK   10  A    between atoms: C_10  and  C_11
REMARK   11  A    between atoms: C_11  and  C_12
REMARK   12  A    between atoms: C_12  and  N_13
REMARK   13  A    between atoms: C_14  and  C_16
REMARK   14  A    between atoms: C_19  and  C_20
REMARK   15  A    between atoms: C_23  and  O_24
REMARK   16  A    between atoms: O_24  and  C_25
REMARK   17  A    between atoms: C_26  and  O_27
REMARK   18  A    between atoms: O_27  and  C_28
REMARK                            x       y       z     vdW  Elec       q    Type
REMARK                         _______ _______ _______ _____ _____    ______ ____
ROOT
ATOM      1  N   UNL     1       1.248   8.577  20.914  0.00  0.00    +0.000 N 
ATOM      2  C   UNL     1       0.114   8.959  21.606  0.00  0.00    +0.000 C 
ATOM      3  O   UNL     1      -0.864   8.245  21.776  0.00  0.00    +0.000 OA
ATOM      4  H   UNL     1       1.813   9.367  20.608  0.00  0.00    +0.000 HD
ENDROOT
BRANCH   2   5
ATOM      5  C   UNL     1       0.282  10.351  22.248  0.00  0.00    +0.000 C 
ATOM      6  C   UNL     1      -1.036  10.942  22.761  0.00  0.00    +0.000 C 
ATOM      7  S   UNL     1      -1.002  12.648  22.151  0.00  0.00    +0.000 S 
ATOM      8  C   UNL     1      -0.041  12.156  20.693  0.00  0.00    +0.000 C 
ATOM      9  N   UNL     1       0.982  11.276  21.284  0.00  0.00    +0.000 NA
ATOM     10  H   UNL     1       1.542  11.898  21.871  0.00  0.00    +0.000 HD
BRANCH   8  11
ATOM     11  C   UNL     1      -0.823  11.480  19.572  0.00  0.00    +0.000 A 
ATOM     12  C   UNL     1      -0.274  10.480  18.762  0.00  0.00    +0.000 A 
ATOM     13  C   UNL     1      -0.995   9.916  17.709  0.00  0.00    +0.000 A 
ATOM     14  C   UNL     1      -2.308  10.303  17.439  0.00  0.00    +0.000 A 
ATOM     15  C   UNL     1      -2.911  11.260  18.271  0.00  0.00    +0.000 A 
ATOM     16  C   UNL     1      -2.162  11.839  19.320  0.00  0.00    +0.000 A 
BRANCH  14  17
ATOM     17  O   UNL     1      -3.027   9.727  16.425  0.00  0.00    +0.000 OA
ATOM     18  C   UNL     1      -2.791  10.224  15.111  0.00  0.00    +0.000 C 
ENDBRANCH  14  17
BRANCH  15  19
ATOM     19  O   UNL     1      -4.190  11.758  18.205  0.00  0.00    +0.000 OA
ATOM     20  C   UNL     1      -5.272  10.884  18.497  0.00  0.00    +0.000 C 
ENDBRANCH  15  19
ENDBRANCH   8  11
ENDBRANCH   2   5
BRANCH   1  21
ATOM     21  C   UNL     1       1.282   7.352  20.152  0.00  0.00    +0.000 C 
BRANCH  21  22
ATOM     22  C   UNL     1       2.695   7.011  19.693  0.00  0.00    +0.000 C 
BRANCH  22  23
ATOM     23  C   UNL     1       2.859   7.323  18.207  0.00  0.00    +0.000 C 
BRANCH  23  24
ATOM     24  C   UNL     1       3.995   6.519  17.583  0.00  0.00    +0.000 C 
BRANCH  24  25
ATOM     25  C   UNL     1       4.466   5.421  18.534  0.00  0.00    +0.000 C 
BRANCH  25  26
ATOM     26  C   UNL     1       4.846   4.162  17.764  0.00  0.00    +0.000 C 
BRANCH  26  27
ATOM     27  C   UNL     1       3.835   3.874  16.660  0.00  0.00    +0.000 C 
BRANCH  27  28
ATOM     28  C   UNL     1       2.515   3.391  17.252  0.00  0.00    +0.000 C 
BRANCH  28  29
ATOM     29  C   UNL     1       2.735   2.186  18.160  0.00  0.00    +0.000 C 
BRANCH  29  30
ATOM     30  C   UNL     1       1.961   2.345  19.465  0.00  0.00    +0.000 C 
BRANCH  30  32
ATOM     31  C   UNL     1       2.167   3.502  21.683  0.00  0.00    +0.000 C 
ATOM     32  C   UNL     1       2.896   2.702  20.617  0.00  0.00    +0.000 C 
ENDBRANCH  30  32
ENDBRANCH  29  30
ENDBRANCH  28  29
ENDBRANCH  27  28
ENDBRANCH  26  27
ENDBRANCH  25  26
ENDBRANCH  24  25
ENDBRANCH  23  24
ENDBRANCH  22  23
ENDBRANCH  21  22
ENDBRANCH   1  21
TORSDOF 15
ENDMDL
MODEL 6
REMARK VINA RESULT:      -6.1      1.970      2.991
REMARK  Name = 
REMARK  18 active torsions:
REMARK  status: ('A' for Active; 'I' for Inactive)
REMARK    1  A    between atoms: C_1  and  C_2
REMARK    2  A    between atoms: C_2  and  C_3
REMARK    3  A    between atoms: C_3  and  C_4
REMARK    4  A    between atoms: C_4  and  C_5
REMARK    5  A    between atoms: C_5  and  C_6
REMARK    6  A    between atoms: C_6  and  C_7
REMARK    7  A    between atoms: C_7  and  C_8
REMARK    8  A    between atoms: C_8  and  C_9
REMARK    9  A    between atoms: C_9  and  C_10
REMARK   10  A    between atoms: C_10  and  C_11
REMARK   11  A    between atoms: C_11  and  C_12
REMARK   12  A    between atoms: C_12  and  N_13
REMARK   13  A    between atoms: C_14  and  C_16
REMARK   14  A    between atoms: C_19  and  C_20
REMARK   15  A    between atoms: C_23  and  O_24
REMARK   16  A    between atoms: O_24  and  C_25
REMARK   17  A    between atoms: C_26  and  O_27
REMARK   18  A    between atoms: O_27  and  C_28
REMARK                            x       y       z     vdW  Elec       q    Type
REMARK                         _______ _______ _______ _____ _____    ______ ____
ROOT
ATOM      1  N   UNL     1       1.963   6.777  19.892  0.00  0.00    +0.000 N 
ATOM      2  C   UNL     1       2.255   5.966  18.813  0.00  0.00    +0.000 C 
ATOM      3  O   UNL     1       2.673   6.371  17.737  0.00  0.00    +0.000 OA
ATOM      4  H   UNL     1       1.352   6.330  20.573  0.00  0.00    +0.000 HD
ENDROOT
BRANCH   2   5
ATOM      5  C   UNL     1       2.112   4.472  19.170  0.00  0.00    +0.000 C 
ATOM      6  C   UNL     1       2.920   4.067  20.407  0.00  0.00    +0.000 C 
ATOM      7  S   UNL     1       3.741   2.535  19.896  0.00  0.00    +0.000 S 
ATOM      8  C   UNL     1       3.809   3.092  18.171  0.00  0.00    +0.000 C 
ATOM      9  N   UNL     1       2.450   3.625  17.968  0.00  0.00    +0.000 NA
ATOM     10  H   UNL     1       1.844   2.806  18.041  0.00  0.00    +0.000 HD
BRANCH   8  11
ATOM     11  C   UNL     1       4.896   4.109  17.838  0.00  0.00    +0.000 A 
ATOM     12  C   UNL     1       5.692   4.715  18.816  0.00  0.00    +0.000 A 
ATOM     13  C   UNL     1       6.644   5.681  18.488  0.00  0.00    +0.000 A 
ATOM     14  C   UNL     1       6.864   6.061  17.164  0.00  0.00    +0.000 A 
ATOM     15  C   UNL     1       6.126   5.427  16.150  0.00  0.00    +0.000 A 
ATOM     16  C   UNL     1       5.151   4.467  16.500  0.00  0.00    +0.000 A 
BRANCH  14  17
ATOM     17  O   UNL     1       7.821   6.986  16.838  0.00  0.00    +0.000 OA
ATOM     18  C   UNL     1       7.832   8.189  17.601  0.00  0.00    +0.000 C 
ENDBRANCH  14  17
BRANCH  15  19
ATOM     19  O   UNL     1       6.205   5.625  14.793  0.00  0.00    +0.000 OA
ATOM     20  C   UNL     1       6.673   4.557  13.980  0.00  0.00    +0.000 C 
ENDBRANCH  15  19
ENDBRANCH   8  11
ENDBRANCH   2   5
BRANCH   1  21
ATOM     21  C   UNL     1       1.938   8.214  19.763  0.00  0.00    +0.000 C 
BRANCH  21  22
ATOM     22  C   UNL     1       0.856   8.842  20.634  0.00  0.00    +0.000 C 
BRANCH  22  23
ATOM     23  C   UNL     1       0.795  10.350  20.399  0.00  0.00    +0.000 C 
BRANCH  23  24
ATOM     24  C   UNL     1       0.213  10.685  19.029  0.00  0.00    +0.000 C 
BRANCH  24  25
ATOM     25  C   UNL     1      -1.186  10.092  18.877  0.00  0.00    +0.000 C 
BRANCH  25  26
ATOM     26  C   UNL     1      -1.572   9.983  17.407  0.00  0.00    +0.000 C 
BRANCH  26  27
ATOM     27  C   UNL     1      -3.088   9.955  17.243  0.00  0.00    +0.000 C 
BRANCH  27  28
ATOM     28  C   UNL     1      -3.706  11.259  17.736  0.00  0.00    +0.000 C 
BRANCH  28  29
ATOM     29  C   UNL     1      -4.890  11.662  16.863  0.00  0.00    +0.000 C 
BRANCH  29  30
ATOM     30  C   UNL     1      -6.102  12.006  17.724  0.00  0.00    +0.000 C 
BRANCH  30  32
ATOM     31  C   UNL     1      -7.187  11.715  19.967  0.00  0.00    +0.000 C 
ATOM     32  C   UNL     1      -6.048  11.278  19.063  0.00  0.00    +0.000 C 
ENDBRANCH  30  32
ENDBRANCH  29  30
ENDBRANCH  28  29
ENDBRANCH  27  28
ENDBRANCH  26  27
ENDBRANCH  25  26
ENDBRANCH  24  25
ENDBRANCH  23  24
ENDBRANCH  22  23
ENDBRANCH  21  22
ENDBRANCH   1  21
TORSDOF 15
ENDMDL
MODEL 7
REMARK VINA RESULT:      -6.0      4.683      8.317
REMARK  Name = 
REMARK  18 active torsions:
REMARK  status: ('A' for Active; 'I' for Inactive)
REMARK    1  A    between atoms: C_1  and  C_2
REMARK    2  A    between atoms: C_2  and  C_3
REMARK    3  A    between atoms: C_3  and  C_4
REMARK    4  A    between atoms: C_4  and  C_5
REMARK    5  A    between atoms: C_5  and  C_6
REMARK    6  A    between atoms: C_6  and  C_7
REMARK    7  A    between atoms: C_7  and  C_8
REMARK    8  A    between atoms: C_8  and  C_9
REMARK    9  A    between atoms: C_9  and  C_10
REMARK   10  A    between atoms: C_10  and  C_11
REMARK   11  A    between atoms: C_11  and  C_12
REMARK   12  A    between atoms: C_12  and  N_13
REMARK   13  A    between atoms: C_14  and  C_16
REMARK   14  A    between atoms: C_19  and  C_20
REMARK   15  A    between atoms: C_23  and  O_24
REMARK   16  A    between atoms: O_24  and  C_25
REMARK   17  A    between atoms: C_26  and  O_27
REMARK   18  A    between atoms: O_27  and  C_28
REMARK                            x       y       z     vdW  Elec       q    Type
REMARK                         _______ _______ _______ _____ _____    ______ ____
ROOT
ATOM      1  N   UNL     1       7.403   7.407  17.222  0.00  0.00    +0.000 N 
ATOM      2  C   UNL     1       7.498   6.309  18.055  0.00  0.00    +0.000 C 
ATOM      3  O   UNL     1       7.525   6.369  19.276  0.00  0.00    +0.000 OA
ATOM      4  H   UNL     1       7.699   7.211  16.267  0.00  0.00    +0.000 HD
ENDROOT
BRANCH   2   5
ATOM      5  C   UNL     1       7.436   4.988  17.262  0.00  0.00    +0.000 C 
ATOM      6  C   UNL     1       6.985   5.176  15.810  0.00  0.00    +0.000 C 
ATOM      7  S   UNL     1       5.751   3.871  15.574  0.00  0.00    +0.000 S 
ATOM      8  C   UNL     1       5.268   3.949  17.321  0.00  0.00    +0.000 C 
ATOM      9  N   UNL     1       6.576   3.991  17.999  0.00  0.00    +0.000 NA
ATOM     10  H   UNL     1       6.993   3.080  17.798  0.00  0.00    +0.000 HD
BRANCH   8  11
ATOM     11  C   UNL     1       4.364   5.113  17.714  0.00  0.00    +0.000 A 
ATOM     12  C   UNL     1       4.238   6.271  16.940  0.00  0.00    +0.000 A 
ATOM     13  C   UNL     1       3.444   7.341  17.350  0.00  0.00    +0.000 A 
ATOM     14  C   UNL     1       2.715   7.290  18.538  0.00  0.00    +0.000 A 
ATOM     15  C   UNL     1       2.768   6.118  19.310  0.00  0.00    +0.000 A 
ATOM     16  C   UNL     1       3.594   5.050  18.893  0.00  0.00    +0.000 A 
BRANCH  14  17
ATOM     17  O   UNL     1       1.910   8.329  18.926  0.00  0.00    +0.000 OA
ATOM     18  C   UNL     1       1.760   9.401  18.000  0.00  0.00    +0.000 C 
ENDBRANCH  14  17
BRANCH  15  19
ATOM     19  O   UNL     1       2.113   5.845  20.486  0.00  0.00    +0.000 OA
ATOM     20  C   UNL     1       2.197   4.529  21.018  0.00  0.00    +0.000 C 
ENDBRANCH  15  19
ENDBRANCH   8  11
ENDBRANCH   2   5
BRANCH   1  21
ATOM     21  C   UNL     1       7.535   8.750  17.735  0.00  0.00    +0.000 C 
BRANCH  21  22
ATOM     22  C   UNL     1       8.834   8.934  18.510  0.00  0.00    +0.000 C 
BRANCH  22  23
ATOM     23  C   UNL     1       9.268  10.398  18.479  0.00  0.00    +0.000 C 
BRANCH  23  24
ATOM     24  C   UNL     1       9.534  10.939  19.880  0.00  0.00    +0.000 C 
BRANCH  24  25
ATOM     25  C   UNL     1       9.546  12.466  19.876  0.00  0.00    +0.000 C 
BRANCH  25  26
ATOM     26  C   UNL     1      10.811  13.000  20.538  0.00  0.00    +0.000 C 
BRANCH  26  27
ATOM     27  C   UNL     1      11.634  13.823  19.554  0.00  0.00    +0.000 C 
BRANCH  27  28
ATOM     28  C   UNL     1      11.832  13.061  18.248  0.00  0.00    +0.000 C 
BRANCH  28  29
ATOM     29  C   UNL     1      12.331  13.990  17.147  0.00  0.00    +0.000 C 
BRANCH  29  30
ATOM     30  C   UNL     1      12.076  15.449  17.516  0.00  0.00    +0.000 C 
BRANCH  30  32
ATOM     31  C   UNL     1      10.156  17.064  17.484  0.00  0.00    +0.000 C 
ATOM     32  C   UNL     1      10.936  16.032  16.688  0.00  0.00    +0.000 C 
ENDBRANCH  30  32
ENDBRANCH  29  30
ENDBRANCH  28  29
ENDBRANCH  27  28
ENDBRANCH  26  27
ENDBRANCH  25  26
ENDBRANCH  24  25
ENDBRANCH  23  24
ENDBRANCH  22  23
ENDBRANCH  21  22
ENDBRANCH   1  21
TORSDOF 15
ENDMDL
MODEL 8
REMARK VINA RESULT:      -6.0      1.569      2.327
REMARK  Name = 
REMARK  18 active torsions:
REMARK  status: ('A' for Active; 'I' for Inactive)
REMARK    1  A    between atoms: C_1  and  C_2
REMARK    2  A    between atoms: C_2  and  C_3
REMARK    3  A    between atoms: C_3  and  C_4
REMARK    4  A    between atoms: C_4  and  C_5
REMARK    5  A    between atoms: C_5  and  C_6
REMARK    6  A    between atoms: C_6  and  C_7
REMARK    7  A    between atoms: C_7  and  C_8
REMARK    8  A    between atoms: C_8  and  C_9
REMARK    9  A    between atoms: C_9  and  C_10
REMARK   10  A    between atoms: C_10  and  C_11
REMARK   11  A    between atoms: C_11  and  C_12
REMARK   12  A    between atoms: C_12  and  N_13
REMARK   13  A    between atoms: C_14  and  C_16
REMARK   14  A    between atoms: C_19  and  C_20
REMARK   15  A    between atoms: C_23  and  O_24
REMARK   16  A    between atoms: O_24  and  C_25
REMARK   17  A    between atoms: C_26  and  O_27
REMARK   18  A    between atoms: O_27  and  C_28
REMARK                            x       y       z     vdW  Elec       q    Type
REMARK                         _______ _______ _______ _____ _____    ______ ____
ROOT
ATOM      1  N   UNL     1       2.134   6.049  20.057  0.00  0.00    +0.000 N 
ATOM      2  C   UNL     1       2.316   5.413  18.844  0.00  0.00    +0.000 C 
ATOM      3  O   UNL     1       2.593   5.984  17.799  0.00  0.00    +0.000 OA
ATOM      4  H   UNL     1       1.620   5.484  20.731  0.00  0.00    +0.000 HD
ENDROOT
BRANCH   2   5
ATOM      5  C   UNL     1       2.255   3.879  18.994  0.00  0.00    +0.000 C 
ATOM      6  C   UNL     1       3.137   3.347  20.129  0.00  0.00    +0.000 C 
ATOM      7  S   UNL     1       4.000   1.943  19.376  0.00  0.00    +0.000 S 
ATOM      8  C   UNL     1       3.964   2.737  17.745  0.00  0.00    +0.000 C 
ATOM      9  N   UNL     1       2.575   3.224  17.672  0.00  0.00    +0.000 NA
ATOM     10  H   UNL     1       2.010   2.373  17.653  0.00  0.00    +0.000 HD
BRANCH   8  11
ATOM     11  C   UNL     1       4.989   3.843  17.516  0.00  0.00    +0.000 A 
ATOM     12  C   UNL     1       5.682   4.462  18.561  0.00  0.00    +0.000 A 
ATOM     13  C   UNL     1       6.576   5.507  18.326  0.00  0.00    +0.000 A 
ATOM     14  C   UNL     1       6.840   5.960  17.033  0.00  0.00    +0.000 A 
ATOM     15  C   UNL     1       6.208   5.320  15.955  0.00  0.00    +0.000 A 
ATOM     16  C   UNL     1       5.289   4.277  16.209  0.00  0.00    +0.000 A 
BRANCH  14  17
ATOM     17  O   UNL     1       7.741   6.966  16.800  0.00  0.00    +0.000 OA
ATOM     18  C   UNL     1       7.583   8.156  17.566  0.00  0.00    +0.000 C 
ENDBRANCH  14  17
BRANCH  15  19
ATOM     19  O   UNL     1       6.345   5.581  14.613  0.00  0.00    +0.000 OA
ATOM     20  C   UNL     1       6.614   4.495  13.736  0.00  0.00    +0.000 C 
ENDBRANCH  15  19
ENDBRANCH   8  11
ENDBRANCH   2   5
BRANCH   1  21
ATOM     21  C   UNL     1       2.056   7.488  20.143  0.00  0.00    +0.000 C 
BRANCH  21  22
ATOM     22  C   UNL     1       1.064   7.938  21.209  0.00  0.00    +0.000 C 
BRANCH  22  23
ATOM     23  C   UNL     1       0.949   9.461  21.216  0.00  0.00    +0.000 C 
BRANCH  23  24
ATOM     24  C   UNL     1      -0.334   9.934  20.540  0.00  0.00    +0.000 C 
BRANCH  24  25
ATOM     25  C   UNL     1      -0.069  10.319  19.086  0.00  0.00    +0.000 C 
BRANCH  25  26
ATOM     26  C   UNL     1      -1.376  10.461  18.315  0.00  0.00    +0.000 C 
BRANCH  26  27
ATOM     27  C   UNL     1      -1.613  11.910  17.907  0.00  0.00    +0.000 C 
BRANCH  27  28
ATOM     28  C   UNL     1      -1.214  12.858  19.034  0.00  0.00    +0.000 C 
BRANCH  28  29
ATOM     29  C   UNL     1      -0.283  13.951  18.520  0.00  0.00    +0.000 C 
BRANCH  29  30
ATOM     30  C   UNL     1       0.954  14.065  19.407  0.00  0.00    +0.000 C 
BRANCH  30  32
ATOM     31  C   UNL     1       2.495  12.569  18.110  0.00  0.00    +0.000 C 
ATOM     32  C   UNL     1       2.232  13.990  18.578  0.00  0.00    +0.000 C 
ENDBRANCH  30  32
ENDBRANCH  29  30
ENDBRANCH  28  29
ENDBRANCH  27  28
ENDBRANCH  26  27
ENDBRANCH  25  26
ENDBRANCH  24  25
ENDBRANCH  23  24
ENDBRANCH  22  23
ENDBRANCH  21  22
ENDBRANCH   1  21
TORSDOF 15
ENDMDL
MODEL 9
REMARK VINA RESULT:      -5.9      0.938      1.365
REMARK  Name = 
REMARK  18 active torsions:
REMARK  status: ('A' for Active; 'I' for Inactive)
REMARK    1  A    between atoms: C_1  and  C_2
REMARK    2  A    between atoms: C_2  and  C_3
REMARK    3  A    between atoms: C_3  and  C_4
REMARK    4  A    between atoms: C_4  and  C_5
REMARK    5  A    between atoms: C_5  and  C_6
REMARK    6  A    between atoms: C_6  and  C_7
REMARK    7  A    between atoms: C_7  and  C_8
REMARK    8  A    between atoms: C_8  and  C_9
REMARK    9  A    between atoms: C_9  and  C_10
REMARK   10  A    between atoms: C_10  and  C_11
REMARK   11  A    between atoms: C_11  and  C_12
REMARK   12  A    between atoms: C_12  and  N_13
REMARK   13  A    between atoms: C_14  and  C_16
REMARK   14  A    between atoms: C_19  and  C_20
REMARK   15  A    between atoms: C_23  and  O_24
REMARK   16  A    between atoms: O_24  and  C_25
REMARK   17  A    between atoms: C_26  and  O_27
REMARK   18  A    between atoms: O_27  and  C_28
REMARK                            x       y       z     vdW  Elec       q    Type
REMARK                         _______ _______ _______ _____ _____    ______ ____
ROOT
ATOM      1  N   UNL     1       2.218   6.190  20.181  0.00  0.00    +0.000 N 
ATOM      2  C   UNL     1       2.089   5.368  19.078  0.00  0.00    +0.000 C 
ATOM      3  O   UNL     1       1.988   5.767  17.927  0.00  0.00    +0.000 OA
ATOM      4  H   UNL     1       1.982   5.725  21.055  0.00  0.00    +0.000 HD
ENDROOT
BRANCH   2   5
ATOM      5  C   UNL     1       2.215   3.879  19.462  0.00  0.00    +0.000 C 
ATOM      6  C   UNL     1       3.135   3.643  20.665  0.00  0.00    +0.000 C 
ATOM      7  S   UNL     1       4.179   2.259  20.136  0.00  0.00    +0.000 S 
ATOM      8  C   UNL     1       4.075   2.783  18.403  0.00  0.00    +0.000 C 
ATOM      9  N   UNL     1       2.638   3.076  18.257  0.00  0.00    +0.000 NA
ATOM     10  H   UNL     1       2.183   2.168  18.370  0.00  0.00    +0.000 HD
BRANCH   8  11
ATOM     11  C   UNL     1       4.959   3.960  18.005  0.00  0.00    +0.000 A 
ATOM     12  C   UNL     1       5.629   4.755  18.940  0.00  0.00    +0.000 A 
ATOM     13  C   UNL     1       6.389   5.858  18.551  0.00  0.00    +0.000 A 
ATOM     14  C   UNL     1       6.539   6.197  17.206  0.00  0.00    +0.000 A 
ATOM     15  C   UNL     1       5.931   5.384  16.236  0.00  0.00    +0.000 A 
ATOM     16  C   UNL     1       5.147   4.283  16.646  0.00  0.00    +0.000 A 
BRANCH  14  17
ATOM     17  O   UNL     1       7.312   7.262  16.821  0.00  0.00    +0.000 OA
ATOM     18  C   UNL     1       7.949   7.997  17.861  0.00  0.00    +0.000 C 
ENDBRANCH  14  17
BRANCH  15  19
ATOM     19  O   UNL     1       5.975   5.516  14.869  0.00  0.00    +0.000 OA
ATOM     20  C   UNL     1       6.017   4.336  14.077  0.00  0.00    +0.000 C 
ENDBRANCH  15  19
ENDBRANCH   8  11
ENDBRANCH   2   5
BRANCH   1  21
ATOM     21  C   UNL     1       2.038   7.618  20.074  0.00  0.00    +0.000 C 
BRANCH  21  22
ATOM     22  C   UNL     1       1.494   8.218  21.365  0.00  0.00    +0.000 C 
BRANCH  22  23
ATOM     23  C   UNL     1       0.009   8.539  21.216  0.00  0.00    +0.000 C 
BRANCH  23  24
ATOM     24  C   UNL     1      -0.589   9.065  22.517  0.00  0.00    +0.000 C 
BRANCH  24  25
ATOM     25  C   UNL     1      -0.259  10.543  22.704  0.00  0.00    +0.000 C 
BRANCH  25  26
ATOM     26  C   UNL     1      -1.523  11.351  22.975  0.00  0.00    +0.000 C 
BRANCH  26  27
ATOM     27  C   UNL     1      -1.210  12.841  23.051  0.00  0.00    +0.000 C 
BRANCH  27  28
ATOM     28  C   UNL     1      -0.654  13.343  21.722  0.00  0.00    +0.000 C 
BRANCH  28  29
ATOM     29  C   UNL     1      -1.564  12.941  20.566  0.00  0.00    +0.000 C 
BRANCH  29  30
ATOM     30  C   UNL     1      -0.916  13.279  19.227  0.00  0.00    +0.000 C 
BRANCH  30  32
ATOM     31  C   UNL     1      -1.465  10.862  18.835  0.00  0.00    +0.000 C 
ATOM     32  C   UNL     1      -1.229  12.213  18.182  0.00  0.00    +0.000 C 
ENDBRANCH  30  32
ENDBRANCH  29  30
ENDBRANCH  28  29
ENDBRANCH  27  28
ENDBRANCH  26  27
ENDBRANCH  25  26
ENDBRANCH  24  25
ENDBRANCH  23  24
ENDBRANCH  22  23
ENDBRANCH  21  22
ENDBRANCH   1  21
TORSDOF 15
ENDMDL
