MODEL 1
REMARK VINA RESULT:      -7.5      0.000      0.000
REMARK  Name = 
REMARK  2 active torsions:
REMARK  status: ('A' for Active; 'I' for Inactive)
REMARK    1  A    between atoms: C_2  and  C_3
REMARK    2  A    between atoms: C_3  and  C_4
REMARK                            x       y       z     vdW  Elec       q    Type
REMARK                         _______ _______ _______ _____ _____    ______ ____
ROOT
ATOM      1  C   UNL     1      -3.660  14.107  22.845  0.00  0.00    +0.000 C 
ATOM      2  C   UNL     1      -2.243  13.546  22.768  0.00  0.00    +0.000 C 
ATOM      3  O   UNL     1      -1.574  13.199  23.732  0.00  0.00    +0.000 OA
ATOM      4  N   UNL     1      -1.953  13.330  21.410  0.00  0.00    +0.000 N 
ATOM      5  C   UNL     1      -2.815  14.135  20.561  0.00  0.00    +0.000 C 
ATOM      6  C   UNL     1      -3.853  14.809  21.468  0.00  0.00    +0.000 C 
ATOM      7  C   UNL     1      -5.304  14.912  20.888  0.00  0.00    +0.000 C 
ATOM      8  O   UNL     1      -5.764  13.685  20.360  0.00  0.00    +0.000 OA
ATOM      9  C   UNL     1      -6.998  13.084  20.758  0.00  0.00    +0.000 C 
ATOM     10  C   UNL     1      -6.806  11.547  20.735  0.00  0.00    +0.000 C 
ATOM     11  O   UNL     1      -7.309  10.810  21.586  0.00  0.00    +0.000 OA
ATOM     12  N   UNL     1      -6.042  11.014  19.718  0.00  0.00    +0.000 N 
ATOM     13  C   UNL     1      -5.708  11.697  18.481  0.00  0.00    +0.000 C 
ATOM     14  C   UNL     1      -4.662  11.057  17.609  0.00  0.00    +0.000 A 
ATOM     15  C   UNL     1      -4.541  11.507  16.300  0.00  0.00    +0.000 A 
ATOM     16  C   UNL     1      -3.439  11.119  15.554  0.00  0.00    +0.000 A 
ATOM     17  C   UNL     1      -2.445  10.352  16.165  0.00  0.00    +0.000 A 
ATOM     18  C   UNL     1      -2.567  10.040  17.508  0.00  0.00    +0.000 A 
ATOM     19  N   UNL     1      -3.692  10.329  18.209  0.00  0.00    +0.000 NA
ATOM     20  N   UNL     1      -1.404   9.719  18.220  0.00  0.00    +0.000 N 
ATOM     21  C   UNL     1      -0.929  10.383  19.361  0.00  0.00    +0.000 A 
ATOM     22  C   UNL     1      -1.482  11.613  19.737  0.00  0.00    +0.000 A 
ATOM     23  C   UNL     1      -1.173  12.221  20.948  0.00  0.00    +0.000 A 
ATOM     24  C   UNL     1      -0.173  11.611  21.701  0.00  0.00    +0.000 A 
ATOM     25  C   UNL     1       0.424  10.450  21.214  0.00  0.00    +0.000 A 
ATOM     26  N   UNL     1       0.062   9.819  20.070  0.00  0.00    +0.000 NA
ATOM     27  H   UNL     1      -5.874  10.015  19.761  0.00  0.00    +0.000 HD
ATOM     28  H   UNL     1      -0.911   8.869  17.989  0.00  0.00    +0.000 HD
ENDROOT
BRANCH   1  29
ATOM     29  C   UNL     1      -4.707  13.049  23.115  0.00  0.00    +0.000 C 
ATOM     30  C   UNL     1      -5.903  13.031  24.039  0.00  0.00    +0.000 C 
ATOM     31  C   UNL     1      -4.676  12.256  24.409  0.00  0.00    +0.000 C 
ENDBRANCH   1  29
BRANCH   1  33
ATOM     32  N   UNL     1      -3.913  15.945  24.709  0.00  0.00    +0.000 NA
ATOM     33  C   UNL     1      -3.793  15.084  23.921  0.00  0.00    +0.000 C 
ENDBRANCH   1  33
TORSDOF 2
ENDMDL
MODEL 2
REMARK VINA RESULT:      -6.8      1.571      2.307
REMARK  Name = 
REMARK  2 active torsions:
REMARK  status: ('A' for Active; 'I' for Inactive)
REMARK    1  A    between atoms: C_2  and  C_3
REMARK    2  A    between atoms: C_3  and  C_4
REMARK                            x       y       z     vdW  Elec       q    Type
REMARK                         _______ _______ _______ _____ _____    ______ ____
ROOT
ATOM      1  C   UNL     1      -3.326  14.970  23.740  0.00  0.00    +0.000 C 
ATOM      2  C   UNL     1      -2.125  14.455  22.952  0.00  0.00    +0.000 C 
ATOM      3  O   UNL     1      -1.090  14.032  23.450  0.00  0.00    +0.000 OA
ATOM      4  N   UNL     1      -2.512  14.382  21.603  0.00  0.00    +0.000 N 
ATOM      5  C   UNL     1      -3.651  15.245  21.342  0.00  0.00    +0.000 C 
ATOM      6  C   UNL     1      -4.126  15.799  22.693  0.00  0.00    +0.000 C 
ATOM      7  C   UNL     1      -5.676  15.922  22.875  0.00  0.00    +0.000 C 
ATOM      8  O   UNL     1      -6.360  14.742  22.506  0.00  0.00    +0.000 OA
ATOM      9  C   UNL     1      -7.277  14.073  23.375  0.00  0.00    +0.000 C 
ATOM     10  C   UNL     1      -7.156  12.552  23.111  0.00  0.00    +0.000 C 
ATOM     11  O   UNL     1      -7.217  11.722  24.021  0.00  0.00    +0.000 OA
ATOM     12  N   UNL     1      -6.971  12.141  21.808  0.00  0.00    +0.000 N 
ATOM     13  C   UNL     1      -7.241  12.952  20.633  0.00  0.00    +0.000 C 
ATOM     14  C   UNL     1      -6.742  12.428  19.313  0.00  0.00    +0.000 A 
ATOM     15  C   UNL     1      -7.239  13.008  18.153  0.00  0.00    +0.000 A 
ATOM     16  C   UNL     1      -6.625  12.724  16.943  0.00  0.00    +0.000 A 
ATOM     17  C   UNL     1      -5.480  11.926  16.936  0.00  0.00    +0.000 A 
ATOM     18  C   UNL     1      -4.964  11.480  18.141  0.00  0.00    +0.000 A 
ATOM     19  N   UNL     1      -5.622  11.670  19.313  0.00  0.00    +0.000 NA
ATOM     20  N   UNL     1      -3.611  11.119  18.188  0.00  0.00    +0.000 N 
ATOM     21  C   UNL     1      -2.640  11.679  19.032  0.00  0.00    +0.000 A 
ATOM     22  C   UNL     1      -2.923  12.852  19.744  0.00  0.00    +0.000 A 
ATOM     23  C   UNL     1      -2.067  13.345  20.722  0.00  0.00    +0.000 A 
ATOM     24  C   UNL     1      -0.845  12.688  20.852  0.00  0.00    +0.000 A 
ATOM     25  C   UNL     1      -0.575  11.597  20.029  0.00  0.00    +0.000 A 
ATOM     26  N   UNL     1      -1.447  11.073  19.134  0.00  0.00    +0.000 NA
ATOM     27  H   UNL     1      -6.827  11.148  21.668  0.00  0.00    +0.000 HD
ATOM     28  H   UNL     1      -3.305  10.310  17.670  0.00  0.00    +0.000 HD
ENDROOT
BRANCH   1  29
ATOM     29  C   UNL     1      -4.149  13.864  24.364  0.00  0.00    +0.000 C 
ATOM     30  C   UNL     1      -3.858  12.915  25.504  0.00  0.00    +0.000 C 
ATOM     31  C   UNL     1      -3.804  12.410  24.094  0.00  0.00    +0.000 C 
ENDBRANCH   1  29
BRANCH   1  33
ATOM     32  N   UNL     1      -2.513  16.570  25.662  0.00  0.00    +0.000 NA
ATOM     33  C   UNL     1      -2.915  15.831  24.844  0.00  0.00    +0.000 C 
ENDBRANCH   1  33
TORSDOF 2
ENDMDL
MODEL 3
REMARK VINA RESULT:      -6.7      2.067      4.885
REMARK  Name = 
REMARK  2 active torsions:
REMARK  status: ('A' for Active; 'I' for Inactive)
REMARK    1  A    between atoms: C_2  and  C_3
REMARK    2  A    between atoms: C_3  and  C_4
REMARK                            x       y       z     vdW  Elec       q    Type
REMARK                         _______ _______ _______ _____ _____    ______ ____
ROOT
ATOM      1  C   UNL     1      -4.439  15.069  22.518  0.00  0.00    +0.000 C 
ATOM      2  C   UNL     1      -5.574  14.343  21.801  0.00  0.00    +0.000 C 
ATOM      3  O   UNL     1      -6.685  14.812  21.593  0.00  0.00    +0.000 OA
ATOM      4  N   UNL     1      -5.041  13.154  21.276  0.00  0.00    +0.000 N 
ATOM      5  C   UNL     1      -3.825  12.776  21.975  0.00  0.00    +0.000 C 
ATOM      6  C   UNL     1      -3.472  13.921  22.934  0.00  0.00    +0.000 C 
ATOM      7  C   UNL     1      -1.948  14.253  23.071  0.00  0.00    +0.000 C 
ATOM      8  O   UNL     1      -1.307  14.380  21.819  0.00  0.00    +0.000 OA
ATOM      9  C   UNL     1      -0.541  15.531  21.454  0.00  0.00    +0.000 C 
ATOM     10  C   UNL     1      -0.731  15.764  19.935  0.00  0.00    +0.000 C 
ATOM     11  O   UNL     1      -0.829  16.894  19.452  0.00  0.00    +0.000 OA
ATOM     12  N   UNL     1      -0.793  14.653  19.120  0.00  0.00    +0.000 N 
ATOM     13  C   UNL     1      -0.338  13.324  19.489  0.00  0.00    +0.000 C 
ATOM     14  C   UNL     1      -0.716  12.193  18.570  0.00  0.00    +0.000 A 
ATOM     15  C   UNL     1      -0.053  10.983  18.720  0.00  0.00    +0.000 A 
ATOM     16  C   UNL     1      -0.542   9.862  18.066  0.00  0.00    +0.000 A 
ATOM     17  C   UNL     1      -1.729   9.967  17.339  0.00  0.00    +0.000 A 
ATOM     18  C   UNL     1      -2.407  11.174  17.331  0.00  0.00    +0.000 A 
ATOM     19  N   UNL     1      -1.876  12.295  17.882  0.00  0.00    +0.000 NA
ATOM     20  N   UNL     1      -3.777  11.160  17.039  0.00  0.00    +0.000 N 
ATOM     21  C   UNL     1      -4.799  11.643  17.871  0.00  0.00    +0.000 A 
ATOM     22  C   UNL     1      -4.523  11.964  19.206  0.00  0.00    +0.000 A 
ATOM     23  C   UNL     1      -5.451  12.608  20.016  0.00  0.00    +0.000 A 
ATOM     24  C   UNL     1      -6.720  12.786  19.471  0.00  0.00    +0.000 A 
ATOM     25  C   UNL     1      -6.966  12.335  18.175  0.00  0.00    +0.000 A 
ATOM     26  N   UNL     1      -6.034  11.780  17.363  0.00  0.00    +0.000 NA
ATOM     27  H   UNL     1      -0.986  14.826  18.141  0.00  0.00    +0.000 HD
ATOM     28  H   UNL     1      -4.075  10.899  16.112  0.00  0.00    +0.000 HD
ENDROOT
BRANCH   1  29
ATOM     29  C   UNL     1      -3.768  16.120  21.661  0.00  0.00    +0.000 C 
ATOM     30  C   UNL     1      -4.133  17.555  21.361  0.00  0.00    +0.000 C 
ATOM     31  C   UNL     1      -4.362  16.504  20.318  0.00  0.00    +0.000 C 
ENDBRANCH   1  29
BRANCH   1  33
ATOM     32  N   UNL     1      -5.301  16.423  24.602  0.00  0.00    +0.000 NA
ATOM     33  C   UNL     1      -4.916  15.769  23.707  0.00  0.00    +0.000 C 
ENDBRANCH   1  33
TORSDOF 2
ENDMDL
MODEL 4
REMARK VINA RESULT:      -6.6      2.163      4.596
REMARK  Name = 
REMARK  2 active torsions:
REMARK  status: ('A' for Active; 'I' for Inactive)
REMARK    1  A    between atoms: C_2  and  C_3
REMARK    2  A    between atoms: C_3  and  C_4
REMARK                            x       y       z     vdW  Elec       q    Type
REMARK                         _______ _______ _______ _____ _____    ______ ____
ROOT
ATOM      1  C   UNL     1       0.228  12.710  20.662  0.00  0.00    +0.000 C 
ATOM      2  C   UNL     1       0.150  11.914  19.363  0.00  0.00    +0.000 C 
ATOM      3  O   UNL     1       0.835  10.935  19.099  0.00  0.00    +0.000 OA
ATOM      4  N   UNL     1      -0.961  12.393  18.647  0.00  0.00    +0.000 N 
ATOM      5  C   UNL     1      -1.326  13.728  19.088  0.00  0.00    +0.000 C 
ATOM      6  C   UNL     1      -0.457  14.063  20.308  0.00  0.00    +0.000 C 
ATOM      7  C   UNL     1      -1.166  14.856  21.456  0.00  0.00    +0.000 C 
ATOM      8  O   UNL     1      -2.408  14.289  21.819  0.00  0.00    +0.000 OA
ATOM      9  C   UNL     1      -2.735  13.936  23.165  0.00  0.00    +0.000 C 
ATOM     10  C   UNL     1      -3.628  12.672  23.119  0.00  0.00    +0.000 C 
ATOM     11  O   UNL     1      -3.524  11.765  23.948  0.00  0.00    +0.000 OA
ATOM     12  N   UNL     1      -4.559  12.583  22.105  0.00  0.00    +0.000 N 
ATOM     13  C   UNL     1      -5.030  13.701  21.307  0.00  0.00    +0.000 C 
ATOM     14  C   UNL     1      -5.851  13.372  20.089  0.00  0.00    +0.000 A 
ATOM     15  C   UNL     1      -6.564  14.401  19.487  0.00  0.00    +0.000 A 
ATOM     16  C   UNL     1      -7.124  14.189  18.236  0.00  0.00    +0.000 A 
ATOM     17  C   UNL     1      -6.890  12.977  17.587  0.00  0.00    +0.000 A 
ATOM     18  C   UNL     1      -6.068  12.039  18.189  0.00  0.00    +0.000 A 
ATOM     19  N   UNL     1      -5.607  12.203  19.455  0.00  0.00    +0.000 NA
ATOM     20  N   UNL     1      -5.452  11.080  17.375  0.00  0.00    +0.000 N 
ATOM     21  C   UNL     1      -4.070  10.864  17.260  0.00  0.00    +0.000 A 
ATOM     22  C   UNL     1      -3.170  11.796  17.793  0.00  0.00    +0.000 A 
ATOM     23  C   UNL     1      -1.805  11.543  17.862  0.00  0.00    +0.000 A 
ATOM     24  C   UNL     1      -1.365  10.376  17.240  0.00  0.00    +0.000 A 
ATOM     25  C   UNL     1      -2.301   9.549  16.622  0.00  0.00    +0.000 A 
ATOM     26  N   UNL     1      -3.640   9.761  16.628  0.00  0.00    +0.000 NA
ATOM     27  H   UNL     1      -5.085  11.718  22.055  0.00  0.00    +0.000 HD
ATOM     28  H   UNL     1      -6.027  10.392  16.913  0.00  0.00    +0.000 HD
ENDROOT
BRANCH   1  29
ATOM     29  C   UNL     1      -0.429  12.010  21.832  0.00  0.00    +0.000 C 
ATOM     30  C   UNL     1      -0.081  10.734  22.564  0.00  0.00    +0.000 C 
ATOM     31  C   UNL     1      -1.235  10.743  21.608  0.00  0.00    +0.000 C 
ENDBRANCH   1  29
BRANCH   1  33
ATOM     32  N   UNL     1       2.704  13.242  21.373  0.00  0.00    +0.000 NA
ATOM     33  C   UNL     1       1.611  12.946  21.065  0.00  0.00    +0.000 C 
ENDBRANCH   1  33
TORSDOF 2
ENDMDL
MODEL 5
REMARK VINA RESULT:      -6.6      2.172      4.792
REMARK  Name = 
REMARK  2 active torsions:
REMARK  status: ('A' for Active; 'I' for Inactive)
REMARK    1  A    between atoms: C_2  and  C_3
REMARK    2  A    between atoms: C_3  and  C_4
REMARK                            x       y       z     vdW  Elec       q    Type
REMARK                         _______ _______ _______ _____ _____    ______ ____
ROOT
ATOM      1  C   UNL     1      -3.078  14.592  23.339  0.00  0.00    +0.000 C 
ATOM      2  C   UNL     1      -4.514  14.169  23.042  0.00  0.00    +0.000 C 
ATOM      3  O   UNL     1      -5.508  14.836  23.297  0.00  0.00    +0.000 OA
ATOM      4  N   UNL     1      -4.451  12.998  22.269  0.00  0.00    +0.000 N 
ATOM      5  C   UNL     1      -3.170  12.333  22.435  0.00  0.00    +0.000 C 
ATOM      6  C   UNL     1      -2.280  13.257  23.278  0.00  0.00    +0.000 C 
ATOM      7  C   UNL     1      -0.771  13.316  22.864  0.00  0.00    +0.000 C 
ATOM      8  O   UNL     1      -0.598  13.517  21.476  0.00  0.00    +0.000 OA
ATOM      9  C   UNL     1       0.207  14.570  20.940  0.00  0.00    +0.000 C 
ATOM     10  C   UNL     1      -0.453  15.047  19.623  0.00  0.00    +0.000 C 
ATOM     11  O   UNL     1      -0.483  16.235  19.298  0.00  0.00    +0.000 OA
ATOM     12  N   UNL     1      -1.019  14.089  18.808  0.00  0.00    +0.000 N 
ATOM     13  C   UNL     1      -0.743  12.665  18.880  0.00  0.00    +0.000 C 
ATOM     14  C   UNL     1      -1.640  11.755  18.085  0.00  0.00    +0.000 A 
ATOM     15  C   UNL     1      -1.225  10.444  17.887  0.00  0.00    +0.000 A 
ATOM     16  C   UNL     1      -2.128   9.522  17.379  0.00  0.00    +0.000 A 
ATOM     17  C   UNL     1      -3.447   9.920  17.155  0.00  0.00    +0.000 A 
ATOM     18  C   UNL     1      -3.826  11.209  17.491  0.00  0.00    +0.000 A 
ATOM     19  N   UNL     1      -2.921  12.139  17.888  0.00  0.00    +0.000 NA
ATOM     20  N   UNL     1      -5.184  11.458  17.729  0.00  0.00    +0.000 N 
ATOM     21  C   UNL     1      -5.729  11.974  18.915  0.00  0.00    +0.000 A 
ATOM     22  C   UNL     1      -4.943  12.050  20.071  0.00  0.00    +0.000 A 
ATOM     23  C   UNL     1      -5.377  12.712  21.214  0.00  0.00    +0.000 A 
ATOM     24  C   UNL     1      -6.693  13.168  21.194  0.00  0.00    +0.000 A 
ATOM     25  C   UNL     1      -7.464  12.954  20.053  0.00  0.00    +0.000 A 
ATOM     26  N   UNL     1      -7.009  12.379  18.913  0.00  0.00    +0.000 NA
ATOM     27  H   UNL     1      -1.504  14.430  17.987  0.00  0.00    +0.000 HD
ATOM     28  H   UNL     1      -5.834  11.384  16.961  0.00  0.00    +0.000 HD
ENDROOT
BRANCH   1  29
ATOM     29  C   UNL     1      -2.552  15.634  22.375  0.00  0.00    +0.000 C 
ATOM     30  C   UNL     1      -2.834  17.113  22.242  0.00  0.00    +0.000 C 
ATOM     31  C   UNL     1      -3.436  16.156  21.258  0.00  0.00    +0.000 C 
ENDBRANCH   1  29
BRANCH   1  33
ATOM     32  N   UNL     1      -2.756  15.615  25.740  0.00  0.00    +0.000 NA
ATOM     33  C   UNL     1      -2.956  15.182  24.669  0.00  0.00    +0.000 C 
ENDBRANCH   1  33
TORSDOF 2
ENDMDL
MODEL 6
REMARK VINA RESULT:      -6.5      9.971     12.551
REMARK  Name = 
REMARK  2 active torsions:
REMARK  status: ('A' for Active; 'I' for Inactive)
REMARK    1  A    between atoms: C_2  and  C_3
REMARK    2  A    between atoms: C_3  and  C_4
REMARK                            x       y       z     vdW  Elec       q    Type
REMARK                         _______ _______ _______ _____ _____    ______ ____
ROOT
ATOM      1  C   UNL     1       5.775  16.817  21.417  0.00  0.00    +0.000 C 
ATOM      2  C   UNL     1       6.466  17.439  20.206  0.00  0.00    +0.000 C 
ATOM      3  O   UNL     1       6.707  18.631  20.073  0.00  0.00    +0.000 OA
ATOM      4  N   UNL     1       6.929  16.383  19.403  0.00  0.00    +0.000 N 
ATOM      5  C   UNL     1       6.201  15.157  19.687  0.00  0.00    +0.000 C 
ATOM      6  C   UNL     1       5.296  15.430  20.896  0.00  0.00    +0.000 C 
ATOM      7  C   UNL     1       5.161  14.260  21.927  0.00  0.00    +0.000 C 
ATOM      8  O   UNL     1       6.413  13.720  22.301  0.00  0.00    +0.000 OA
ATOM      9  C   UNL     1       6.826  13.593  23.663  0.00  0.00    +0.000 C 
ATOM     10  C   UNL     1       8.356  13.825  23.717  0.00  0.00    +0.000 C 
ATOM     11  O   UNL     1       8.895  14.440  24.640  0.00  0.00    +0.000 OA
ATOM     12  N   UNL     1       9.117  13.318  22.684  0.00  0.00    +0.000 N 
ATOM     13  C   UNL     1       8.680  12.290  21.755  0.00  0.00    +0.000 C 
ATOM     14  C   UNL     1       9.547  12.048  20.548  0.00  0.00    +0.000 A 
ATOM     15  C   UNL     1       9.332  10.888  19.815  0.00  0.00    +0.000 A 
ATOM     16  C   UNL     1       9.936  10.756  18.573  0.00  0.00    +0.000 A 
ATOM     17  C   UNL     1      10.677  11.823  18.065  0.00  0.00    +0.000 A 
ATOM     18  C   UNL     1      10.750  12.999  18.793  0.00  0.00    +0.000 A 
ATOM     19  N   UNL     1      10.249  13.091  20.051  0.00  0.00    +0.000 NA
ATOM     20  N   UNL     1      11.052  14.183  18.108  0.00  0.00    +0.000 N 
ATOM     21  C   UNL     1      10.254  15.336  18.068  0.00  0.00    +0.000 A 
ATOM     22  C   UNL     1       8.933  15.290  18.534  0.00  0.00    +0.000 A 
ATOM     23  C   UNL     1       8.164  16.439  18.680  0.00  0.00    +0.000 A 
ATOM     24  C   UNL     1       8.729  17.619  18.202  0.00  0.00    +0.000 A 
ATOM     25  C   UNL     1      10.003  17.577  17.640  0.00  0.00    +0.000 A 
ATOM     26  N   UNL     1      10.779  16.468  17.573  0.00  0.00    +0.000 NA
ATOM     27  H   UNL     1      10.105  13.539  22.705  0.00  0.00    +0.000 HD
ATOM     28  H   UNL     1      11.969  14.289  17.700  0.00  0.00    +0.000 HD
ENDROOT
BRANCH   1  29
ATOM     29  C   UNL     1       6.676  16.709  22.628  0.00  0.00    +0.000 C 
ATOM     30  C   UNL     1       7.163  17.746  23.615  0.00  0.00    +0.000 C 
ATOM     31  C   UNL     1       8.102  17.227  22.568  0.00  0.00    +0.000 C 
ENDBRANCH   1  29
BRANCH   1  33
ATOM     32  N   UNL     1       3.641  18.181  22.125  0.00  0.00    +0.000 NA
ATOM     33  C   UNL     1       4.626  17.610  21.844  0.00  0.00    +0.000 C 
ENDBRANCH   1  33
TORSDOF 2
ENDMDL
MODEL 7
REMARK VINA RESULT:      -6.4      2.345      4.931
REMARK  Name = 
REMARK  2 active torsions:
REMARK  status: ('A' for Active; 'I' for Inactive)
REMARK    1  A    between atoms: C_2  and  C_3
REMARK    2  A    between atoms: C_3  and  C_4
REMARK                            x       y       z     vdW  Elec       q    Type
REMARK                         _______ _______ _______ _____ _____    ______ ____
ROOT
ATOM      1  C   UNL     1      -1.870  14.443  23.238  0.00  0.00    +0.000 C 
ATOM      2  C   UNL     1      -3.390  14.326  23.307  0.00  0.00    +0.000 C 
ATOM      3  O   UNL     1      -4.138  15.182  23.759  0.00  0.00    +0.000 OA
ATOM      4  N   UNL     1      -3.752  13.172  22.592  0.00  0.00    +0.000 N 
ATOM      5  C   UNL     1      -2.629  12.256  22.482  0.00  0.00    +0.000 C 
ATOM      6  C   UNL     1      -1.395  12.972  23.049  0.00  0.00    +0.000 C 
ATOM      7  C   UNL     1      -0.050  12.720  22.290  0.00  0.00    +0.000 C 
ATOM      8  O   UNL     1      -0.177  12.890  20.893  0.00  0.00    +0.000 OA
ATOM      9  C   UNL     1       0.672  13.757  20.137  0.00  0.00    +0.000 C 
ATOM     10  C   UNL     1      -0.174  14.367  18.992  0.00  0.00    +0.000 C 
ATOM     11  O   UNL     1      -0.041  15.538  18.631  0.00  0.00    +0.000 OA
ATOM     12  N   UNL     1      -1.101  13.552  18.377  0.00  0.00    +0.000 N 
ATOM     13  C   UNL     1      -1.107  12.101  18.444  0.00  0.00    +0.000 C 
ATOM     14  C   UNL     1      -2.333  11.399  17.924  0.00  0.00    +0.000 A 
ATOM     15  C   UNL     1      -2.251  10.033  17.690  0.00  0.00    +0.000 A 
ATOM     16  C   UNL     1      -3.416   9.320  17.451  0.00  0.00    +0.000 A 
ATOM     17  C   UNL     1      -4.642   9.983  17.526  0.00  0.00    +0.000 A 
ATOM     18  C   UNL     1      -4.662  11.320  17.884  0.00  0.00    +0.000 A 
ATOM     19  N   UNL     1      -3.520  12.041  18.016  0.00  0.00    +0.000 NA
ATOM     20  N   UNL     1      -5.845  11.842  18.425  0.00  0.00    +0.000 N 
ATOM     21  C   UNL     1      -5.975  12.452  19.681  0.00  0.00    +0.000 A 
ATOM     22  C   UNL     1      -4.936  12.359  20.616  0.00  0.00    +0.000 A 
ATOM     23  C   UNL     1      -4.941  13.089  21.799  0.00  0.00    +0.000 A 
ATOM     24  C   UNL     1      -6.104  13.807  22.069  0.00  0.00    +0.000 A 
ATOM     25  C   UNL     1      -7.152  13.763  21.152  0.00  0.00    +0.000 A 
ATOM     26  N   UNL     1      -7.109  13.113  19.963  0.00  0.00    +0.000 NA
ATOM     27  H   UNL     1      -1.689  13.990  17.678  0.00  0.00    +0.000 HD
ATOM     28  H   UNL     1      -6.661  11.908  17.836  0.00  0.00    +0.000 HD
ENDROOT
BRANCH   1  29
ATOM     29  C   UNL     1      -1.391  15.359  22.133  0.00  0.00    +0.000 C 
ATOM     30  C   UNL     1      -1.400  16.865  22.001  0.00  0.00    +0.000 C 
ATOM     31  C   UNL     1      -2.393  16.052  21.227  0.00  0.00    +0.000 C 
ENDBRANCH   1  29
BRANCH   1  33
ATOM     32  N   UNL     1      -0.792  15.467  25.407  0.00  0.00    +0.000 NA
ATOM     33  C   UNL     1      -1.317  14.987  24.475  0.00  0.00    +0.000 C 
ENDBRANCH   1  33
TORSDOF 2
ENDMDL
MODEL 8
REMARK VINA RESULT:      -6.4      8.814     11.480
REMARK  Name = 
REMARK  2 active torsions:
REMARK  status: ('A' for Active; 'I' for Inactive)
REMARK    1  A    between atoms: C_2  and  C_3
REMARK    2  A    between atoms: C_3  and  C_4
REMARK                            x       y       z     vdW  Elec       q    Type
REMARK                         _______ _______ _______ _____ _____    ______ ____
ROOT
ATOM      1  C   UNL     1       5.176  16.673  22.538  0.00  0.00    +0.000 C 
ATOM      2  C   UNL     1       5.481  15.619  23.599  0.00  0.00    +0.000 C 
ATOM      3  O   UNL     1       4.652  15.121  24.349  0.00  0.00    +0.000 OA
ATOM      4  N   UNL     1       6.811  15.209  23.409  0.00  0.00    +0.000 N 
ATOM      5  C   UNL     1       7.564  16.211  22.674  0.00  0.00    +0.000 C 
ATOM      6  C   UNL     1       6.571  17.291  22.222  0.00  0.00    +0.000 C 
ATOM      7  C   UNL     1       6.809  17.885  20.793  0.00  0.00    +0.000 C 
ATOM      8  O   UNL     1       6.998  16.883  19.815  0.00  0.00    +0.000 OA
ATOM      9  C   UNL     1       6.230  16.819  18.612  0.00  0.00    +0.000 C 
ATOM     10  C   UNL     1       6.034  15.326  18.254  0.00  0.00    +0.000 C 
ATOM     11  O   UNL     1       4.976  14.896  17.788  0.00  0.00    +0.000 OA
ATOM     12  N   UNL     1       7.092  14.470  18.477  0.00  0.00    +0.000 N 
ATOM     13  C   UNL     1       8.471  14.884  18.667  0.00  0.00    +0.000 C 
ATOM     14  C   UNL     1       9.439  13.835  19.147  0.00  0.00    +0.000 A 
ATOM     15  C   UNL     1      10.797  14.108  19.046  0.00  0.00    +0.000 A 
ATOM     16  C   UNL     1      11.699  13.280  19.697  0.00  0.00    +0.000 A 
ATOM     17  C   UNL     1      11.212  12.246  20.497  0.00  0.00    +0.000 A 
ATOM     18  C   UNL     1       9.844  12.105  20.654  0.00  0.00    +0.000 A 
ATOM     19  N   UNL     1       8.963  12.845  19.936  0.00  0.00    +0.000 NA
ATOM     20  N   UNL     1       9.375  11.426  21.787  0.00  0.00    +0.000 N 
ATOM     21  C   UNL     1       8.505  11.947  22.756  0.00  0.00    +0.000 A 
ATOM     22  C   UNL     1       8.229  13.321  22.782  0.00  0.00    +0.000 A 
ATOM     23  C   UNL     1       7.244  13.857  23.603  0.00  0.00    +0.000 A 
ATOM     24  C   UNL     1       6.649  12.976  24.503  0.00  0.00    +0.000 A 
ATOM     25  C   UNL     1       7.054  11.642  24.508  0.00  0.00    +0.000 A 
ATOM     26  N   UNL     1       7.958  11.109  23.650  0.00  0.00    +0.000 NA
ATOM     27  H   UNL     1       6.919  13.488  18.300  0.00  0.00    +0.000 HD
ATOM     28  H   UNL     1       9.564  10.439  21.876  0.00  0.00    +0.000 HD
ENDROOT
BRANCH   1  29
ATOM     29  C   UNL     1       4.495  16.107  21.311  0.00  0.00    +0.000 C 
ATOM     30  C   UNL     1       3.076  15.643  21.074  0.00  0.00    +0.000 C 
ATOM     31  C   UNL     1       4.166  14.627  21.235  0.00  0.00    +0.000 C 
ENDBRANCH   1  29
BRANCH   1  33
ATOM     32  N   UNL     1       3.481  18.465  23.449  0.00  0.00    +0.000 NA
ATOM     33  C   UNL     1       4.281  17.707  23.050  0.00  0.00    +0.000 C 
ENDBRANCH   1  33
TORSDOF 2
ENDMDL
MODEL 9
REMARK VINA RESULT:      -6.3     10.289     12.817
REMARK  Name = 
REMARK  2 active torsions:
REMARK  status: ('A' for Active; 'I' for Inactive)
REMARK    1  A    between atoms: C_2  and  C_3
REMARK    2  A    between atoms: C_3  and  C_4
REMARK                            x       y       z     vdW  Elec       q    Type
REMARK                         _______ _______ _______ _____ _____    ______ ____
ROOT
ATOM      1  C   UNL     1       7.605  14.146  23.329  0.00  0.00    +0.000 C 
ATOM      2  C   UNL     1       8.208  12.877  22.731  0.00  0.00    +0.000 C 
ATOM      3  O   UNL     1       7.726  11.757  22.834  0.00  0.00    +0.000 OA
ATOM      4  N   UNL     1       9.273  13.272  21.904  0.00  0.00    +0.000 N 
ATOM      5  C   UNL     1       9.751  14.595  22.269  0.00  0.00    +0.000 C 
ATOM      6  C   UNL     1       8.792  15.153  23.330  0.00  0.00    +0.000 C 
ATOM      7  C   UNL     1       8.466  16.680  23.221  0.00  0.00    +0.000 C 
ATOM      8  O   UNL     1       8.104  17.064  21.911  0.00  0.00    +0.000 OA
ATOM      9  C   UNL     1       6.894  17.766  21.616  0.00  0.00    +0.000 C 
ATOM     10  C   UNL     1       6.393  17.284  20.232  0.00  0.00    +0.000 C 
ATOM     11  O   UNL     1       5.196  17.115  19.990  0.00  0.00    +0.000 OA
ATOM     12  N   UNL     1       7.339  17.040  19.258  0.00  0.00    +0.000 N 
ATOM     13  C   UNL     1       8.705  17.533  19.283  0.00  0.00    +0.000 C 
ATOM     14  C   UNL     1       9.656  16.958  18.268  0.00  0.00    +0.000 A 
ATOM     15  C   UNL     1      10.863  17.614  18.063  0.00  0.00    +0.000 A 
ATOM     16  C   UNL     1      11.855  16.983  17.327  0.00  0.00    +0.000 A 
ATOM     17  C   UNL     1      11.639  15.678  16.880  0.00  0.00    +0.000 A 
ATOM     18  C   UNL     1      10.462  15.036  17.225  0.00  0.00    +0.000 A 
ATOM     19  N   UNL     1       9.451  15.687  17.853  0.00  0.00    +0.000 NA
ATOM     20  N   UNL     1      10.445  13.635  17.213  0.00  0.00    +0.000 N 
ATOM     21  C   UNL     1      10.138  12.807  18.303  0.00  0.00    +0.000 A 
ATOM     22  C   UNL     1      10.060  13.348  19.593  0.00  0.00    +0.000 A 
ATOM     23  C   UNL     1       9.588  12.612  20.673  0.00  0.00    +0.000 A 
ATOM     24  C   UNL     1       9.335  11.263  20.431  0.00  0.00    +0.000 A 
ATOM     25  C   UNL     1       9.548  10.757  19.150  0.00  0.00    +0.000 A 
ATOM     26  N   UNL     1       9.931  11.499  18.082  0.00  0.00    +0.000 NA
ATOM     27  H   UNL     1       6.994  16.662  18.384  0.00  0.00    +0.000 HD
ATOM     28  H   UNL     1      10.539  13.155  16.331  0.00  0.00    +0.000 HD
ENDROOT
BRANCH   1  29
ATOM     29  C   UNL     1       6.405  14.656  22.560  0.00  0.00    +0.000 C 
ATOM     30  C   UNL     1       5.032  15.093  23.015  0.00  0.00    +0.000 C 
ATOM     31  C   UNL     1       5.197  13.761  22.349  0.00  0.00    +0.000 C 
ENDBRANCH   1  29
BRANCH   1  33
ATOM     32  N   UNL     1       6.729  13.653  25.759  0.00  0.00    +0.000 NA
ATOM     33  C   UNL     1       7.139  13.927  24.695  0.00  0.00    +0.000 C 
ENDBRANCH   1  33
TORSDOF 2
ENDMDL
