MODEL 1
REMARK VINA RESULT:      -8.5      0.000      0.000
REMARK  Name = 
REMARK  8 active torsions:
REMARK  status: ('A' for Active; 'I' for Inactive)
REMARK    1  A    between atoms: C_1  and  C_2
REMARK    2  A    between atoms: C_2  and  C_3
REMARK    3  A    between atoms: C_2  and  C_4
REMARK    4  A    between atoms: C_4  and  C_5
REMARK    5  A    between atoms: C_5  and  N_6
REMARK    6  A    between atoms: C_5  and  C_19
REMARK    7  A    between atoms: C_7  and  C_9
REMARK    8  A    between atoms: N_21  and  C_22
REMARK                            x       y       z     vdW  Elec       q    Type
REMARK                         _______ _______ _______ _____ _____    ______ ____
ROOT
ATOM      1  C   UNL     1       3.044   4.833  19.200  0.00  0.00    +0.000 C 
ENDROOT
BRANCH   1   2
ATOM      2  N   UNL     1       2.378   6.062  19.655  0.00  0.00    +0.000 N 
ATOM      3  C   UNL     1       2.354   7.202  18.880  0.00  0.00    +0.000 C 
ATOM      4  O   UNL     1       2.855   7.234  17.760  0.00  0.00    +0.000 OA
ATOM      5  H   UNL     1       1.943   6.056  20.567  0.00  0.00    +0.000 HD
BRANCH   3   6
ATOM      6  C   UNL     1       1.743   8.431  19.461  0.00  0.00    +0.000 A 
ATOM      7  C   UNL     1       1.596   9.606  18.721  0.00  0.00    +0.000 A 
ATOM      8  C   UNL     1       0.923  10.701  19.270  0.00  0.00    +0.000 A 
ATOM      9  C   UNL     1       0.383  10.642  20.568  0.00  0.00    +0.000 A 
ATOM     10  C   UNL     1      -0.329  11.722  21.112  0.00  0.00    +0.000 A 
ATOM     11  C   UNL     1      -0.868  11.650  22.399  0.00  0.00    +0.000 A 
ATOM     12  C   UNL     1      -0.689  10.499  23.161  0.00  0.00    +0.000 A 
ATOM     13  C   UNL     1       0.013   9.414  22.631  0.00  0.00    +0.000 A 
ATOM     14  C   UNL     1       0.546   9.463  21.330  0.00  0.00    +0.000 A 
ATOM     15  C   UNL     1       1.221   8.367  20.763  0.00  0.00    +0.000 A 
ENDBRANCH   3   6
ENDBRANCH   1   2
BRANCH   1  16
ATOM     16  C   UNL     1       4.540   5.133  18.872  0.00  0.00    +0.000 C 
ATOM     17  O   UNL     1       5.369   5.486  19.711  0.00  0.00    +0.000 OA
ATOM     18  N   UNL     1       4.892   4.887  17.561  0.00  0.00    +0.000 N 
ATOM     19  H   UNL     1       4.218   4.354  17.002  0.00  0.00    +0.000 HD
BRANCH  18  20
ATOM     20  C   UNL     1       6.269   4.888  17.095  0.00  0.00    +0.000 C 
ATOM     21  C   UNL     1       6.845   6.239  16.685  0.00  0.00    +0.000 C 
ATOM     22  O   UNL     1       7.711   6.004  15.559  0.00  0.00    +0.000 OA
ATOM     23  C   UNL     1       7.098   4.982  14.759  0.00  0.00    +0.000 C 
ATOM     24  C   UNL     1       6.347   4.171  15.773  0.00  0.00    +0.000 C 
ATOM     25  O   UNL     1       5.820   3.089  15.537  0.00  0.00    +0.000 OA
ENDBRANCH  18  20
ENDBRANCH   1  16
BRANCH   1  26
ATOM     26  C   UNL     1       2.906   3.694  20.229  0.00  0.00    +0.000 C 
BRANCH  26  28
ATOM     27  C   UNL     1       0.666   2.670  19.506  0.00  0.00    +0.000 C 
ATOM     28  C   UNL     1       1.456   3.337  20.633  0.00  0.00    +0.000 C 
ATOM     29  C   UNL     1       1.446   2.418  21.862  0.00  0.00    +0.000 C 
ENDBRANCH  26  28
ENDBRANCH   1  26
TORSDOF 6
ENDMDL
MODEL 2
REMARK VINA RESULT:      -8.4      0.761      1.028
REMARK  Name = 
REMARK  8 active torsions:
REMARK  status: ('A' for Active; 'I' for Inactive)
REMARK    1  A    between atoms: C_1  and  C_2
REMARK    2  A    between atoms: C_2  and  C_3
REMARK    3  A    between atoms: C_2  and  C_4
REMARK    4  A    between atoms: C_4  and  C_5
REMARK    5  A    between atoms: C_5  and  N_6
REMARK    6  A    between atoms: C_5  and  C_19
REMARK    7  A    between atoms: C_7  and  C_9
REMARK    8  A    between atoms: N_21  and  C_22
REMARK                            x       y       z     vdW  Elec       q    Type
REMARK                         _______ _______ _______ _____ _____    ______ ____
ROOT
ATOM      1  C   UNL     1       3.456   4.128  19.050  0.00  0.00    +0.000 C 
ENDROOT
BRANCH   1   2
ATOM      2  N   UNL     1       2.804   5.378  19.471  0.00  0.00    +0.000 N 
ATOM      3  C   UNL     1       2.674   6.450  18.614  0.00  0.00    +0.000 C 
ATOM      4  O   UNL     1       3.064   6.401  17.451  0.00  0.00    +0.000 OA
ATOM      5  H   UNL     1       2.459   5.437  20.418  0.00  0.00    +0.000 HD
BRANCH   3   6
ATOM      6  C   UNL     1       2.090   7.711  19.154  0.00  0.00    +0.000 A 
ATOM      7  C   UNL     1       1.884   8.835  18.352  0.00  0.00    +0.000 A 
ATOM      8  C   UNL     1       1.237   9.959  18.873  0.00  0.00    +0.000 A 
ATOM      9  C   UNL     1       0.780   9.980  20.203  0.00  0.00    +0.000 A 
ATOM     10  C   UNL     1       0.094  11.088  20.723  0.00  0.00    +0.000 A 
ATOM     11  C   UNL     1      -0.362  11.095  22.043  0.00  0.00    +0.000 A 
ATOM     12  C   UNL     1      -0.123   9.996  22.864  0.00  0.00    +0.000 A 
ATOM     13  C   UNL     1       0.554   8.884  22.359  0.00  0.00    +0.000 A 
ATOM     14  C   UNL     1       1.004   8.853  21.026  0.00  0.00    +0.000 A 
ATOM     15  C   UNL     1       1.651   7.727  20.488  0.00  0.00    +0.000 A 
ENDBRANCH   3   6
ENDBRANCH   1   2
BRANCH   1  16
ATOM     16  C   UNL     1       4.934   4.416  18.641  0.00  0.00    +0.000 C 
ATOM     17  O   UNL     1       5.862   4.508  19.444  0.00  0.00    +0.000 OA
ATOM     18  N   UNL     1       5.143   4.476  17.279  0.00  0.00    +0.000 N 
ATOM     19  H   UNL     1       4.380   4.134  16.687  0.00  0.00    +0.000 HD
BRANCH  18  20
ATOM     20  C   UNL     1       6.467   4.514  16.680  0.00  0.00    +0.000 C 
ATOM     21  C   UNL     1       7.073   5.896  16.460  0.00  0.00    +0.000 C 
ATOM     22  O   UNL     1       7.812   5.841  15.225  0.00  0.00    +0.000 OA
ATOM     23  C   UNL     1       7.071   5.006  14.325  0.00  0.00    +0.000 C 
ATOM     24  C   UNL     1       6.379   4.050  15.250  0.00  0.00    +0.000 C 
ATOM     25  O   UNL     1       5.774   3.048  14.881  0.00  0.00    +0.000 OA
ENDBRANCH  18  20
ENDBRANCH   1  16
BRANCH   1  26
ATOM     26  C   UNL     1       3.369   3.044  20.141  0.00  0.00    +0.000 C 
BRANCH  26  28
ATOM     27  C   UNL     1       1.116   2.898  21.365  0.00  0.00    +0.000 C 
ATOM     28  C   UNL     1       2.002   2.327  20.257  0.00  0.00    +0.000 C 
ATOM     29  C   UNL     1       1.242   2.394  18.925  0.00  0.00    +0.000 C 
ENDBRANCH  26  28
ENDBRANCH   1  26
TORSDOF 6
ENDMDL
MODEL 3
REMARK VINA RESULT:      -8.1      1.318      1.611
REMARK  Name = 
REMARK  8 active torsions:
REMARK  status: ('A' for Active; 'I' for Inactive)
REMARK    1  A    between atoms: C_1  and  C_2
REMARK    2  A    between atoms: C_2  and  C_3
REMARK    3  A    between atoms: C_2  and  C_4
REMARK    4  A    between atoms: C_4  and  C_5
REMARK    5  A    between atoms: C_5  and  N_6
REMARK    6  A    between atoms: C_5  and  C_19
REMARK    7  A    between atoms: C_7  and  C_9
REMARK    8  A    between atoms: N_21  and  C_22
REMARK                            x       y       z     vdW  Elec       q    Type
REMARK                         _______ _______ _______ _____ _____    ______ ____
ROOT
ATOM      1  C   UNL     1       3.222   3.872  17.813  0.00  0.00    +0.000 C 
ENDROOT
BRANCH   1   2
ATOM      2  N   UNL     1       2.652   5.222  17.931  0.00  0.00    +0.000 N 
ATOM      3  C   UNL     1       3.051   6.093  18.923  0.00  0.00    +0.000 C 
ATOM      4  O   UNL     1       3.926   5.796  19.731  0.00  0.00    +0.000 OA
ATOM      5  H   UNL     1       1.942   5.496  17.267  0.00  0.00    +0.000 HD
BRANCH   3   6
ATOM      6  C   UNL     1       2.350   7.404  19.029  0.00  0.00    +0.000 A 
ATOM      7  C   UNL     1       2.172   8.239  17.924  0.00  0.00    +0.000 A 
ATOM      8  C   UNL     1       1.417   9.410  18.045  0.00  0.00    +0.000 A 
ATOM      9  C   UNL     1       0.823   9.765  19.270  0.00  0.00    +0.000 A 
ATOM     10  C   UNL     1       0.030  10.916  19.391  0.00  0.00    +0.000 A 
ATOM     11  C   UNL     1      -0.561  11.255  20.610  0.00  0.00    +0.000 A 
ATOM     12  C   UNL     1      -0.354  10.452  21.727  0.00  0.00    +0.000 A 
ATOM     13  C   UNL     1       0.428   9.299  21.621  0.00  0.00    +0.000 A 
ATOM     14  C   UNL     1       1.016   8.933  20.396  0.00  0.00    +0.000 A 
ATOM     15  C   UNL     1       1.773   7.756  20.260  0.00  0.00    +0.000 A 
ENDBRANCH   3   6
ENDBRANCH   1   2
BRANCH   1  16
ATOM     16  C   UNL     1       4.737   3.968  17.452  0.00  0.00    +0.000 C 
ATOM     17  O   UNL     1       5.648   3.789  18.260  0.00  0.00    +0.000 OA
ATOM     18  N   UNL     1       4.986   4.190  16.114  0.00  0.00    +0.000 N 
ATOM     19  H   UNL     1       4.193   4.067  15.477  0.00  0.00    +0.000 HD
BRANCH  18  20
ATOM     20  C   UNL     1       6.313   4.095  15.527  0.00  0.00    +0.000 C 
ATOM     21  C   UNL     1       7.216   5.313  15.693  0.00  0.00    +0.000 C 
ATOM     22  O   UNL     1       7.983   5.438  14.480  0.00  0.00    +0.000 OA
ATOM     23  C   UNL     1       7.120   5.071  13.394  0.00  0.00    +0.000 C 
ATOM     24  C   UNL     1       6.193   4.077  14.026  0.00  0.00    +0.000 C 
ATOM     25  O   UNL     1       5.402   3.377  13.401  0.00  0.00    +0.000 OA
ENDBRANCH  18  20
ENDBRANCH   1  16
BRANCH   1  26
ATOM     26  C   UNL     1       2.994   3.043  19.093  0.00  0.00    +0.000 C 
BRANCH  26  28
ATOM     27  C   UNL     1       0.559   2.249  18.925  0.00  0.00    +0.000 C 
ATOM     28  C   UNL     1       1.566   3.114  19.683  0.00  0.00    +0.000 C 
ATOM     29  C   UNL     1       1.570   2.697  21.161  0.00  0.00    +0.000 C 
ENDBRANCH  26  28
ENDBRANCH   1  26
TORSDOF 6
ENDMDL
MODEL 4
REMARK VINA RESULT:      -8.0      1.428      2.060
REMARK  Name = 
REMARK  8 active torsions:
REMARK  status: ('A' for Active; 'I' for Inactive)
REMARK    1  A    between atoms: C_1  and  C_2
REMARK    2  A    between atoms: C_2  and  C_3
REMARK    3  A    between atoms: C_2  and  C_4
REMARK    4  A    between atoms: C_4  and  C_5
REMARK    5  A    between atoms: C_5  and  N_6
REMARK    6  A    between atoms: C_5  and  C_19
REMARK    7  A    between atoms: C_7  and  C_9
REMARK    8  A    between atoms: N_21  and  C_22
REMARK                            x       y       z     vdW  Elec       q    Type
REMARK                         _______ _______ _______ _____ _____    ______ ____
ROOT
ATOM      1  C   UNL     1       3.165   4.140  17.676  0.00  0.00    +0.000 C 
ENDROOT
BRANCH   1   2
ATOM      2  N   UNL     1       2.622   5.494  17.860  0.00  0.00    +0.000 N 
ATOM      3  C   UNL     1       2.833   6.207  19.020  0.00  0.00    +0.000 C 
ATOM      4  O   UNL     1       3.514   5.762  19.940  0.00  0.00    +0.000 OA
ATOM      5  H   UNL     1       2.073   5.890  17.110  0.00  0.00    +0.000 HD
BRANCH   3   6
ATOM      6  C   UNL     1       2.163   7.532  19.160  0.00  0.00    +0.000 A 
ATOM      7  C   UNL     1       1.992   8.392  18.075  0.00  0.00    +0.000 A 
ATOM      8  C   UNL     1       1.265   9.577  18.227  0.00  0.00    +0.000 A 
ATOM      9  C   UNL     1       0.693   9.921  19.466  0.00  0.00    +0.000 A 
ATOM     10  C   UNL     1      -0.072  11.087  19.619  0.00  0.00    +0.000 A 
ATOM     11  C   UNL     1      -0.641  11.415  20.851  0.00  0.00    +0.000 A 
ATOM     12  C   UNL     1      -0.440  10.585  21.950  0.00  0.00    +0.000 A 
ATOM     13  C   UNL     1       0.315   9.418  21.812  0.00  0.00    +0.000 A 
ATOM     14  C   UNL     1       0.880   9.063  20.573  0.00  0.00    +0.000 A 
ATOM     15  C   UNL     1       1.609   7.872  20.404  0.00  0.00    +0.000 A 
ENDBRANCH   3   6
ENDBRANCH   1   2
BRANCH   1  16
ATOM     16  C   UNL     1       4.685   4.223  17.331  0.00  0.00    +0.000 C 
ATOM     17  O   UNL     1       5.199   3.667  16.361  0.00  0.00    +0.000 OA
ATOM     18  N   UNL     1       5.409   5.052  18.162  0.00  0.00    +0.000 N 
ATOM     19  H   UNL     1       4.866   5.671  18.772  0.00  0.00    +0.000 HD
BRANCH  18  20
ATOM     20  C   UNL     1       6.782   5.445  17.891  0.00  0.00    +0.000 C 
ATOM     21  C   UNL     1       7.613   5.882  19.093  0.00  0.00    +0.000 C 
ATOM     22  O   UNL     1       8.469   6.951  18.648  0.00  0.00    +0.000 OA
ATOM     23  C   UNL     1       7.716   7.736  17.713  0.00  0.00    +0.000 C 
ATOM     24  C   UNL     1       6.786   6.729  17.105  0.00  0.00    +0.000 C 
ATOM     25  O   UNL     1       6.082   6.945  16.124  0.00  0.00    +0.000 OA
ENDBRANCH  18  20
ENDBRANCH   1  16
BRANCH   1  26
ATOM     26  C   UNL     1       2.911   3.251  18.910  0.00  0.00    +0.000 C 
BRANCH  26  28
ATOM     27  C   UNL     1       0.618   2.110  18.734  0.00  0.00    +0.000 C 
ATOM     28  C   UNL     1       1.445   3.207  19.404  0.00  0.00    +0.000 C 
ATOM     29  C   UNL     1       1.393   3.013  20.926  0.00  0.00    +0.000 C 
ENDBRANCH  26  28
ENDBRANCH   1  26
TORSDOF 6
ENDMDL
MODEL 5
REMARK VINA RESULT:      -7.9      1.434      1.838
REMARK  Name = 
REMARK  8 active torsions:
REMARK  status: ('A' for Active; 'I' for Inactive)
REMARK    1  A    between atoms: C_1  and  C_2
REMARK    2  A    between atoms: C_2  and  C_3
REMARK    3  A    between atoms: C_2  and  C_4
REMARK    4  A    between atoms: C_4  and  C_5
REMARK    5  A    between atoms: C_5  and  N_6
REMARK    6  A    between atoms: C_5  and  C_19
REMARK    7  A    between atoms: C_7  and  C_9
REMARK    8  A    between atoms: N_21  and  C_22
REMARK                            x       y       z     vdW  Elec       q    Type
REMARK                         _______ _______ _______ _____ _____    ______ ____
ROOT
ATOM      1  C   UNL     1       3.179   4.503  19.361  0.00  0.00    +0.000 C 
ENDROOT
BRANCH   1   2
ATOM      2  N   UNL     1       2.539   5.741  19.830  0.00  0.00    +0.000 N 
ATOM      3  C   UNL     1       2.277   6.789  18.973  0.00  0.00    +0.000 C 
ATOM      4  O   UNL     1       2.531   6.725  17.774  0.00  0.00    +0.000 OA
ATOM      5  H   UNL     1       2.304   5.812  20.810  0.00  0.00    +0.000 HD
BRANCH   3   6
ATOM      6  C   UNL     1       1.717   8.044  19.553  0.00  0.00    +0.000 A 
ATOM      7  C   UNL     1       1.618   9.222  18.810  0.00  0.00    +0.000 A 
ATOM      8  C   UNL     1       0.991  10.345  19.358  0.00  0.00    +0.000 A 
ATOM      9  C   UNL     1       0.449  10.311  20.655  0.00  0.00    +0.000 A 
ATOM     10  C   UNL     1      -0.218  11.419  21.198  0.00  0.00    +0.000 A 
ATOM     11  C   UNL     1      -0.759  11.372  22.485  0.00  0.00    +0.000 A 
ATOM     12  C   UNL     1      -0.627  10.216  23.249  0.00  0.00    +0.000 A 
ATOM     13  C   UNL     1       0.029   9.102  22.721  0.00  0.00    +0.000 A 
ATOM     14  C   UNL     1       0.564   9.127  21.419  0.00  0.00    +0.000 A 
ATOM     15  C   UNL     1       1.193   8.003  20.854  0.00  0.00    +0.000 A 
ENDBRANCH   3   6
ENDBRANCH   1   2
BRANCH   1  16
ATOM     16  C   UNL     1       4.730   4.676  19.364  0.00  0.00    +0.000 C 
ATOM     17  O   UNL     1       5.493   4.008  20.060  0.00  0.00    +0.000 OA
ATOM     18  N   UNL     1       5.198   5.593  18.446  0.00  0.00    +0.000 N 
ATOM     19  H   UNL     1       4.530   5.907  17.736  0.00  0.00    +0.000 HD
BRANCH  18  20
ATOM     20  C   UNL     1       6.608   5.750  18.129  0.00  0.00    +0.000 C 
ATOM     21  C   UNL     1       7.514   6.206  19.268  0.00  0.00    +0.000 C 
ATOM     22  O   UNL     1       8.505   7.079  18.696  0.00  0.00    +0.000 OA
ATOM     23  C   UNL     1       7.855   7.846  17.673  0.00  0.00    +0.000 C 
ATOM     24  C   UNL     1       6.780   6.916  17.192  0.00  0.00    +0.000 C 
ATOM     25  O   UNL     1       6.096   7.111  16.192  0.00  0.00    +0.000 OA
ENDBRANCH  18  20
ENDBRANCH   1  16
BRANCH   1  26
ATOM     26  C   UNL     1       2.742   3.284  20.196  0.00  0.00    +0.000 C 
BRANCH  26  28
ATOM     27  C   UNL     1       0.759   2.408  18.821  0.00  0.00    +0.000 C 
ATOM     28  C   UNL     1       2.146   2.106  19.389  0.00  0.00    +0.000 C 
ATOM     29  C   UNL     1       3.081   1.711  18.238  0.00  0.00    +0.000 C 
ENDBRANCH  26  28
ENDBRANCH   1  26
TORSDOF 6
ENDMDL
MODEL 6
REMARK VINA RESULT:      -7.9      2.154      8.318
REMARK  Name = 
REMARK  8 active torsions:
REMARK  status: ('A' for Active; 'I' for Inactive)
REMARK    1  A    between atoms: C_1  and  C_2
REMARK    2  A    between atoms: C_2  and  C_3
REMARK    3  A    between atoms: C_2  and  C_4
REMARK    4  A    between atoms: C_4  and  C_5
REMARK    5  A    between atoms: C_5  and  N_6
REMARK    6  A    between atoms: C_5  and  C_19
REMARK    7  A    between atoms: C_7  and  C_9
REMARK    8  A    between atoms: N_21  and  C_22
REMARK                            x       y       z     vdW  Elec       q    Type
REMARK                         _______ _______ _______ _____ _____    ______ ____
ROOT
ATOM      1  C   UNL     1       2.822   5.763  19.542  0.00  0.00    +0.000 C 
ENDROOT
BRANCH   1   2
ATOM      2  N   UNL     1       3.551   5.613  18.274  0.00  0.00    +0.000 N 
ATOM      3  C   UNL     1       4.873   5.223  18.242  0.00  0.00    +0.000 C 
ATOM      4  O   UNL     1       5.493   4.948  19.265  0.00  0.00    +0.000 OA
ATOM      5  H   UNL     1       3.059   5.817  17.416  0.00  0.00    +0.000 HD
BRANCH   3   6
ATOM      6  C   UNL     1       5.562   5.193  16.920  0.00  0.00    +0.000 A 
ATOM      7  C   UNL     1       6.821   5.766  16.728  0.00  0.00    +0.000 A 
ATOM      8  C   UNL     1       7.477   5.623  15.501  0.00  0.00    +0.000 A 
ATOM      9  C   UNL     1       6.889   4.903  14.446  0.00  0.00    +0.000 A 
ATOM     10  C   UNL     1       7.556   4.720  13.226  0.00  0.00    +0.000 A 
ATOM     11  C   UNL     1       6.966   3.996  12.186  0.00  0.00    +0.000 A 
ATOM     12  C   UNL     1       5.693   3.458  12.353  0.00  0.00    +0.000 A 
ATOM     13  C   UNL     1       5.018   3.627  13.564  0.00  0.00    +0.000 A 
ATOM     14  C   UNL     1       5.606   4.338  14.628  0.00  0.00    +0.000 A 
ATOM     15  C   UNL     1       4.960   4.485  15.868  0.00  0.00    +0.000 A 
ENDBRANCH   3   6
ENDBRANCH   1   2
BRANCH   1  16
ATOM     16  C   UNL     1       2.313   7.232  19.688  0.00  0.00    +0.000 C 
ATOM     17  O   UNL     1       2.205   8.016  18.746  0.00  0.00    +0.000 OA
ATOM     18  N   UNL     1       1.904   7.564  20.962  0.00  0.00    +0.000 N 
ATOM     19  H   UNL     1       1.782   6.786  21.618  0.00  0.00    +0.000 HD
BRANCH  18  20
ATOM     20  C   UNL     1       1.196   8.795  21.273  0.00  0.00    +0.000 C 
ATOM     21  C   UNL     1       1.685   9.570  22.492  0.00  0.00    +0.000 C 
ATOM     22  O   UNL     1       0.523  10.136  23.126  0.00  0.00    +0.000 OA
ATOM     23  C   UNL     1      -0.534   9.174  23.009  0.00  0.00    +0.000 C 
ATOM     24  C   UNL     1      -0.200   8.465  21.731  0.00  0.00    +0.000 C 
ATOM     25  O   UNL     1      -0.949   7.676  21.163  0.00  0.00    +0.000 OA
ENDBRANCH  18  20
ENDBRANCH   1  16
BRANCH   1  26
ATOM     26  C   UNL     1       1.669   4.748  19.660  0.00  0.00    +0.000 C 
BRANCH  26  28
ATOM     27  C   UNL     1       2.893   2.534  20.094  0.00  0.00    +0.000 C 
ATOM     28  C   UNL     1       1.985   3.322  19.150  0.00  0.00    +0.000 C 
ATOM     29  C   UNL     1       0.691   2.529  18.922  0.00  0.00    +0.000 C 
ENDBRANCH  26  28
ENDBRANCH   1  26
TORSDOF 6
ENDMDL
MODEL 7
REMARK VINA RESULT:      -7.9      0.914      1.850
REMARK  Name = 
REMARK  8 active torsions:
REMARK  status: ('A' for Active; 'I' for Inactive)
REMARK    1  A    between atoms: C_1  and  C_2
REMARK    2  A    between atoms: C_2  and  C_3
REMARK    3  A    between atoms: C_2  and  C_4
REMARK    4  A    between atoms: C_4  and  C_5
REMARK    5  A    between atoms: C_5  and  N_6
REMARK    6  A    between atoms: C_5  and  C_19
REMARK    7  A    between atoms: C_7  and  C_9
REMARK    8  A    between atoms: N_21  and  C_22
REMARK                            x       y       z     vdW  Elec       q    Type
REMARK                         _______ _______ _______ _____ _____    ______ ____
ROOT
ATOM      1  C   UNL     1       3.434   4.152  19.340  0.00  0.00    +0.000 C 
ENDROOT
BRANCH   1   2
ATOM      2  N   UNL     1       2.748   5.345  19.858  0.00  0.00    +0.000 N 
ATOM      3  C   UNL     1       2.420   6.404  19.038  0.00  0.00    +0.000 C 
ATOM      4  O   UNL     1       2.652   6.386  17.833  0.00  0.00    +0.000 OA
ATOM      5  H   UNL     1       2.531   5.377  20.843  0.00  0.00    +0.000 HD
BRANCH   3   6
ATOM      6  C   UNL     1       1.815   7.614  19.665  0.00  0.00    +0.000 A 
ATOM      7  C   UNL     1       1.509   7.667  21.026  0.00  0.00    +0.000 A 
ATOM      8  C   UNL     1       1.041   8.857  21.593  0.00  0.00    +0.000 A 
ATOM      9  C   UNL     1       0.875  10.015  20.812  0.00  0.00    +0.000 A 
ATOM     10  C   UNL     1       0.445  11.223  21.379  0.00  0.00    +0.000 A 
ATOM     11  C   UNL     1       0.290  12.370  20.595  0.00  0.00    +0.000 A 
ATOM     12  C   UNL     1       0.551  12.314  19.230  0.00  0.00    +0.000 A 
ATOM     13  C   UNL     1       0.985  11.120  18.651  0.00  0.00    +0.000 A 
ATOM     14  C   UNL     1       1.164   9.961  19.429  0.00  0.00    +0.000 A 
ATOM     15  C   UNL     1       1.638   8.760  18.873  0.00  0.00    +0.000 A 
ENDBRANCH   3   6
ENDBRANCH   1   2
BRANCH   1  16
ATOM     16  C   UNL     1       4.897   4.518  18.937  0.00  0.00    +0.000 C 
ATOM     17  O   UNL     1       5.805   4.707  19.747  0.00  0.00    +0.000 OA
ATOM     18  N   UNL     1       5.123   4.530  17.577  0.00  0.00    +0.000 N 
ATOM     19  H   UNL     1       4.393   4.111  16.991  0.00  0.00    +0.000 HD
BRANCH  18  20
ATOM     20  C   UNL     1       6.451   4.627  16.993  0.00  0.00    +0.000 C 
ATOM     21  C   UNL     1       6.965   6.034  16.708  0.00  0.00    +0.000 C 
ATOM     22  O   UNL     1       7.726   5.967  15.488  0.00  0.00    +0.000 OA
ATOM     23  C   UNL     1       7.058   5.037  14.623  0.00  0.00    +0.000 C 
ATOM     24  C   UNL     1       6.417   4.085  15.588  0.00  0.00    +0.000 C 
ATOM     25  O   UNL     1       5.888   3.026  15.265  0.00  0.00    +0.000 OA
ENDBRANCH  18  20
ENDBRANCH   1  16
BRANCH   1  26
ATOM     26  C   UNL     1       3.397   2.989  20.351  0.00  0.00    +0.000 C 
BRANCH  26  28
ATOM     27  C   UNL     1       1.192   2.747  21.643  0.00  0.00    +0.000 C 
ATOM     28  C   UNL     1       2.040   2.256  20.468  0.00  0.00    +0.000 C 
ATOM     29  C   UNL     1       1.230   2.404  19.172  0.00  0.00    +0.000 C 
ENDBRANCH  26  28
ENDBRANCH   1  26
TORSDOF 6
ENDMDL
MODEL 8
REMARK VINA RESULT:      -7.8      4.287      7.357
REMARK  Name = 
REMARK  8 active torsions:
REMARK  status: ('A' for Active; 'I' for Inactive)
REMARK    1  A    between atoms: C_1  and  C_2
REMARK    2  A    between atoms: C_2  and  C_3
REMARK    3  A    between atoms: C_2  and  C_4
REMARK    4  A    between atoms: C_4  and  C_5
REMARK    5  A    between atoms: C_5  and  N_6
REMARK    6  A    between atoms: C_5  and  C_19
REMARK    7  A    between atoms: C_7  and  C_9
REMARK    8  A    between atoms: N_21  and  C_22
REMARK                            x       y       z     vdW  Elec       q    Type
REMARK                         _______ _______ _______ _____ _____    ______ ____
ROOT
ATOM      1  C   UNL     1       5.671   6.560  17.024  0.00  0.00    +0.000 C 
ENDROOT
BRANCH   1   2
ATOM      2  N   UNL     1       6.375   7.848  17.122  0.00  0.00    +0.000 N 
ATOM      3  C   UNL     1       7.535   7.984  17.855  0.00  0.00    +0.000 C 
ATOM      4  O   UNL     1       8.054   7.031  18.429  0.00  0.00    +0.000 OA
ATOM      5  H   UNL     1       5.977   8.643  16.645  0.00  0.00    +0.000 HD
BRANCH   3   6
ATOM      6  C   UNL     1       8.127   9.346  17.983  0.00  0.00    +0.000 A 
ATOM      7  C   UNL     1       7.653  10.431  17.242  0.00  0.00    +0.000 A 
ATOM      8  C   UNL     1       8.166  11.712  17.469  0.00  0.00    +0.000 A 
ATOM      9  C   UNL     1       9.158  11.933  18.442  0.00  0.00    +0.000 A 
ATOM     10  C   UNL     1       9.649  13.220  18.705  0.00  0.00    +0.000 A 
ATOM     11  C   UNL     1      10.629  13.429  19.679  0.00  0.00    +0.000 A 
ATOM     12  C   UNL     1      11.139  12.348  20.391  0.00  0.00    +0.000 A 
ATOM     13  C   UNL     1      10.655  11.061  20.145  0.00  0.00    +0.000 A 
ATOM     14  C   UNL     1       9.655  10.835  19.180  0.00  0.00    +0.000 A 
ATOM     15  C   UNL     1       9.127   9.553  18.946  0.00  0.00    +0.000 A 
ENDBRANCH   3   6
ENDBRANCH   1   2
BRANCH   1  16
ATOM     16  C   UNL     1       4.255   6.682  17.668  0.00  0.00    +0.000 C 
ATOM     17  O   UNL     1       3.614   7.731  17.724  0.00  0.00    +0.000 OA
ATOM     18  N   UNL     1       3.727   5.484  18.103  0.00  0.00    +0.000 N 
ATOM     19  H   UNL     1       4.205   4.634  17.786  0.00  0.00    +0.000 HD
BRANCH  18  20
ATOM     20  C   UNL     1       2.345   5.333  18.529  0.00  0.00    +0.000 C 
ATOM     21  C   UNL     1       2.099   5.302  20.034  0.00  0.00    +0.000 C 
ATOM     22  O   UNL     1       1.031   4.365  20.267  0.00  0.00    +0.000 OA
ATOM     23  C   UNL     1       1.204   3.285  19.339  0.00  0.00    +0.000 C 
ATOM     24  C   UNL     1       1.861   3.954  18.168  0.00  0.00    +0.000 C 
ATOM     25  O   UNL     1       2.028   3.423  17.075  0.00  0.00    +0.000 OA
ENDBRANCH  18  20
ENDBRANCH   1  16
BRANCH   1  26
ATOM     26  C   UNL     1       5.592   6.064  15.567  0.00  0.00    +0.000 C 
BRANCH  26  28
ATOM     27  C   UNL     1       6.509   4.336  13.904  0.00  0.00    +0.000 C 
ATOM     28  C   UNL     1       6.048   4.604  15.338  0.00  0.00    +0.000 C 
ATOM     29  C   UNL     1       7.181   4.232  16.304  0.00  0.00    +0.000 C 
ENDBRANCH  26  28
ENDBRANCH   1  26
TORSDOF 6
ENDMDL
MODEL 9
REMARK VINA RESULT:      -7.8      1.880      4.880
REMARK  Name = 
REMARK  8 active torsions:
REMARK  status: ('A' for Active; 'I' for Inactive)
REMARK    1  A    between atoms: C_1  and  C_2
REMARK    2  A    between atoms: C_2  and  C_3
REMARK    3  A    between atoms: C_2  and  C_4
REMARK    4  A    between atoms: C_4  and  C_5
REMARK    5  A    between atoms: C_5  and  N_6
REMARK    6  A    between atoms: C_5  and  C_19
REMARK    7  A    between atoms: C_7  and  C_9
REMARK    8  A    between atoms: N_21  and  C_22
REMARK                            x       y       z     vdW  Elec       q    Type
REMARK                         _______ _______ _______ _____ _____    ______ ____
ROOT
ATOM      1  C   UNL     1       4.434   4.588  16.976  0.00  0.00    +0.000 C 
ENDROOT
BRANCH   1   2
ATOM      2  N   UNL     1       3.665   5.811  17.253  0.00  0.00    +0.000 N 
ATOM      3  C   UNL     1       3.626   6.372  18.512  0.00  0.00    +0.000 C 
ATOM      4  O   UNL     1       4.260   5.899  19.451  0.00  0.00    +0.000 OA
ATOM      5  H   UNL     1       3.149   6.228  16.492  0.00  0.00    +0.000 HD
BRANCH   3   6
ATOM      6  C   UNL     1       2.742   7.553  18.725  0.00  0.00    +0.000 A 
ATOM      7  C   UNL     1       2.443   8.448  17.697  0.00  0.00    +0.000 A 
ATOM      8  C   UNL     1       1.526   9.482  17.912  0.00  0.00    +0.000 A 
ATOM      9  C   UNL     1       0.890   9.637  19.157  0.00  0.00    +0.000 A 
ATOM     10  C   UNL     1      -0.061  10.646  19.371  0.00  0.00    +0.000 A 
ATOM     11  C   UNL     1      -0.693  10.787  20.609  0.00  0.00    +0.000 A 
ATOM     12  C   UNL     1      -0.369   9.926  21.653  0.00  0.00    +0.000 A 
ATOM     13  C   UNL     1       0.572   8.913  21.454  0.00  0.00    +0.000 A 
ATOM     14  C   UNL     1       1.204   8.746  20.208  0.00  0.00    +0.000 A 
ATOM     15  C   UNL     1       2.124   7.708  19.976  0.00  0.00    +0.000 A 
ENDBRANCH   3   6
ENDBRANCH   1   2
BRANCH   1  16
ATOM     16  C   UNL     1       3.728   3.360  17.631  0.00  0.00    +0.000 C 
ATOM     17  O   UNL     1       4.032   2.190  17.399  0.00  0.00    +0.000 OA
ATOM     18  N   UNL     1       2.777   3.691  18.573  0.00  0.00    +0.000 N 
ATOM     19  H   UNL     1       2.772   4.665  18.892  0.00  0.00    +0.000 HD
BRANCH  18  20
ATOM     20  C   UNL     1       2.160   2.714  19.456  0.00  0.00    +0.000 C 
ATOM     21  C   UNL     1       0.863   3.139  20.137  0.00  0.00    +0.000 C 
ATOM     22  O   UNL     1       0.874   2.569  21.459  0.00  0.00    +0.000 OA
ATOM     23  C   UNL     1       2.227   2.627  21.934  0.00  0.00    +0.000 C 
ATOM     24  C   UNL     1       3.029   2.523  20.671  0.00  0.00    +0.000 C 
ATOM     25  O   UNL     1       4.244   2.357  20.637  0.00  0.00    +0.000 OA
ENDBRANCH  18  20
ENDBRANCH   1  16
BRANCH   1  26
ATOM     26  C   UNL     1       4.650   4.380  15.465  0.00  0.00    +0.000 C 
BRANCH  26  28
ATOM     27  C   UNL     1       7.157   4.626  15.960  0.00  0.00    +0.000 C 
ATOM     28  C   UNL     1       6.041   4.798  14.929  0.00  0.00    +0.000 C 
ATOM     29  C   UNL     1       6.397   3.998  13.668  0.00  0.00    +0.000 C 
ENDBRANCH  26  28
ENDBRANCH   1  26
TORSDOF 6
ENDMDL
