MODEL 1
REMARK VINA RESULT:      -7.1      0.000      0.000
REMARK  Name = 
REMARK  3 active torsions:
REMARK  status: ('A' for Active; 'I' for Inactive)
REMARK    1  A    between atoms: C_1  and  N_2
REMARK    2  A    between atoms: C_6  and  C_7
REMARK    3  A    between atoms: C_20  and  C_21
REMARK                            x       y       z     vdW  Elec       q    Type
REMARK                         _______ _______ _______ _____ _____    ______ ____
ROOT
ATOM      1  C   UNL     1       1.934  13.205  20.474  0.00  0.00    +0.000 C 
ATOM      2  N   UNL     1       0.710  12.676  19.927  0.00  0.00    +0.000 N 
ATOM      3  N   UNL     1      -0.537  12.903  20.464  0.00  0.00    +0.000 NA
ATOM      4  C   UNL     1      -1.432  12.379  19.709  0.00  0.00    +0.000 C 
ATOM      5  C   UNL     1      -2.908  12.364  19.882  0.00  0.00    +0.000 C 
ATOM      6  C   UNL     1      -3.570  13.315  20.603  0.00  0.00    +0.000 C 
ATOM      7  C   UNL     1      -3.593  11.241  19.092  0.00  0.00    +0.000 C 
ATOM      8  N   UNL     1      -3.001  11.087  17.759  0.00  0.00    +0.000 N 
ATOM      9  C   UNL     1      -3.757  11.252  16.524  0.00  0.00    +0.000 C 
ATOM     10  N   UNL     1      -5.014  11.552  16.516  0.00  0.00    +0.000 NA
ATOM     11  N   UNL     1      -3.142  11.119  15.244  0.00  0.00    +0.000 N 
ATOM     12  C   UNL     1      -1.578  10.744  17.784  0.00  0.00    +0.000 C 
ATOM     13  C   UNL     1      -0.842  11.912  18.427  0.00  0.00    +0.000 C 
ATOM     14  C   UNL     1       0.653  11.840  18.748  0.00  0.00    +0.000 C 
ATOM     15  H   UNL     1      -5.622  11.703  17.326  0.00  0.00    +0.000 HD
ATOM     16  H   UNL     1      -2.151  10.916  15.095  0.00  0.00    +0.000 HD
ATOM     17  H   UNL     1      -3.710  11.247  14.396  0.00  0.00    +0.000 HD
ENDROOT
BRANCH   6  18
ATOM     18  C   UNL     1      -5.056  13.388  20.805  0.00  0.00    +0.000 A 
ATOM     19  C   UNL     1      -5.728  12.670  21.819  0.00  0.00    +0.000 A 
ATOM     20  C   UNL     1      -7.118  12.716  21.935  0.00  0.00    +0.000 A 
ATOM     21  C   UNL     1      -7.866  13.496  21.055  0.00  0.00    +0.000 A 
ATOM     22  C   UNL     1      -7.220  14.249  20.073  0.00  0.00    +0.000 A 
ATOM     23  C   UNL     1      -5.824  14.206  19.953  0.00  0.00    +0.000 A 
ENDBRANCH   6  18
BRANCH  14  24
ATOM     24  C   UNL     1       1.137  10.420  19.028  0.00  0.00    +0.000 A 
ATOM     25  C   UNL     1       1.795   9.706  18.009  0.00  0.00    +0.000 A 
ATOM     26  C   UNL     1       2.188   8.378  18.206  0.00  0.00    +0.000 A 
ATOM     27  C   UNL     1       1.935   7.745  19.424  0.00  0.00    +0.000 A 
ATOM     28  C   UNL     1       1.297   8.443  20.453  0.00  0.00    +0.000 A 
ATOM     29  C   UNL     1       0.903   9.774  20.263  0.00  0.00    +0.000 A 
ENDBRANCH  14  24
TORSDOF 2
ENDMDL
MODEL 2
REMARK VINA RESULT:      -7.0      0.234      1.359
REMARK  Name = 
REMARK  3 active torsions:
REMARK  status: ('A' for Active; 'I' for Inactive)
REMARK    1  A    between atoms: C_1  and  N_2
REMARK    2  A    between atoms: C_6  and  C_7
REMARK    3  A    between atoms: C_20  and  C_21
REMARK                            x       y       z     vdW  Elec       q    Type
REMARK                         _______ _______ _______ _____ _____    ______ ____
ROOT
ATOM      1  C   UNL     1       1.853  12.998  20.509  0.00  0.00    +0.000 C 
ATOM      2  N   UNL     1       0.631  12.494  19.934  0.00  0.00    +0.000 N 
ATOM      3  N   UNL     1      -0.625  12.774  20.424  0.00  0.00    +0.000 NA
ATOM      4  C   UNL     1      -1.511  12.260  19.652  0.00  0.00    +0.000 C 
ATOM      5  C   UNL     1      -2.992  12.296  19.777  0.00  0.00    +0.000 C 
ATOM      6  C   UNL     1      -3.645  13.286  20.453  0.00  0.00    +0.000 C 
ATOM      7  C   UNL     1      -3.687  11.177  18.991  0.00  0.00    +0.000 C 
ATOM      8  N   UNL     1      -3.058  10.971  17.682  0.00  0.00    +0.000 N 
ATOM      9  C   UNL     1      -3.767  11.129  16.419  0.00  0.00    +0.000 C 
ATOM     10  N   UNL     1      -5.013  11.469  16.363  0.00  0.00    +0.000 NA
ATOM     11  N   UNL     1      -3.116  10.945  15.164  0.00  0.00    +0.000 N 
ATOM     12  C   UNL     1      -1.648  10.584  17.762  0.00  0.00    +0.000 C 
ATOM     13  C   UNL     1      -0.895  11.743  18.402  0.00  0.00    +0.000 C 
ATOM     14  C   UNL     1       0.585  11.632  18.774  0.00  0.00    +0.000 C 
ATOM     15  H   UNL     1      -5.642  11.659  17.149  0.00  0.00    +0.000 HD
ATOM     16  H   UNL     1      -2.127  10.708  15.052  0.00  0.00    +0.000 HD
ATOM     17  H   UNL     1      -3.652  11.071  14.295  0.00  0.00    +0.000 HD
ENDROOT
BRANCH   6  18
ATOM     18  C   UNL     1      -5.134  13.410  20.604  0.00  0.00    +0.000 A 
ATOM     19  C   UNL     1      -5.916  14.280  19.811  0.00  0.00    +0.000 A 
ATOM     20  C   UNL     1      -7.288  14.413  20.025  0.00  0.00    +0.000 A 
ATOM     21  C   UNL     1      -7.915  13.665  21.020  0.00  0.00    +0.000 A 
ATOM     22  C   UNL     1      -7.171  12.767  21.787  0.00  0.00    +0.000 A 
ATOM     23  C   UNL     1      -5.792  12.630  21.576  0.00  0.00    +0.000 A 
ENDBRANCH   6  18
BRANCH  14  24
ATOM     24  C   UNL     1       1.014  10.204  19.103  0.00  0.00    +0.000 A 
ATOM     25  C   UNL     1       0.692   9.664  20.362  0.00  0.00    +0.000 A 
ATOM     26  C   UNL     1       1.131   8.387  20.725  0.00  0.00    +0.000 A 
ATOM     27  C   UNL     1       1.893   7.628  19.835  0.00  0.00    +0.000 A 
ATOM     28  C   UNL     1       2.209   8.142  18.575  0.00  0.00    +0.000 A 
ATOM     29  C   UNL     1       1.771   9.420  18.204  0.00  0.00    +0.000 A 
ENDBRANCH  14  24
TORSDOF 2
ENDMDL
MODEL 3
REMARK VINA RESULT:      -6.4      9.767     12.590
REMARK  Name = 
REMARK  3 active torsions:
REMARK  status: ('A' for Active; 'I' for Inactive)
REMARK    1  A    between atoms: C_1  and  N_2
REMARK    2  A    between atoms: C_6  and  C_7
REMARK    3  A    between atoms: C_20  and  C_21
REMARK                            x       y       z     vdW  Elec       q    Type
REMARK                         _______ _______ _______ _____ _____    ______ ____
ROOT
ATOM      1  C   UNL     1       6.212  11.092  26.205  0.00  0.00    +0.000 C 
ATOM      2  N   UNL     1       6.537  11.925  25.074  0.00  0.00    +0.000 N 
ATOM      3  N   UNL     1       7.537  11.645  24.171  0.00  0.00    +0.000 NA
ATOM      4  C   UNL     1       7.525  12.519  23.231  0.00  0.00    +0.000 C 
ATOM      5  C   UNL     1       8.415  12.627  22.046  0.00  0.00    +0.000 C 
ATOM      6  C   UNL     1       9.060  11.548  21.514  0.00  0.00    +0.000 C 
ATOM      7  C   UNL     1       8.442  14.037  21.444  0.00  0.00    +0.000 C 
ATOM      8  N   UNL     1       7.103  14.637  21.423  0.00  0.00    +0.000 N 
ATOM      9  C   UNL     1       6.431  15.054  20.200  0.00  0.00    +0.000 C 
ATOM     10  N   UNL     1       6.972  14.922  19.033  0.00  0.00    +0.000 NA
ATOM     11  N   UNL     1       5.118  15.611  20.216  0.00  0.00    +0.000 N 
ATOM     12  C   UNL     1       6.504  14.783  22.752  0.00  0.00    +0.000 C 
ATOM     13  C   UNL     1       6.319  13.383  23.322  0.00  0.00    +0.000 C 
ATOM     14  C   UNL     1       5.848  13.158  24.761  0.00  0.00    +0.000 C 
ATOM     15  H   UNL     1       7.894  14.533  18.816  0.00  0.00    +0.000 HD
ATOM     16  H   UNL     1       4.555  15.744  21.060  0.00  0.00    +0.000 HD
ATOM     17  H   UNL     1       4.677  15.889  19.329  0.00  0.00    +0.000 HD
ENDROOT
BRANCH   6  18
ATOM     18  C   UNL     1       9.953  11.566  20.307  0.00  0.00    +0.000 A 
ATOM     19  C   UNL     1      11.326  11.893  20.373  0.00  0.00    +0.000 A 
ATOM     20  C   UNL     1      12.107  11.959  19.219  0.00  0.00    +0.000 A 
ATOM     21  C   UNL     1      11.542  11.680  17.976  0.00  0.00    +0.000 A 
ATOM     22  C   UNL     1      10.198  11.312  17.891  0.00  0.00    +0.000 A 
ATOM     23  C   UNL     1       9.409  11.245  19.048  0.00  0.00    +0.000 A 
ENDBRANCH   6  18
BRANCH  14  24
ATOM     24  C   UNL     1       6.242  14.291  25.704  0.00  0.00    +0.000 A 
ATOM     25  C   UNL     1       5.258  15.204  26.128  0.00  0.00    +0.000 A 
ATOM     26  C   UNL     1       5.597  16.296  26.934  0.00  0.00    +0.000 A 
ATOM     27  C   UNL     1       6.921  16.490  27.332  0.00  0.00    +0.000 A 
ATOM     28  C   UNL     1       7.907  15.585  26.934  0.00  0.00    +0.000 A 
ATOM     29  C   UNL     1       7.575  14.489  26.129  0.00  0.00    +0.000 A 
ENDBRANCH  14  24
TORSDOF 2
ENDMDL
MODEL 4
REMARK VINA RESULT:      -6.4      0.953      1.338
REMARK  Name = 
REMARK  3 active torsions:
REMARK  status: ('A' for Active; 'I' for Inactive)
REMARK    1  A    between atoms: C_1  and  N_2
REMARK    2  A    between atoms: C_6  and  C_7
REMARK    3  A    between atoms: C_20  and  C_21
REMARK                            x       y       z     vdW  Elec       q    Type
REMARK                         _______ _______ _______ _____ _____    ______ ____
ROOT
ATOM      1  C   UNL     1       2.425  13.430  19.963  0.00  0.00    +0.000 C 
ATOM      2  N   UNL     1       1.088  12.982  19.661  0.00  0.00    +0.000 N 
ATOM      3  N   UNL     1      -0.036  13.396  20.339  0.00  0.00    +0.000 NA
ATOM      4  C   UNL     1      -1.080  12.896  19.786  0.00  0.00    +0.000 C 
ATOM      5  C   UNL     1      -2.507  13.058  20.167  0.00  0.00    +0.000 C 
ATOM      6  C   UNL     1      -2.961  14.144  20.858  0.00  0.00    +0.000 C 
ATOM      7  C   UNL     1      -3.405  11.941  19.620  0.00  0.00    +0.000 C 
ATOM      8  N   UNL     1      -3.041  11.587  18.244  0.00  0.00    +0.000 N 
ATOM      9  C   UNL     1      -3.958  11.705  17.118  0.00  0.00    +0.000 C 
ATOM     10  N   UNL     1      -5.169  12.136  17.253  0.00  0.00    +0.000 NA
ATOM     11  N   UNL     1      -3.561  11.376  15.788  0.00  0.00    +0.000 N 
ATOM     12  C   UNL     1      -1.667  11.098  18.106  0.00  0.00    +0.000 C 
ATOM     13  C   UNL     1      -0.738  12.239  18.497  0.00  0.00    +0.000 C 
ATOM     14  C   UNL     1       0.775  12.040  18.609  0.00  0.00    +0.000 C 
ATOM     15  H   UNL     1      -5.629  12.434  18.118  0.00  0.00    +0.000 HD
ATOM     16  H   UNL     1      -2.627  11.054  15.524  0.00  0.00    +0.000 HD
ATOM     17  H   UNL     1      -4.238  11.477  15.021  0.00  0.00    +0.000 HD
ENDROOT
BRANCH   6  18
ATOM     18  C   UNL     1      -4.386  14.397  21.259  0.00  0.00    +0.000 A 
ATOM     19  C   UNL     1      -5.303  15.091  20.439  0.00  0.00    +0.000 A 
ATOM     20  C   UNL     1      -6.601  15.359  20.875  0.00  0.00    +0.000 A 
ATOM     21  C   UNL     1      -7.020  14.923  22.130  0.00  0.00    +0.000 A 
ATOM     22  C   UNL     1      -6.146  14.197  22.941  0.00  0.00    +0.000 A 
ATOM     23  C   UNL     1      -4.841  13.925  22.507  0.00  0.00    +0.000 A 
ENDBRANCH   6  18
BRANCH  14  24
ATOM     24  C   UNL     1       1.165  10.613  18.982  0.00  0.00    +0.000 A 
ATOM     25  C   UNL     1       1.800   9.802  18.022  0.00  0.00    +0.000 A 
ATOM     26  C   UNL     1       2.106   8.467  18.305  0.00  0.00    +0.000 A 
ATOM     27  C   UNL     1       1.789   7.923  19.551  0.00  0.00    +0.000 A 
ATOM     28  C   UNL     1       1.173   8.718  20.521  0.00  0.00    +0.000 A 
ATOM     29  C   UNL     1       0.865  10.056  20.245  0.00  0.00    +0.000 A 
ENDBRANCH  14  24
TORSDOF 2
ENDMDL
MODEL 5
REMARK VINA RESULT:      -6.1      2.640      7.520
REMARK  Name = 
REMARK  3 active torsions:
REMARK  status: ('A' for Active; 'I' for Inactive)
REMARK    1  A    between atoms: C_1  and  N_2
REMARK    2  A    between atoms: C_6  and  C_7
REMARK    3  A    between atoms: C_20  and  C_21
REMARK                            x       y       z     vdW  Elec       q    Type
REMARK                         _______ _______ _______ _____ _____    ______ ____
ROOT
ATOM      1  C   UNL     1      -4.427  13.540  21.141  0.00  0.00    +0.000 C 
ATOM      2  N   UNL     1      -3.012  13.471  20.874  0.00  0.00    +0.000 N 
ATOM      3  N   UNL     1      -2.322  12.298  20.667  0.00  0.00    +0.000 NA
ATOM      4  C   UNL     1      -1.103  12.563  20.367  0.00  0.00    +0.000 C 
ATOM      5  C   UNL     1       0.009  11.626  20.064  0.00  0.00    +0.000 C 
ATOM      6  C   UNL     1      -0.206  10.367  19.581  0.00  0.00    +0.000 C 
ATOM      7  C   UNL     1       1.394  12.257  20.256  0.00  0.00    +0.000 C 
ATOM      8  N   UNL     1       1.429  13.635  19.754  0.00  0.00    +0.000 N 
ATOM      9  C   UNL     1       2.319  14.077  18.689  0.00  0.00    +0.000 C 
ATOM     10  N   UNL     1       3.148  13.277  18.103  0.00  0.00    +0.000 NA
ATOM     11  N   UNL     1       2.308  15.420  18.209  0.00  0.00    +0.000 N 
ATOM     12  C   UNL     1       0.487  14.530  20.430  0.00  0.00    +0.000 C 
ATOM     13  C   UNL     1      -0.916  14.020  20.132  0.00  0.00    +0.000 C 
ATOM     14  C   UNL     1      -2.151  14.631  20.797  0.00  0.00    +0.000 C 
ATOM     15  H   UNL     1       3.291  12.281  18.294  0.00  0.00    +0.000 HD
ATOM     16  H   UNL     1       1.684  16.154  18.555  0.00  0.00    +0.000 HD
ATOM     17  H   UNL     1       2.949  15.690  17.453  0.00  0.00    +0.000 HD
ENDROOT
BRANCH   6  18
ATOM     18  C   UNL     1       0.859   9.369  19.226  0.00  0.00    +0.000 A 
ATOM     19  C   UNL     1       1.490   9.338  17.963  0.00  0.00    +0.000 A 
ATOM     20  C   UNL     1       2.430   8.355  17.652  0.00  0.00    +0.000 A 
ATOM     21  C   UNL     1       2.778   7.395  18.600  0.00  0.00    +0.000 A 
ATOM     22  C   UNL     1       2.199   7.432  19.870  0.00  0.00    +0.000 A 
ATOM     23  C   UNL     1       1.254   8.418  20.187  0.00  0.00    +0.000 A 
ENDBRANCH   6  18
BRANCH  14  24
ATOM     24  C   UNL     1      -1.859  15.221  22.174  0.00  0.00    +0.000 A 
ATOM     25  C   UNL     1      -1.754  16.618  22.314  0.00  0.00    +0.000 A 
ATOM     26  C   UNL     1      -1.417  17.189  23.545  0.00  0.00    +0.000 A 
ATOM     27  C   UNL     1      -1.184  16.376  24.656  0.00  0.00    +0.000 A 
ATOM     28  C   UNL     1      -1.298  14.989  24.539  0.00  0.00    +0.000 A 
ATOM     29  C   UNL     1      -1.638  14.410  23.310  0.00  0.00    +0.000 A 
ENDBRANCH  14  24
TORSDOF 2
ENDMDL
MODEL 6
REMARK VINA RESULT:      -6.1      1.190      1.536
REMARK  Name = 
REMARK  3 active torsions:
REMARK  status: ('A' for Active; 'I' for Inactive)
REMARK    1  A    between atoms: C_1  and  N_2
REMARK    2  A    between atoms: C_6  and  C_7
REMARK    3  A    between atoms: C_20  and  C_21
REMARK                            x       y       z     vdW  Elec       q    Type
REMARK                         _______ _______ _______ _____ _____    ______ ____
ROOT
ATOM      1  C   UNL     1       2.466  13.391  19.691  0.00  0.00    +0.000 C 
ATOM      2  N   UNL     1       1.095  12.983  19.505  0.00  0.00    +0.000 N 
ATOM      3  N   UNL     1       0.039  13.473  20.238  0.00  0.00    +0.000 NA
ATOM      4  C   UNL     1      -1.060  12.991  19.783  0.00  0.00    +0.000 C 
ATOM      5  C   UNL     1      -2.449  13.228  20.254  0.00  0.00    +0.000 C 
ATOM      6  C   UNL     1      -2.812  14.363  20.920  0.00  0.00    +0.000 C 
ATOM      7  C   UNL     1      -3.424  12.124  19.827  0.00  0.00    +0.000 C 
ATOM      8  N   UNL     1      -3.172  11.692  18.447  0.00  0.00    +0.000 N 
ATOM      9  C   UNL     1      -4.162  11.794  17.383  0.00  0.00    +0.000 C 
ATOM     10  N   UNL     1      -5.343  12.280  17.581  0.00  0.00    +0.000 NA
ATOM     11  N   UNL     1      -3.873  11.387  16.047  0.00  0.00    +0.000 N 
ATOM     12  C   UNL     1      -1.831  11.141  18.239  0.00  0.00    +0.000 C 
ATOM     13  C   UNL     1      -0.835  12.261  18.508  0.00  0.00    +0.000 C 
ATOM     14  C   UNL     1       0.674  12.007  18.525  0.00  0.00    +0.000 C 
ATOM     15  H   UNL     1      -5.730  12.636  18.460  0.00  0.00    +0.000 HD
ATOM     16  H   UNL     1      -2.972  11.016  15.736  0.00  0.00    +0.000 HD
ATOM     17  H   UNL     1      -4.599  11.480  15.324  0.00  0.00    +0.000 HD
ENDROOT
BRANCH   6  18
ATOM     18  C   UNL     1      -4.195  14.692  21.406  0.00  0.00    +0.000 A 
ATOM     19  C   UNL     1      -4.666  14.323  22.686  0.00  0.00    +0.000 A 
ATOM     20  C   UNL     1      -5.978  14.592  23.076  0.00  0.00    +0.000 A 
ATOM     21  C   UNL     1      -6.843  15.255  22.207  0.00  0.00    +0.000 A 
ATOM     22  C   UNL     1      -6.387  15.668  20.954  0.00  0.00    +0.000 A 
ATOM     23  C   UNL     1      -5.069  15.399  20.558  0.00  0.00    +0.000 A 
ENDBRANCH   6  18
BRANCH  14  24
ATOM     24  C   UNL     1       1.037  10.584  18.940  0.00  0.00    +0.000 A 
ATOM     25  C   UNL     1       0.759  10.160  20.253  0.00  0.00    +0.000 A 
ATOM     26  C   UNL     1       1.142   8.888  20.690  0.00  0.00    +0.000 A 
ATOM     27  C   UNL     1       1.805   8.018  19.821  0.00  0.00    +0.000 A 
ATOM     28  C   UNL     1       2.075   8.416  18.510  0.00  0.00    +0.000 A 
ATOM     29  C   UNL     1       1.692   9.688  18.065  0.00  0.00    +0.000 A 
ENDBRANCH  14  24
TORSDOF 2
ENDMDL
MODEL 7
REMARK VINA RESULT:      -6.1      9.789     12.558
REMARK  Name = 
REMARK  3 active torsions:
REMARK  status: ('A' for Active; 'I' for Inactive)
REMARK    1  A    between atoms: C_1  and  N_2
REMARK    2  A    between atoms: C_6  and  C_7
REMARK    3  A    between atoms: C_20  and  C_21
REMARK                            x       y       z     vdW  Elec       q    Type
REMARK                         _______ _______ _______ _____ _____    ______ ____
ROOT
ATOM      1  C   UNL     1       5.850  11.238  25.942  0.00  0.00    +0.000 C 
ATOM      2  N   UNL     1       6.263  12.083  24.849  0.00  0.00    +0.000 N 
ATOM      3  N   UNL     1       7.298  11.784  23.992  0.00  0.00    +0.000 NA
ATOM      4  C   UNL     1       7.367  12.678  23.074  0.00  0.00    +0.000 C 
ATOM      5  C   UNL     1       8.320  12.778  21.938  0.00  0.00    +0.000 C 
ATOM      6  C   UNL     1       8.952  11.687  21.415  0.00  0.00    +0.000 C 
ATOM      7  C   UNL     1       8.430  14.199  21.372  0.00  0.00    +0.000 C 
ATOM      8  N   UNL     1       7.117  14.850  21.298  0.00  0.00    +0.000 N 
ATOM      9  C   UNL     1       6.526  15.319  20.052  0.00  0.00    +0.000 C 
ATOM     10  N   UNL     1       7.121  15.191  18.912  0.00  0.00    +0.000 NA
ATOM     11  N   UNL     1       5.235  15.925  20.014  0.00  0.00    +0.000 N 
ATOM     12  C   UNL     1       6.457  14.989  22.597  0.00  0.00    +0.000 C 
ATOM     13  C   UNL     1       6.191  13.586  23.124  0.00  0.00    +0.000 C 
ATOM     14  C   UNL     1       5.638  13.347  24.530  0.00  0.00    +0.000 C 
ATOM     15  H   UNL     1       8.039  14.773  18.733  0.00  0.00    +0.000 HD
ATOM     16  H   UNL     1       4.635  16.061  20.831  0.00  0.00    +0.000 HD
ATOM     17  H   UNL     1       4.852  16.238  19.113  0.00  0.00    +0.000 HD
ENDROOT
BRANCH   6  18
ATOM     18  C   UNL     1       9.906  11.698  20.255  0.00  0.00    +0.000 A 
ATOM     19  C   UNL     1       9.505  11.423  18.929  0.00  0.00    +0.000 A 
ATOM     20  C   UNL     1      10.435  11.382  17.889  0.00  0.00    +0.000 A 
ATOM     21  C   UNL     1      11.781  11.634  18.145  0.00  0.00    +0.000 A 
ATOM     22  C   UNL     1      12.194  11.950  19.440  0.00  0.00    +0.000 A 
ATOM     23  C   UNL     1      11.264  11.993  20.489  0.00  0.00    +0.000 A 
ENDBRANCH   6  18
BRANCH  14  24
ATOM     24  C   UNL     1       6.024  14.443  25.519  0.00  0.00    +0.000 A 
ATOM     25  C   UNL     1       7.330  14.467  26.043  0.00  0.00    +0.000 A 
ATOM     26  C   UNL     1       7.697  15.413  27.006  0.00  0.00    +0.000 A 
ATOM     27  C   UNL     1       6.767  16.352  27.456  0.00  0.00    +0.000 A 
ATOM     28  C   UNL     1       5.471  16.354  26.936  0.00  0.00    +0.000 A 
ATOM     29  C   UNL     1       5.097  15.411  25.970  0.00  0.00    +0.000 A 
ENDBRANCH  14  24
TORSDOF 2
ENDMDL
MODEL 8
REMARK VINA RESULT:      -6.0      3.224      6.699
REMARK  Name = 
REMARK  3 active torsions:
REMARK  status: ('A' for Active; 'I' for Inactive)
REMARK    1  A    between atoms: C_1  and  N_2
REMARK    2  A    between atoms: C_6  and  C_7
REMARK    3  A    between atoms: C_20  and  C_21
REMARK                            x       y       z     vdW  Elec       q    Type
REMARK                         _______ _______ _______ _____ _____    ______ ____
ROOT
ATOM      1  C   UNL     1       0.607  15.318  22.675  0.00  0.00    +0.000 C 
ATOM      2  N   UNL     1       0.359  14.429  21.567  0.00  0.00    +0.000 N 
ATOM      3  N   UNL     1       0.905  13.171  21.450  0.00  0.00    +0.000 NA
ATOM      4  C   UNL     1       0.430  12.592  20.408  0.00  0.00    +0.000 C 
ATOM      5  C   UNL     1       0.727  11.236  19.877  0.00  0.00    +0.000 C 
ATOM      6  C   UNL     1       1.170  10.219  20.673  0.00  0.00    +0.000 C 
ATOM      7  C   UNL     1       0.388  11.088  18.389  0.00  0.00    +0.000 C 
ATOM      8  N   UNL     1      -0.877  11.753  18.059  0.00  0.00    +0.000 N 
ATOM      9  C   UNL     1      -2.032  11.052  17.513  0.00  0.00    +0.000 C 
ATOM     10  N   UNL     1      -2.024   9.781  17.282  0.00  0.00    +0.000 NA
ATOM     11  N   UNL     1      -3.255  11.728  17.227  0.00  0.00    +0.000 N 
ATOM     12  C   UNL     1      -0.870  13.194  18.323  0.00  0.00    +0.000 C 
ATOM     13  C   UNL     1      -0.688  13.378  19.824  0.00  0.00    +0.000 C 
ATOM     14  C   UNL     1      -0.490  14.762  20.445  0.00  0.00    +0.000 C 
ATOM     15  H   UNL     1      -1.252   9.126  17.435  0.00  0.00    +0.000 HD
ATOM     16  H   UNL     1      -3.419  12.725  17.390  0.00  0.00    +0.000 HD
ATOM     17  H   UNL     1      -4.048  11.195  16.847  0.00  0.00    +0.000 HD
ENDROOT
BRANCH   6  18
ATOM     18  C   UNL     1       1.467   8.818  20.224  0.00  0.00    +0.000 A 
ATOM     19  C   UNL     1       1.257   7.688  21.045  0.00  0.00    +0.000 A 
ATOM     20  C   UNL     1       1.604   6.408  20.612  0.00  0.00    +0.000 A 
ATOM     21  C   UNL     1       2.149   6.223  19.343  0.00  0.00    +0.000 A 
ATOM     22  C   UNL     1       2.325   7.320  18.497  0.00  0.00    +0.000 A 
ATOM     23  C   UNL     1       1.978   8.608  18.927  0.00  0.00    +0.000 A 
ENDBRANCH   6  18
BRANCH  14  24
ATOM     24  C   UNL     1       0.174  15.755  19.496  0.00  0.00    +0.000 A 
ATOM     25  C   UNL     1      -0.618  16.723  18.850  0.00  0.00    +0.000 A 
ATOM     26  C   UNL     1      -0.054  17.601  17.919  0.00  0.00    +0.000 A 
ATOM     27  C   UNL     1       1.308  17.531  17.622  0.00  0.00    +0.000 A 
ATOM     28  C   UNL     1       2.112  16.586  18.264  0.00  0.00    +0.000 A 
ATOM     29  C   UNL     1       1.555  15.705  19.199  0.00  0.00    +0.000 A 
ENDBRANCH  14  24
TORSDOF 2
ENDMDL
MODEL 9
REMARK VINA RESULT:      -6.0      2.762      6.883
REMARK  Name = 
REMARK  3 active torsions:
REMARK  status: ('A' for Active; 'I' for Inactive)
REMARK    1  A    between atoms: C_1  and  N_2
REMARK    2  A    between atoms: C_6  and  C_7
REMARK    3  A    between atoms: C_20  and  C_21
REMARK                            x       y       z     vdW  Elec       q    Type
REMARK                         _______ _______ _______ _____ _____    ______ ____
ROOT
ATOM      1  C   UNL     1      -1.169  14.035  23.751  0.00  0.00    +0.000 C 
ATOM      2  N   UNL     1      -1.033  13.462  22.434  0.00  0.00    +0.000 N 
ATOM      3  N   UNL     1      -0.240  12.376  22.143  0.00  0.00    +0.000 NA
ATOM      4  C   UNL     1      -0.395  12.048  20.912  0.00  0.00    +0.000 C 
ATOM      5  C   UNL     1       0.253  10.949  20.150  0.00  0.00    +0.000 C 
ATOM      6  C   UNL     1       0.735   9.824  20.756  0.00  0.00    +0.000 C 
ATOM      7  C   UNL     1       0.224  11.173  18.633  0.00  0.00    +0.000 C 
ATOM      8  N   UNL     1      -1.066  11.718  18.197  0.00  0.00    +0.000 N 
ATOM      9  C   UNL     1      -1.943  11.040  17.251  0.00  0.00    +0.000 C 
ATOM     10  N   UNL     1      -1.644   9.897  16.727  0.00  0.00    +0.000 NA
ATOM     11  N   UNL     1      -3.203  11.588  16.868  0.00  0.00    +0.000 N 
ATOM     12  C   UNL     1      -1.390  13.014  18.797  0.00  0.00    +0.000 C 
ATOM     13  C   UNL     1      -1.522  12.798  20.298  0.00  0.00    +0.000 C 
ATOM     14  C   UNL     1      -1.715  13.970  21.264  0.00  0.00    +0.000 C 
ATOM     15  H   UNL     1      -0.799   9.341  16.888  0.00  0.00    +0.000 HD
ATOM     16  H   UNL     1      -3.585  12.467  17.226  0.00  0.00    +0.000 HD
ATOM     17  H   UNL     1      -3.793  11.075  16.201  0.00  0.00    +0.000 HD
ENDROOT
BRANCH   6  18
ATOM     18  C   UNL     1       1.378   8.659  20.060  0.00  0.00    +0.000 A 
ATOM     19  C   UNL     1       1.885   8.737  18.743  0.00  0.00    +0.000 A 
ATOM     20  C   UNL     1       2.418   7.614  18.110  0.00  0.00    +0.000 A 
ATOM     21  C   UNL     1       2.479   6.395  18.782  0.00  0.00    +0.000 A 
ATOM     22  C   UNL     1       2.024   6.305  20.099  0.00  0.00    +0.000 A 
ATOM     23  C   UNL     1       1.487   7.430  20.740  0.00  0.00    +0.000 A 
ENDBRANCH   6  18
BRANCH  14  24
ATOM     24  C   UNL     1      -1.098  15.270  20.758  0.00  0.00    +0.000 A 
ATOM     25  C   UNL     1      -1.943  16.304  20.313  0.00  0.00    +0.000 A 
ATOM     26  C   UNL     1      -1.411  17.481  19.777  0.00  0.00    +0.000 A 
ATOM     27  C   UNL     1      -0.028  17.646  19.681  0.00  0.00    +0.000 A 
ATOM     28  C   UNL     1       0.826  16.637  20.131  0.00  0.00    +0.000 A 
ATOM     29  C   UNL     1       0.301  15.457  20.672  0.00  0.00    +0.000 A 
ENDBRANCH  14  24
TORSDOF 2
ENDMDL
