MODEL 1
REMARK VINA RESULT:      -7.2      0.000      0.000
REMARK  Name = 
REMARK  6 active torsions:
REMARK  status: ('A' for Active; 'I' for Inactive)
REMARK    1  A    between atoms: C_1  and  C_2
REMARK    2  A    between atoms: C_7  and  C_9
REMARK    3  A    between atoms: C_9  and  C_10
REMARK    4  A    between atoms: C_9  and  C_17
REMARK    5  A    between atoms: C_17  and  C_18
REMARK    6  A    between atoms: C_17  and  C_19
REMARK                            x       y       z     vdW  Elec       q    Type
REMARK                         _______ _______ _______ _____ _____    ______ ____
ROOT
ATOM      1  C   UNL     1       3.094   5.341  20.163  0.00  0.00    +0.000 C 
ENDROOT
BRANCH   1   8
ATOM      2  C   UNL     1      -0.961  11.467  22.122  0.00  0.00    +0.000 C 
ATOM      3  C   UNL     1      -0.068  10.464  21.487  0.00  0.00    +0.000 A 
ATOM      4  C   UNL     1       0.453  10.450  20.209  0.00  0.00    +0.000 A 
ATOM      5  N   UNL     1       1.206   9.341  19.885  0.00  0.00    +0.000 NA
ATOM      6  C   UNL     1       1.253   8.529  20.907  0.00  0.00    +0.000 A 
ATOM      7  N   UNL     1       1.859   7.304  21.005  0.00  0.00    +0.000 N 
ATOM      8  C   UNL     1       2.291   6.626  19.882  0.00  0.00    +0.000 C 
ATOM      9  O   UNL     1       2.086   6.961  18.717  0.00  0.00    +0.000 OA
ATOM     10  S   UNL     1       0.471   9.066  22.330  0.00  0.00    +0.000 S 
ATOM     11  H   UNL     1       1.865   6.865  21.912  0.00  0.00    +0.000 HD
ENDBRANCH   1   8
BRANCH   1  12
ATOM     12  C   UNL     1       3.893   4.922  18.931  0.00  0.00    +0.000 A 
ATOM     13  C   UNL     1       3.318   4.329  17.800  0.00  0.00    +0.000 A 
ATOM     14  C   UNL     1       4.109   3.979  16.697  0.00  0.00    +0.000 A 
ATOM     15  C   UNL     1       5.480   4.223  16.710  0.00  0.00    +0.000 A 
ATOM     16 CL   UNL     1       6.442   3.785  15.352  0.00  0.00    +0.000 Cl
ATOM     17  C   UNL     1       6.073   4.821  17.815  0.00  0.00    +0.000 A 
ATOM     18  C   UNL     1       5.283   5.172  18.916  0.00  0.00    +0.000 A 
ENDBRANCH   1  12
BRANCH   1  19
ATOM     19  C   UNL     1       2.223   4.253  20.863  0.00  0.00    +0.000 C 
ATOM     20  C   UNL     1       0.876   4.049  20.155  0.00  0.00    +0.000 C 
ATOM     21  C   UNL     1       2.954   2.899  20.881  0.00  0.00    +0.000 C 
ENDBRANCH   1  19
TORSDOF 3
ENDMDL
MODEL 2
REMARK VINA RESULT:      -7.1      0.947      1.204
REMARK  Name = 
REMARK  6 active torsions:
REMARK  status: ('A' for Active; 'I' for Inactive)
REMARK    1  A    between atoms: C_1  and  C_2
REMARK    2  A    between atoms: C_7  and  C_9
REMARK    3  A    between atoms: C_9  and  C_10
REMARK    4  A    between atoms: C_9  and  C_17
REMARK    5  A    between atoms: C_17  and  C_18
REMARK    6  A    between atoms: C_17  and  C_19
REMARK                            x       y       z     vdW  Elec       q    Type
REMARK                         _______ _______ _______ _____ _____    ______ ____
ROOT
ATOM      1  C   UNL     1       3.427   5.313  19.305  0.00  0.00    +0.000 C 
ENDROOT
BRANCH   1   8
ATOM      2  C   UNL     1      -0.561  11.205  21.987  0.00  0.00    +0.000 C 
ATOM      3  C   UNL     1       0.263  10.252  21.198  0.00  0.00    +0.000 A 
ATOM      4  C   UNL     1       0.554  10.264  19.849  0.00  0.00    +0.000 A 
ATOM      5  N   UNL     1       1.300   9.200  19.391  0.00  0.00    +0.000 NA
ATOM      6  C   UNL     1       1.569   8.394  20.383  0.00  0.00    +0.000 A 
ATOM      7  N   UNL     1       2.251   7.205  20.364  0.00  0.00    +0.000 N 
ATOM      8  C   UNL     1       2.518   6.550  19.178  0.00  0.00    +0.000 C 
ATOM      9  O   UNL     1       2.094   6.870  18.069  0.00  0.00    +0.000 OA
ATOM     10  S   UNL     1       1.018   8.888  21.924  0.00  0.00    +0.000 S 
ATOM     11  H   UNL     1       2.439   6.769  21.253  0.00  0.00    +0.000 HD
ENDBRANCH   1   8
BRANCH   1  12
ATOM     12  C   UNL     1       4.317   5.167  18.072  0.00  0.00    +0.000 A 
ATOM     13  C   UNL     1       4.189   4.126  17.144  0.00  0.00    +0.000 A 
ATOM     14  C   UNL     1       5.033   4.057  16.027  0.00  0.00    +0.000 A 
ATOM     15  C   UNL     1       6.009   5.031  15.823  0.00  0.00    +0.000 A 
ATOM     16 CL   UNL     1       7.042   4.935  14.450  0.00  0.00    +0.000 Cl
ATOM     17  C   UNL     1       6.148   6.080  16.723  0.00  0.00    +0.000 A 
ATOM     18  C   UNL     1       5.304   6.150  17.837  0.00  0.00    +0.000 A 
ENDBRANCH   1  12
BRANCH   1  19
ATOM     19  C   UNL     1       2.636   4.055  19.777  0.00  0.00    +0.000 C 
ATOM     20  C   UNL     1       2.353   4.084  21.286  0.00  0.00    +0.000 C 
ATOM     21  C   UNL     1       1.284   3.956  19.046  0.00  0.00    +0.000 C 
ENDBRANCH   1  19
TORSDOF 3
ENDMDL
MODEL 3
REMARK VINA RESULT:      -7.1      0.229      1.102
REMARK  Name = 
REMARK  6 active torsions:
REMARK  status: ('A' for Active; 'I' for Inactive)
REMARK    1  A    between atoms: C_1  and  C_2
REMARK    2  A    between atoms: C_7  and  C_9
REMARK    3  A    between atoms: C_9  and  C_10
REMARK    4  A    between atoms: C_9  and  C_17
REMARK    5  A    between atoms: C_17  and  C_18
REMARK    6  A    between atoms: C_17  and  C_19
REMARK                            x       y       z     vdW  Elec       q    Type
REMARK                         _______ _______ _______ _____ _____    ______ ____
ROOT
ATOM      1  C   UNL     1       2.934   5.369  20.232  0.00  0.00    +0.000 C 
ENDROOT
BRANCH   1   8
ATOM      2  C   UNL     1      -1.165  11.481  22.145  0.00  0.00    +0.000 C 
ATOM      3  C   UNL     1      -0.228  10.494  21.548  0.00  0.00    +0.000 A 
ATOM      4  C   UNL     1       0.447  10.553  20.346  0.00  0.00    +0.000 A 
ATOM      5  N   UNL     1       1.205   9.445  20.032  0.00  0.00    +0.000 NA
ATOM      6  C   UNL     1       1.102   8.560  20.988  0.00  0.00    +0.000 A 
ATOM      7  N   UNL     1       1.659   7.310  21.065  0.00  0.00    +0.000 N 
ATOM      8  C   UNL     1       2.208   6.700  19.954  0.00  0.00    +0.000 C 
ATOM      9  O   UNL     1       2.157   7.124  18.802  0.00  0.00    +0.000 OA
ATOM     10  S   UNL     1       0.166   9.020  22.342  0.00  0.00    +0.000 S 
ATOM     11  H   UNL     1       1.540   6.807  21.930  0.00  0.00    +0.000 HD
ENDBRANCH   1   8
BRANCH   1  12
ATOM     12  C   UNL     1       3.785   4.957  19.033  0.00  0.00    +0.000 A 
ATOM     13  C   UNL     1       5.175   5.123  18.977  0.00  0.00    +0.000 A 
ATOM     14  C   UNL     1       5.898   4.713  17.848  0.00  0.00    +0.000 A 
ATOM     15  C   UNL     1       5.242   4.128  16.767  0.00  0.00    +0.000 A 
ATOM     16 CL   UNL     1       6.138   3.631  15.386  0.00  0.00    +0.000 Cl
ATOM     17  C   UNL     1       3.865   3.942  16.804  0.00  0.00    +0.000 A 
ATOM     18  C   UNL     1       3.143   4.349  17.931  0.00  0.00    +0.000 A 
ENDBRANCH   1  12
BRANCH   1  19
ATOM     19  C   UNL     1       1.977   4.299  20.839  0.00  0.00    +0.000 C 
ATOM     20  C   UNL     1       0.817   3.959  19.892  0.00  0.00    +0.000 C 
ATOM     21  C   UNL     1       2.737   2.995  21.140  0.00  0.00    +0.000 C 
ENDBRANCH   1  19
TORSDOF 3
ENDMDL
MODEL 4
REMARK VINA RESULT:      -7.0      0.978      1.551
REMARK  Name = 
REMARK  6 active torsions:
REMARK  status: ('A' for Active; 'I' for Inactive)
REMARK    1  A    between atoms: C_1  and  C_2
REMARK    2  A    between atoms: C_7  and  C_9
REMARK    3  A    between atoms: C_9  and  C_10
REMARK    4  A    between atoms: C_9  and  C_17
REMARK    5  A    between atoms: C_17  and  C_18
REMARK    6  A    between atoms: C_17  and  C_19
REMARK                            x       y       z     vdW  Elec       q    Type
REMARK                         _______ _______ _______ _____ _____    ______ ____
ROOT
ATOM      1  C   UNL     1       3.444   5.439  19.276  0.00  0.00    +0.000 C 
ENDROOT
BRANCH   1   8
ATOM      2  C   UNL     1      -0.671  11.182  22.087  0.00  0.00    +0.000 C 
ATOM      3  C   UNL     1       0.172  10.265  21.278  0.00  0.00    +0.000 A 
ATOM      4  C   UNL     1       0.461  10.313  19.929  0.00  0.00    +0.000 A 
ATOM      5  N   UNL     1       1.231   9.276  19.447  0.00  0.00    +0.000 NA
ATOM      6  C   UNL     1       1.518   8.455  20.421  0.00  0.00    +0.000 A 
ATOM      7  N   UNL     1       2.226   7.282  20.377  0.00  0.00    +0.000 N 
ATOM      8  C   UNL     1       2.507   6.659  19.176  0.00  0.00    +0.000 C 
ATOM      9  O   UNL     1       2.075   6.993  18.075  0.00  0.00    +0.000 OA
ATOM     10  S   UNL     1       0.958   8.903  21.973  0.00  0.00    +0.000 S 
ATOM     11  H   UNL     1       2.425   6.831  21.256  0.00  0.00    +0.000 HD
ENDBRANCH   1   8
BRANCH   1  12
ATOM     12  C   UNL     1       4.348   5.350  18.048  0.00  0.00    +0.000 A 
ATOM     13  C   UNL     1       5.318   6.309  17.732  0.00  0.00    +0.000 A 
ATOM     14  C   UNL     1       6.123   6.161  16.593  0.00  0.00    +0.000 A 
ATOM     15  C   UNL     1       5.971   5.051  15.765  0.00  0.00    +0.000 A 
ATOM     16 CL   UNL     1       6.962   4.880  14.369  0.00  0.00    +0.000 Cl
ATOM     17  C   UNL     1       5.023   4.081  16.064  0.00  0.00    +0.000 A 
ATOM     18  C   UNL     1       4.221   4.227  17.201  0.00  0.00    +0.000 A 
ENDBRANCH   1  12
BRANCH   1  19
ATOM     19  C   UNL     1       2.677   4.151  19.704  0.00  0.00    +0.000 C 
ATOM     20  C   UNL     1       2.374   4.132  21.209  0.00  0.00    +0.000 C 
ATOM     21  C   UNL     1       1.338   4.038  18.953  0.00  0.00    +0.000 C 
ENDBRANCH   1  19
TORSDOF 3
ENDMDL
MODEL 5
REMARK VINA RESULT:      -7.0      3.500      5.159
REMARK  Name = 
REMARK  6 active torsions:
REMARK  status: ('A' for Active; 'I' for Inactive)
REMARK    1  A    between atoms: C_1  and  C_2
REMARK    2  A    between atoms: C_7  and  C_9
REMARK    3  A    between atoms: C_9  and  C_10
REMARK    4  A    between atoms: C_9  and  C_17
REMARK    5  A    between atoms: C_17  and  C_18
REMARK    6  A    between atoms: C_17  and  C_19
REMARK                            x       y       z     vdW  Elec       q    Type
REMARK                         _______ _______ _______ _____ _____    ______ ____
ROOT
ATOM      1  C   UNL     1       5.876   6.171  17.258  0.00  0.00    +0.000 C 
ENDROOT
BRANCH   1   8
ATOM      2  C   UNL     1       1.117   2.450  21.875  0.00  0.00    +0.000 C 
ATOM      3  C   UNL     1       1.866   3.443  21.062  0.00  0.00    +0.000 A 
ATOM      4  C   UNL     1       1.491   4.715  20.681  0.00  0.00    +0.000 A 
ATOM      5  N   UNL     1       2.381   5.380  19.865  0.00  0.00    +0.000 NA
ATOM      6  C   UNL     1       3.416   4.618  19.634  0.00  0.00    +0.000 A 
ATOM      7  N   UNL     1       4.512   4.871  18.851  0.00  0.00    +0.000 N 
ATOM      8  C   UNL     1       4.522   5.917  17.948  0.00  0.00    +0.000 C 
ATOM      9  O   UNL     1       3.562   6.630  17.664  0.00  0.00    +0.000 OA
ATOM     10  S   UNL     1       3.429   3.104  20.428  0.00  0.00    +0.000 S 
ATOM     11  H   UNL     1       5.257   4.193  18.870  0.00  0.00    +0.000 HD
ENDBRANCH   1   8
BRANCH   1  12
ATOM     12  C   UNL     1       5.987   5.358  15.969  0.00  0.00    +0.000 A 
ATOM     13  C   UNL     1       5.096   4.335  15.621  0.00  0.00    +0.000 A 
ATOM     14  C   UNL     1       5.249   3.635  14.416  0.00  0.00    +0.000 A 
ATOM     15  C   UNL     1       6.289   3.954  13.545  0.00  0.00    +0.000 A 
ATOM     16 CL   UNL     1       6.469   3.086  12.071  0.00  0.00    +0.000 Cl
ATOM     17  C   UNL     1       7.178   4.972  13.863  0.00  0.00    +0.000 A 
ATOM     18  C   UNL     1       7.025   5.673  15.064  0.00  0.00    +0.000 A 
ENDBRANCH   1  12
BRANCH   1  19
ATOM     19  C   UNL     1       7.065   6.096  18.263  0.00  0.00    +0.000 C 
ATOM     20  C   UNL     1       7.906   4.826  18.068  0.00  0.00    +0.000 C 
ATOM     21  C   UNL     1       7.998   7.308  18.096  0.00  0.00    +0.000 C 
ENDBRANCH   1  19
TORSDOF 3
ENDMDL
MODEL 6
REMARK VINA RESULT:      -7.0      4.330      5.876
REMARK  Name = 
REMARK  6 active torsions:
REMARK  status: ('A' for Active; 'I' for Inactive)
REMARK    1  A    between atoms: C_1  and  C_2
REMARK    2  A    between atoms: C_7  and  C_9
REMARK    3  A    between atoms: C_9  and  C_10
REMARK    4  A    between atoms: C_9  and  C_17
REMARK    5  A    between atoms: C_17  and  C_18
REMARK    6  A    between atoms: C_17  and  C_19
REMARK                            x       y       z     vdW  Elec       q    Type
REMARK                         _______ _______ _______ _____ _____    ______ ____
ROOT
ATOM      1  C   UNL     1       6.401   5.928  17.122  0.00  0.00    +0.000 C 
ENDROOT
BRANCH   1   8
ATOM      2  C   UNL     1       1.323   2.836  21.862  0.00  0.00    +0.000 C 
ATOM      3  C   UNL     1       2.429   3.127  20.914  0.00  0.00    +0.000 A 
ATOM      4  C   UNL     1       3.537   2.363  20.609  0.00  0.00    +0.000 A 
ATOM      5  N   UNL     1       4.431   2.933  19.728  0.00  0.00    +0.000 NA
ATOM      6  C   UNL     1       4.001   4.114  19.372  0.00  0.00    +0.000 A 
ATOM      7  N   UNL     1       4.595   5.031  18.544  0.00  0.00    +0.000 N 
ATOM      8  C   UNL     1       5.922   4.915  18.180  0.00  0.00    +0.000 C 
ATOM      9  O   UNL     1       6.721   4.094  18.626  0.00  0.00    +0.000 OA
ATOM     10  S   UNL     1       2.482   4.584  20.001  0.00  0.00    +0.000 S 
ATOM     11  H   UNL     1       4.063   5.855  18.314  0.00  0.00    +0.000 HD
ENDBRANCH   1   8
BRANCH   1  12
ATOM     12  C   UNL     1       6.447   5.284  15.738  0.00  0.00    +0.000 A 
ATOM     13  C   UNL     1       7.514   5.445  14.846  0.00  0.00    +0.000 A 
ATOM     14  C   UNL     1       7.498   4.816  13.593  0.00  0.00    +0.000 A 
ATOM     15  C   UNL     1       6.419   4.016  13.222  0.00  0.00    +0.000 A 
ATOM     16 CL   UNL     1       6.408   3.251  11.681  0.00  0.00    +0.000 Cl
ATOM     17  C   UNL     1       5.354   3.831  14.095  0.00  0.00    +0.000 A 
ATOM     18  C   UNL     1       5.371   4.457  15.347  0.00  0.00    +0.000 A 
ENDBRANCH   1  12
BRANCH   1  19
ATOM     19  C   UNL     1       7.663   6.712  17.597  0.00  0.00    +0.000 C 
ATOM     20  C   UNL     1       7.467   8.232  17.500  0.00  0.00    +0.000 C 
ATOM     21  C   UNL     1       7.997   6.373  19.061  0.00  0.00    +0.000 C 
ENDBRANCH   1  19
TORSDOF 3
ENDMDL
MODEL 7
REMARK VINA RESULT:      -6.9      3.489      5.242
REMARK  Name = 
REMARK  6 active torsions:
REMARK  status: ('A' for Active; 'I' for Inactive)
REMARK    1  A    between atoms: C_1  and  C_2
REMARK    2  A    between atoms: C_7  and  C_9
REMARK    3  A    between atoms: C_9  and  C_10
REMARK    4  A    between atoms: C_9  and  C_17
REMARK    5  A    between atoms: C_17  and  C_18
REMARK    6  A    between atoms: C_17  and  C_19
REMARK                            x       y       z     vdW  Elec       q    Type
REMARK                         _______ _______ _______ _____ _____    ______ ____
ROOT
ATOM      1  C   UNL     1       5.867   6.328  17.205  0.00  0.00    +0.000 C 
ENDROOT
BRANCH   1   8
ATOM      2  C   UNL     1       1.204   2.470  21.808  0.00  0.00    +0.000 C 
ATOM      3  C   UNL     1       1.921   3.483  20.991  0.00  0.00    +0.000 A 
ATOM      4  C   UNL     1       1.497   4.732  20.586  0.00  0.00    +0.000 A 
ATOM      5  N   UNL     1       2.370   5.424  19.773  0.00  0.00    +0.000 NA
ATOM      6  C   UNL     1       3.441   4.704  19.568  0.00  0.00    +0.000 A 
ATOM      7  N   UNL     1       4.536   4.993  18.797  0.00  0.00    +0.000 N 
ATOM      8  C   UNL     1       4.514   6.025  17.879  0.00  0.00    +0.000 C 
ATOM      9  O   UNL     1       3.529   6.692  17.570  0.00  0.00    +0.000 OA
ATOM     10  S   UNL     1       3.506   3.203  20.385  0.00  0.00    +0.000 S 
ATOM     11  H   UNL     1       5.310   4.349  18.837  0.00  0.00    +0.000 HD
ENDBRANCH   1   8
BRANCH   1  12
ATOM     12  C   UNL     1       6.023   5.518  15.920  0.00  0.00    +0.000 A 
ATOM     13  C   UNL     1       7.054   5.726  14.995  0.00  0.00    +0.000 A 
ATOM     14  C   UNL     1       7.146   4.939  13.839  0.00  0.00    +0.000 A 
ATOM     15  C   UNL     1       6.213   3.932  13.598  0.00  0.00    +0.000 A 
ATOM     16 CL   UNL     1       6.334   2.973  12.175  0.00  0.00    +0.000 Cl
ATOM     17  C   UNL     1       5.189   3.698  14.507  0.00  0.00    +0.000 A 
ATOM     18  C   UNL     1       5.097   4.483  15.661  0.00  0.00    +0.000 A 
ENDBRANCH   1  12
BRANCH   1  19
ATOM     19  C   UNL     1       7.045   6.299  18.225  0.00  0.00    +0.000 C 
ATOM     20  C   UNL     1       7.850   4.994  18.140  0.00  0.00    +0.000 C 
ATOM     21  C   UNL     1       8.015   7.467  17.971  0.00  0.00    +0.000 C 
ENDBRANCH   1  19
TORSDOF 3
ENDMDL
MODEL 8
REMARK VINA RESULT:      -6.9      4.347      5.805
REMARK  Name = 
REMARK  6 active torsions:
REMARK  status: ('A' for Active; 'I' for Inactive)
REMARK    1  A    between atoms: C_1  and  C_2
REMARK    2  A    between atoms: C_7  and  C_9
REMARK    3  A    between atoms: C_9  and  C_10
REMARK    4  A    between atoms: C_9  and  C_17
REMARK    5  A    between atoms: C_17  and  C_18
REMARK    6  A    between atoms: C_17  and  C_19
REMARK                            x       y       z     vdW  Elec       q    Type
REMARK                         _______ _______ _______ _____ _____    ______ ____
ROOT
ATOM      1  C   UNL     1       6.348   5.882  17.103  0.00  0.00    +0.000 C 
ENDROOT
BRANCH   1   8
ATOM      2  C   UNL     1       1.297   2.803  21.880  0.00  0.00    +0.000 C 
ATOM      3  C   UNL     1       2.401   3.093  20.930  0.00  0.00    +0.000 A 
ATOM      4  C   UNL     1       3.520   2.339  20.641  0.00  0.00    +0.000 A 
ATOM      5  N   UNL     1       4.409   2.905  19.753  0.00  0.00    +0.000 NA
ATOM      6  C   UNL     1       3.965   4.075  19.376  0.00  0.00    +0.000 A 
ATOM      7  N   UNL     1       4.549   4.986  18.534  0.00  0.00    +0.000 N 
ATOM      8  C   UNL     1       5.879   4.881  18.176  0.00  0.00    +0.000 C 
ATOM      9  O   UNL     1       6.687   4.077  18.638  0.00  0.00    +0.000 OA
ATOM     10  S   UNL     1       2.439   4.535  19.993  0.00  0.00    +0.000 S 
ATOM     11  H   UNL     1       4.007   5.799  18.289  0.00  0.00    +0.000 HD
ENDBRANCH   1   8
BRANCH   1  12
ATOM     12  C   UNL     1       6.378   5.224  15.725  0.00  0.00    +0.000 A 
ATOM     13  C   UNL     1       5.340   4.429  15.225  0.00  0.00    +0.000 A 
ATOM     14  C   UNL     1       5.427   3.862  13.946  0.00  0.00    +0.000 A 
ATOM     15  C   UNL     1       6.550   4.089  13.152  0.00  0.00    +0.000 A 
ATOM     16 CL   UNL     1       6.648   3.386  11.585  0.00  0.00    +0.000 Cl
ATOM     17  C   UNL     1       7.588   4.884  13.621  0.00  0.00    +0.000 A 
ATOM     18  C   UNL     1       7.500   5.451  14.897  0.00  0.00    +0.000 A 
ENDBRANCH   1  12
BRANCH   1  19
ATOM     19  C   UNL     1       7.615   6.669  17.556  0.00  0.00    +0.000 C 
ATOM     20  C   UNL     1       7.416   8.189  17.460  0.00  0.00    +0.000 C 
ATOM     21  C   UNL     1       7.974   6.333  19.015  0.00  0.00    +0.000 C 
ENDBRANCH   1  19
TORSDOF 3
ENDMDL
MODEL 9
REMARK VINA RESULT:      -6.9      2.255      3.140
REMARK  Name = 
REMARK  6 active torsions:
REMARK  status: ('A' for Active; 'I' for Inactive)
REMARK    1  A    between atoms: C_1  and  C_2
REMARK    2  A    between atoms: C_7  and  C_9
REMARK    3  A    between atoms: C_9  and  C_10
REMARK    4  A    between atoms: C_9  and  C_17
REMARK    5  A    between atoms: C_17  and  C_18
REMARK    6  A    between atoms: C_17  and  C_19
REMARK                            x       y       z     vdW  Elec       q    Type
REMARK                         _______ _______ _______ _____ _____    ______ ____
ROOT
ATOM      1  C   UNL     1       4.114   3.849  18.149  0.00  0.00    +0.000 C 
ENDROOT
BRANCH   1   8
ATOM      2  C   UNL     1       1.117  10.803  18.839  0.00  0.00    +0.000 C 
ATOM      3  C   UNL     1       1.544   9.388  18.992  0.00  0.00    +0.000 A 
ATOM      4  C   UNL     1       1.528   8.593  20.120  0.00  0.00    +0.000 A 
ATOM      5  N   UNL     1       2.053   7.327  19.964  0.00  0.00    +0.000 NA
ATOM      6  C   UNL     1       2.459   7.170  18.733  0.00  0.00    +0.000 A 
ATOM      7  N   UNL     1       3.072   6.085  18.161  0.00  0.00    +0.000 N 
ATOM      8  C   UNL     1       3.603   5.072  18.935  0.00  0.00    +0.000 C 
ATOM      9  O   UNL     1       3.696   5.077  20.161  0.00  0.00    +0.000 OA
ATOM     10  S   UNL     1       2.177   8.482  17.674  0.00  0.00    +0.000 S 
ATOM     11  H   UNL     1       3.228   6.117  17.167  0.00  0.00    +0.000 HD
ENDBRANCH   1   8
BRANCH   1  12
ATOM     12  C   UNL     1       5.079   4.280  17.047  0.00  0.00    +0.000 A 
ATOM     13  C   UNL     1       6.307   4.905  17.296  0.00  0.00    +0.000 A 
ATOM     14  C   UNL     1       7.152   5.266  16.237  0.00  0.00    +0.000 A 
ATOM     15  C   UNL     1       6.782   4.999  14.920  0.00  0.00    +0.000 A 
ATOM     16 CL   UNL     1       7.825   5.449  13.628  0.00  0.00    +0.000 Cl
ATOM     17  C   UNL     1       5.574   4.369  14.649  0.00  0.00    +0.000 A 
ATOM     18  C   UNL     1       4.731   4.007  15.705  0.00  0.00    +0.000 A 
ENDBRANCH   1  12
BRANCH   1  19
ATOM     19  C   UNL     1       2.954   2.884  17.756  0.00  0.00    +0.000 C 
ATOM     20  C   UNL     1       3.136   1.485  18.365  0.00  0.00    +0.000 C 
ATOM     21  C   UNL     1       1.599   3.434  18.239  0.00  0.00    +0.000 C 
ENDBRANCH   1  19
TORSDOF 3
ENDMDL
