MODEL 1
REMARK VINA RESULT:      -8.8      0.000      0.000
REMARK  Name = 
REMARK  7 active torsions:
REMARK  status: ('A' for Active; 'I' for Inactive)
REMARK    1  A    between atoms: C_1  and  C_2
REMARK    2  A    between atoms: C_2  and  S_3
REMARK    3  A    between atoms: C_2  and  C_21
REMARK    4  A    between atoms: S_3  and  C_4
REMARK    5  A    between atoms: N_14  and  C_15
REMARK    6  A    between atoms: C_15  and  C_16
REMARK    7  A    between atoms: C_21  and  C_23
REMARK                            x       y       z     vdW  Elec       q    Type
REMARK                         _______ _______ _______ _____ _____    ______ ____
ROOT
ATOM      1  C   UNL     1       3.762   6.922  17.687  0.00  0.00    +0.000 A 
ATOM      2  N   UNL     1       3.094   8.030  17.625  0.00  0.00    +0.000 NA
ATOM      3  C   UNL     1       2.227   8.350  18.686  0.00  0.00    +0.000 A 
ATOM      4  C   UNL     1       1.561   9.580  18.694  0.00  0.00    +0.000 A 
ATOM      5  C   UNL     1       0.737   9.949  19.771  0.00  0.00    +0.000 A 
ATOM      6  C   UNL     1       0.565   9.086  20.851  0.00  0.00    +0.000 A 
ATOM      7  C   UNL     1       1.212   7.854  20.852  0.00  0.00    +0.000 A 
ATOM      8  C   UNL     1       2.034   7.498  19.769  0.00  0.00    +0.000 A 
ATOM      9  C   UNL     1       2.772   6.228  19.780  0.00  0.00    +0.000 A 
ATOM     10  O   UNL     1       2.601   5.449  20.716  0.00  0.00    +0.000 OA
ATOM     11  N   UNL     1       3.666   6.008  18.732  0.00  0.00    +0.000 N 
ENDROOT
BRANCH   1  12
ATOM     12  S   UNL     1       4.934   6.565  16.432  0.00  0.00    +0.000 S 
BRANCH  12  14
ATOM     13  C   UNL     1       7.387   7.465  17.321  0.00  0.00    +0.000 C 
ATOM     14  C   UNL     1       6.489   6.223  17.321  0.00  0.00    +0.000 C 
BRANCH  14  15
ATOM     15  C   UNL     1       7.229   5.071  16.604  0.00  0.00    +0.000 C 
ATOM     16  O   UNL     1       8.009   4.331  17.213  0.00  0.00    +0.000 OA
BRANCH  15  17
ATOM     17  C   UNL     1       7.015   4.782  15.143  0.00  0.00    +0.000 A 
ATOM     18  C   UNL     1       7.754   5.383  14.119  0.00  0.00    +0.000 A 
ATOM     19  C   UNL     1       7.541   5.013  12.783  0.00  0.00    +0.000 A 
ATOM     20  C   UNL     1       6.571   4.064  12.458  0.00  0.00    +0.000 A 
ATOM     21  C   UNL     1       5.804   3.487  13.465  0.00  0.00    +0.000 A 
ATOM     22  C   UNL     1       6.026   3.842  14.797  0.00  0.00    +0.000 A 
ENDBRANCH  15  17
ENDBRANCH  14  15
ENDBRANCH  12  14
ENDBRANCH   1  12
BRANCH  11  23
ATOM     23  C   UNL     1       4.550   4.855  18.900  0.00  0.00    +0.000 C 
BRANCH  23  24
ATOM     24  C   UNL     1       3.951   3.584  18.406  0.00  0.00    +0.000 A 
ATOM     25  C   UNL     1       3.056   3.288  17.397  0.00  0.00    +0.000 A 
ATOM     26  C   UNL     1       2.693   1.929  17.569  0.00  0.00    +0.000 A 
ATOM     27  C   UNL     1       3.421   1.471  18.641  0.00  0.00    +0.000 A 
ATOM     28  O   UNL     1       4.190   2.466  19.152  0.00  0.00    +0.000 OA
ENDBRANCH  23  24
ENDBRANCH  11  23
TORSDOF 6
ENDMDL
MODEL 2
REMARK VINA RESULT:      -8.2      0.689      1.236
REMARK  Name = 
REMARK  7 active torsions:
REMARK  status: ('A' for Active; 'I' for Inactive)
REMARK    1  A    between atoms: C_1  and  C_2
REMARK    2  A    between atoms: C_2  and  S_3
REMARK    3  A    between atoms: C_2  and  C_21
REMARK    4  A    between atoms: S_3  and  C_4
REMARK    5  A    between atoms: N_14  and  C_15
REMARK    6  A    between atoms: C_15  and  C_16
REMARK    7  A    between atoms: C_21  and  C_23
REMARK                            x       y       z     vdW  Elec       q    Type
REMARK                         _______ _______ _______ _____ _____    ______ ____
ROOT
ATOM      1  C   UNL     1       3.638   7.059  17.605  0.00  0.00    +0.000 A 
ATOM      2  N   UNL     1       3.072   8.206  17.402  0.00  0.00    +0.000 NA
ATOM      3  C   UNL     1       2.206   8.711  18.391  0.00  0.00    +0.000 A 
ATOM      4  C   UNL     1       1.652   9.986  18.246  0.00  0.00    +0.000 A 
ATOM      5  C   UNL     1       0.832  10.536  19.247  0.00  0.00    +0.000 A 
ATOM      6  C   UNL     1       0.554   9.811  20.404  0.00  0.00    +0.000 A 
ATOM      7  C   UNL     1       1.090   8.535  20.557  0.00  0.00    +0.000 A 
ATOM      8  C   UNL     1       1.908   7.998  19.549  0.00  0.00    +0.000 A 
ATOM      9  C   UNL     1       2.531   6.678  19.719  0.00  0.00    +0.000 A 
ATOM     10  O   UNL     1       2.265   6.021  20.724  0.00  0.00    +0.000 OA
ATOM     11  N   UNL     1       3.431   6.273  18.734  0.00  0.00    +0.000 N 
ENDROOT
BRANCH   1  12
ATOM     12  S   UNL     1       4.809   6.473  16.439  0.00  0.00    +0.000 S 
BRANCH  12  14
ATOM     13  C   UNL     1       7.199   7.457  17.408  0.00  0.00    +0.000 C 
ATOM     14  C   UNL     1       6.333   6.192  17.400  0.00  0.00    +0.000 C 
BRANCH  14  15
ATOM     15  C   UNL     1       7.131   5.043  16.743  0.00  0.00    +0.000 C 
ATOM     16  O   UNL     1       7.937   4.367  17.391  0.00  0.00    +0.000 OA
BRANCH  15  17
ATOM     17  C   UNL     1       6.948   4.681  15.293  0.00  0.00    +0.000 A 
ATOM     18  C   UNL     1       5.984   3.776  14.837  0.00  0.00    +0.000 A 
ATOM     19  C   UNL     1       5.830   3.541  13.463  0.00  0.00    +0.000 A 
ATOM     20  C   UNL     1       6.655   4.182  12.539  0.00  0.00    +0.000 A 
ATOM     21  C   UNL     1       7.642   5.056  12.983  0.00  0.00    +0.000 A 
ATOM     22  C   UNL     1       7.786   5.305  14.350  0.00  0.00    +0.000 A 
ENDBRANCH  15  17
ENDBRANCH  14  15
ENDBRANCH  12  14
ENDBRANCH   1  12
BRANCH  11  23
ATOM     23  C   UNL     1       4.205   5.074  19.054  0.00  0.00    +0.000 C 
BRANCH  23  24
ATOM     24  C   UNL     1       3.435   3.814  18.860  0.00  0.00    +0.000 A 
ATOM     25  C   UNL     1       3.140   2.748  19.687  0.00  0.00    +0.000 A 
ATOM     26  C   UNL     1       2.573   1.745  18.862  0.00  0.00    +0.000 A 
ATOM     27  C   UNL     1       2.516   2.278  17.596  0.00  0.00    +0.000 A 
ATOM     28  O   UNL     1       3.032   3.533  17.587  0.00  0.00    +0.000 OA
ENDBRANCH  23  24
ENDBRANCH  11  23
TORSDOF 6
ENDMDL
MODEL 3
REMARK VINA RESULT:      -8.2      1.325      1.531
REMARK  Name = 
REMARK  7 active torsions:
REMARK  status: ('A' for Active; 'I' for Inactive)
REMARK    1  A    between atoms: C_1  and  C_2
REMARK    2  A    between atoms: C_2  and  S_3
REMARK    3  A    between atoms: C_2  and  C_21
REMARK    4  A    between atoms: S_3  and  C_4
REMARK    5  A    between atoms: N_14  and  C_15
REMARK    6  A    between atoms: C_15  and  C_16
REMARK    7  A    between atoms: C_21  and  C_23
REMARK                            x       y       z     vdW  Elec       q    Type
REMARK                         _______ _______ _______ _____ _____    ______ ____
ROOT
ATOM      1  C   UNL     1       3.314   6.244  18.162  0.00  0.00    +0.000 A 
ATOM      2  N   UNL     1       3.108   7.396  17.608  0.00  0.00    +0.000 NA
ATOM      3  C   UNL     1       2.334   8.345  18.302  0.00  0.00    +0.000 A 
ATOM      4  C   UNL     1       2.169   9.629  17.775  0.00  0.00    +0.000 A 
ATOM      5  C   UNL     1       1.451  10.612  18.477  0.00  0.00    +0.000 A 
ATOM      6  C   UNL     1       0.883  10.317  19.715  0.00  0.00    +0.000 A 
ATOM      7  C   UNL     1       1.029   9.040  20.247  0.00  0.00    +0.000 A 
ATOM      8  C   UNL     1       1.751   8.067  19.535  0.00  0.00    +0.000 A 
ATOM      9  C   UNL     1       1.966   6.731  20.107  0.00  0.00    +0.000 A 
ATOM     10  O   UNL     1       1.443   6.455  21.185  0.00  0.00    +0.000 OA
ATOM     11  N   UNL     1       2.801   5.867  19.399  0.00  0.00    +0.000 N 
ENDROOT
BRANCH   1  12
ATOM     12  S   UNL     1       4.374   5.096  17.364  0.00  0.00    +0.000 S 
BRANCH  12  14
ATOM     13  C   UNL     1       5.083   6.937  15.434  0.00  0.00    +0.000 C 
ATOM     14  C   UNL     1       5.671   6.113  16.585  0.00  0.00    +0.000 C 
BRANCH  14  15
ATOM     15  C   UNL     1       6.766   5.178  16.022  0.00  0.00    +0.000 C 
ATOM     16  O   UNL     1       7.627   4.681  16.756  0.00  0.00    +0.000 OA
BRANCH  15  17
ATOM     17  C   UNL     1       6.819   4.812  14.563  0.00  0.00    +0.000 A 
ATOM     18  C   UNL     1       7.704   5.394  13.650  0.00  0.00    +0.000 A 
ATOM     19  C   UNL     1       7.739   4.952  12.320  0.00  0.00    +0.000 A 
ATOM     20  C   UNL     1       6.872   3.949  11.885  0.00  0.00    +0.000 A 
ATOM     21  C   UNL     1       5.961   3.389  12.775  0.00  0.00    +0.000 A 
ATOM     22  C   UNL     1       5.937   3.816  14.105  0.00  0.00    +0.000 A 
ENDBRANCH  15  17
ENDBRANCH  14  15
ENDBRANCH  12  14
ENDBRANCH   1  12
BRANCH  11  23
ATOM     23  C   UNL     1       3.181   4.647  20.110  0.00  0.00    +0.000 C 
BRANCH  23  24
ATOM     24  C   UNL     1       2.446   3.442  19.636  0.00  0.00    +0.000 A 
ATOM     25  C   UNL     1       2.853   2.218  19.143  0.00  0.00    +0.000 A 
ATOM     26  C   UNL     1       1.690   1.581  18.643  0.00  0.00    +0.000 A 
ATOM     27  C   UNL     1       0.644   2.434  18.903  0.00  0.00    +0.000 A 
ATOM     28  O   UNL     1       1.092   3.562  19.509  0.00  0.00    +0.000 OA
ENDBRANCH  23  24
ENDBRANCH  11  23
TORSDOF 6
ENDMDL
MODEL 4
REMARK VINA RESULT:      -8.1      1.434      4.259
REMARK  Name = 
REMARK  7 active torsions:
REMARK  status: ('A' for Active; 'I' for Inactive)
REMARK    1  A    between atoms: C_1  and  C_2
REMARK    2  A    between atoms: C_2  and  S_3
REMARK    3  A    between atoms: C_2  and  C_21
REMARK    4  A    between atoms: S_3  and  C_4
REMARK    5  A    between atoms: N_14  and  C_15
REMARK    6  A    between atoms: C_15  and  C_16
REMARK    7  A    between atoms: C_21  and  C_23
REMARK                            x       y       z     vdW  Elec       q    Type
REMARK                         _______ _______ _______ _____ _____    ______ ____
ROOT
ATOM      1  C   UNL     1       3.849   5.603  17.672  0.00  0.00    +0.000 A 
ATOM      2  N   UNL     1       3.604   4.360  17.405  0.00  0.00    +0.000 NA
ATOM      3  C   UNL     1       2.641   3.686  18.178  0.00  0.00    +0.000 A 
ATOM      4  C   UNL     1       2.285   2.372  17.858  0.00  0.00    +0.000 A 
ATOM      5  C   UNL     1       1.283   1.698  18.577  0.00  0.00    +0.000 A 
ATOM      6  C   UNL     1       0.629   2.331  19.631  0.00  0.00    +0.000 A 
ATOM      7  C   UNL     1       0.980   3.635  19.969  0.00  0.00    +0.000 A 
ATOM      8  C   UNL     1       1.982   4.298  19.241  0.00  0.00    +0.000 A 
ATOM      9  C   UNL     1       2.324   5.694  19.544  0.00  0.00    +0.000 A 
ATOM     10  O   UNL     1       1.772   6.249  20.493  0.00  0.00    +0.000 OA
ATOM     11  N   UNL     1       3.235   6.320  18.694  0.00  0.00    +0.000 N 
ENDROOT
BRANCH   1  12
ATOM     12  S   UNL     1       4.959   6.490  16.643  0.00  0.00    +0.000 S 
BRANCH  12  14
ATOM     13  C   UNL     1       7.485   7.448  17.208  0.00  0.00    +0.000 C 
ATOM     14  C   UNL     1       6.607   6.201  17.366  0.00  0.00    +0.000 C 
BRANCH  14  15
ATOM     15  C   UNL     1       7.277   5.022  16.624  0.00  0.00    +0.000 C 
ATOM     16  O   UNL     1       8.021   4.230  17.214  0.00  0.00    +0.000 OA
BRANCH  15  17
ATOM     17  C   UNL     1       7.036   4.770  15.160  0.00  0.00    +0.000 A 
ATOM     18  C   UNL     1       7.753   5.398  14.137  0.00  0.00    +0.000 A 
ATOM     19  C   UNL     1       7.515   5.061  12.797  0.00  0.00    +0.000 A 
ATOM     20  C   UNL     1       6.541   4.119  12.467  0.00  0.00    +0.000 A 
ATOM     21  C   UNL     1       5.795   3.514  13.473  0.00  0.00    +0.000 A 
ATOM     22  C   UNL     1       6.042   3.836  14.810  0.00  0.00    +0.000 A 
ENDBRANCH  15  17
ENDBRANCH  14  15
ENDBRANCH  12  14
ENDBRANCH   1  12
BRANCH  11  23
ATOM     23  C   UNL     1       3.368   7.765  18.880  0.00  0.00    +0.000 C 
BRANCH  23  24
ATOM     24  C   UNL     1       2.092   8.501  18.663  0.00  0.00    +0.000 A 
ATOM     25  C   UNL     1       1.379   8.847  17.532  0.00  0.00    +0.000 A 
ATOM     26  C   UNL     1       0.368   9.747  17.954  0.00  0.00    +0.000 A 
ATOM     27  C   UNL     1       0.499   9.856  19.318  0.00  0.00    +0.000 A 
ATOM     28  O   UNL     1       1.538   9.101  19.757  0.00  0.00    +0.000 OA
ENDBRANCH  23  24
ENDBRANCH  11  23
TORSDOF 6
ENDMDL
MODEL 5
REMARK VINA RESULT:      -8.1      2.654      7.653
REMARK  Name = 
REMARK  7 active torsions:
REMARK  status: ('A' for Active; 'I' for Inactive)
REMARK    1  A    between atoms: C_1  and  C_2
REMARK    2  A    between atoms: C_2  and  S_3
REMARK    3  A    between atoms: C_2  and  C_21
REMARK    4  A    between atoms: S_3  and  C_4
REMARK    5  A    between atoms: N_14  and  C_15
REMARK    6  A    between atoms: C_15  and  C_16
REMARK    7  A    between atoms: C_21  and  C_23
REMARK                            x       y       z     vdW  Elec       q    Type
REMARK                         _______ _______ _______ _____ _____    ______ ____
ROOT
ATOM      1  C   UNL     1       2.695   6.677  18.277  0.00  0.00    +0.000 A 
ATOM      2  N   UNL     1       1.913   6.133  19.154  0.00  0.00    +0.000 NA
ATOM      3  C   UNL     1       1.958   4.736  19.318  0.00  0.00    +0.000 A 
ATOM      4  C   UNL     1       1.195   4.128  20.319  0.00  0.00    +0.000 A 
ATOM      5  C   UNL     1       1.268   2.742  20.542  0.00  0.00    +0.000 A 
ATOM      6  C   UNL     1       2.104   1.948  19.760  0.00  0.00    +0.000 A 
ATOM      7  C   UNL     1       2.862   2.538  18.752  0.00  0.00    +0.000 A 
ATOM      8  C   UNL     1       2.780   3.924  18.541  0.00  0.00    +0.000 A 
ATOM      9  C   UNL     1       3.616   4.574  17.522  0.00  0.00    +0.000 A 
ATOM     10  O   UNL     1       4.334   3.875  16.809  0.00  0.00    +0.000 OA
ATOM     11  N   UNL     1       3.572   5.967  17.463  0.00  0.00    +0.000 N 
ENDROOT
BRANCH   1  12
ATOM     12  S   UNL     1       2.736   8.425  18.144  0.00  0.00    +0.000 S 
BRANCH  12  14
ATOM     13  C   UNL     1       0.236   9.274  17.341  0.00  0.00    +0.000 C 
ATOM     14  C   UNL     1       1.058   8.974  18.600  0.00  0.00    +0.000 C 
BRANCH  14  15
ATOM     15  C   UNL     1       1.168  10.263  19.445  0.00  0.00    +0.000 C 
ATOM     16  O   UNL     1       1.823  11.235  19.053  0.00  0.00    +0.000 OA
BRANCH  15  17
ATOM     17  C   UNL     1       0.464  10.403  20.768  0.00  0.00    +0.000 A 
ATOM     18  C   UNL     1      -0.286  11.525  21.132  0.00  0.00    +0.000 A 
ATOM     19  C   UNL     1      -0.968  11.552  22.357  0.00  0.00    +0.000 A 
ATOM     20  C   UNL     1      -0.881  10.475  23.239  0.00  0.00    +0.000 A 
ATOM     21  C   UNL     1      -0.107   9.369  22.905  0.00  0.00    +0.000 A 
ATOM     22  C   UNL     1       0.559   9.332  21.678  0.00  0.00    +0.000 A 
ENDBRANCH  15  17
ENDBRANCH  14  15
ENDBRANCH  12  14
ENDBRANCH   1  12
BRANCH  11  23
ATOM     23  C   UNL     1       4.586   6.585  16.610  0.00  0.00    +0.000 C 
BRANCH  23  24
ATOM     24  C   UNL     1       5.932   6.636  17.245  0.00  0.00    +0.000 A 
ATOM     25  C   UNL     1       6.538   5.895  18.241  0.00  0.00    +0.000 A 
ATOM     26  C   UNL     1       7.739   6.571  18.570  0.00  0.00    +0.000 A 
ATOM     27  C   UNL     1       7.813   7.653  17.725  0.00  0.00    +0.000 A 
ATOM     28  O   UNL     1       6.725   7.697  16.915  0.00  0.00    +0.000 OA
ENDBRANCH  23  24
ENDBRANCH  11  23
TORSDOF 6
ENDMDL
MODEL 6
REMARK VINA RESULT:      -7.8      2.194      7.371
REMARK  Name = 
REMARK  7 active torsions:
REMARK  status: ('A' for Active; 'I' for Inactive)
REMARK    1  A    between atoms: C_1  and  C_2
REMARK    2  A    between atoms: C_2  and  S_3
REMARK    3  A    between atoms: C_2  and  C_21
REMARK    4  A    between atoms: S_3  and  C_4
REMARK    5  A    between atoms: N_14  and  C_15
REMARK    6  A    between atoms: C_15  and  C_16
REMARK    7  A    between atoms: C_21  and  C_23
REMARK                            x       y       z     vdW  Elec       q    Type
REMARK                         _______ _______ _______ _____ _____    ______ ____
ROOT
ATOM      1  C   UNL     1       3.008   6.695  18.491  0.00  0.00    +0.000 A 
ATOM      2  N   UNL     1       2.086   6.170  19.234  0.00  0.00    +0.000 NA
ATOM      3  C   UNL     1       2.339   4.922  19.833  0.00  0.00    +0.000 A 
ATOM      4  C   UNL     1       1.404   4.371  20.715  0.00  0.00    +0.000 A 
ATOM      5  C   UNL     1       1.659   3.155  21.372  0.00  0.00    +0.000 A 
ATOM      6  C   UNL     1       2.853   2.473  21.149  0.00  0.00    +0.000 A 
ATOM      7  C   UNL     1       3.789   3.004  20.265  0.00  0.00    +0.000 A 
ATOM      8  C   UNL     1       3.521   4.221  19.616  0.00  0.00    +0.000 A 
ATOM      9  C   UNL     1       4.522   4.826  18.726  0.00  0.00    +0.000 A 
ATOM     10  O   UNL     1       5.565   4.215  18.501  0.00  0.00    +0.000 OA
ATOM     11  N   UNL     1       4.234   6.095  18.224  0.00  0.00    +0.000 N 
ENDROOT
BRANCH   1  12
ATOM     12  S   UNL     1       2.756   8.302  17.834  0.00  0.00    +0.000 S 
BRANCH  12  14
ATOM     13  C   UNL     1       0.201   9.150  17.222  0.00  0.00    +0.000 C 
ATOM     14  C   UNL     1       1.099   8.795  18.413  0.00  0.00    +0.000 C 
BRANCH  14  15
ATOM     15  C   UNL     1       1.238  10.038  19.322  0.00  0.00    +0.000 C 
ATOM     16  O   UNL     1       1.896  11.022  18.969  0.00  0.00    +0.000 OA
BRANCH  15  17
ATOM     17  C   UNL     1       0.562  10.115  20.665  0.00  0.00    +0.000 A 
ATOM     18  C   UNL     1       0.811   9.220  21.710  0.00  0.00    +0.000 A 
ATOM     19  C   UNL     1       0.191   9.397  22.954  0.00  0.00    +0.000 A 
ATOM     20  C   UNL     1      -0.704  10.448  23.156  0.00  0.00    +0.000 A 
ATOM     21  C   UNL     1      -0.989  11.323  22.112  0.00  0.00    +0.000 A 
ATOM     22  C   UNL     1      -0.359  11.158  20.876  0.00  0.00    +0.000 A 
ENDBRANCH  15  17
ENDBRANCH  14  15
ENDBRANCH  12  14
ENDBRANCH   1  12
BRANCH  11  23
ATOM     23  C   UNL     1       5.345   6.761  17.544  0.00  0.00    +0.000 C 
BRANCH  23  24
ATOM     24  C   UNL     1       5.775   6.059  16.303  0.00  0.00    +0.000 A 
ATOM     25  C   UNL     1       5.086   5.438  15.279  0.00  0.00    +0.000 A 
ATOM     26  C   UNL     1       6.054   4.752  14.504  0.00  0.00    +0.000 A 
ATOM     27  C   UNL     1       7.272   5.034  15.075  0.00  0.00    +0.000 A 
ATOM     28  O   UNL     1       7.113   5.829  16.163  0.00  0.00    +0.000 OA
ENDBRANCH  23  24
ENDBRANCH  11  23
TORSDOF 6
ENDMDL
MODEL 7
REMARK VINA RESULT:      -7.8      2.292      7.121
REMARK  Name = 
REMARK  7 active torsions:
REMARK  status: ('A' for Active; 'I' for Inactive)
REMARK    1  A    between atoms: C_1  and  C_2
REMARK    2  A    between atoms: C_2  and  S_3
REMARK    3  A    between atoms: C_2  and  C_21
REMARK    4  A    between atoms: S_3  and  C_4
REMARK    5  A    between atoms: N_14  and  C_15
REMARK    6  A    between atoms: C_15  and  C_16
REMARK    7  A    between atoms: C_21  and  C_23
REMARK                            x       y       z     vdW  Elec       q    Type
REMARK                         _______ _______ _______ _____ _____    ______ ____
ROOT
ATOM      1  C   UNL     1       3.593   5.878  18.450  0.00  0.00    +0.000 A 
ATOM      2  N   UNL     1       4.688   6.342  17.938  0.00  0.00    +0.000 NA
ATOM      3  C   UNL     1       5.321   5.601  16.923  0.00  0.00    +0.000 A 
ATOM      4  C   UNL     1       6.452   6.119  16.285  0.00  0.00    +0.000 A 
ATOM      5  C   UNL     1       7.066   5.426  15.227  0.00  0.00    +0.000 A 
ATOM      6  C   UNL     1       6.557   4.201  14.800  0.00  0.00    +0.000 A 
ATOM      7  C   UNL     1       5.437   3.669  15.433  0.00  0.00    +0.000 A 
ATOM      8  C   UNL     1       4.833   4.372  16.488  0.00  0.00    +0.000 A 
ATOM      9  C   UNL     1       3.616   3.855  17.128  0.00  0.00    +0.000 A 
ATOM     10  O   UNL     1       3.178   2.761  16.776  0.00  0.00    +0.000 OA
ATOM     11  N   UNL     1       3.004   4.674  18.076  0.00  0.00    +0.000 N 
ENDROOT
BRANCH   1  12
ATOM     12  S   UNL     1       2.730   6.845  19.631  0.00  0.00    +0.000 S 
BRANCH  12  14
ATOM     13  C   UNL     1       2.624   8.720  17.608  0.00  0.00    +0.000 C 
ATOM     14  C   UNL     1       1.741   8.020  18.648  0.00  0.00    +0.000 C 
BRANCH  14  15
ATOM     15  C   UNL     1       1.144   9.085  19.596  0.00  0.00    +0.000 C 
ATOM     16  O   UNL     1       1.284   9.005  20.821  0.00  0.00    +0.000 OA
BRANCH  15  17
ATOM     17  C   UNL     1       0.389  10.276  19.071  0.00  0.00    +0.000 A 
ATOM     18  C   UNL     1      -0.808  10.180  18.355  0.00  0.00    +0.000 A 
ATOM     19  C   UNL     1      -1.488  11.339  17.956  0.00  0.00    +0.000 A 
ATOM     20  C   UNL     1      -0.964  12.600  18.242  0.00  0.00    +0.000 A 
ATOM     21  C   UNL     1       0.245  12.708  18.922  0.00  0.00    +0.000 A 
ATOM     22  C   UNL     1       0.915  11.555  19.335  0.00  0.00    +0.000 A 
ENDBRANCH  15  17
ENDBRANCH  14  15
ENDBRANCH  12  14
ENDBRANCH   1  12
BRANCH  11  23
ATOM     23  C   UNL     1       1.678   4.237  18.513  0.00  0.00    +0.000 C 
BRANCH  23  24
ATOM     24  C   UNL     1       1.709   3.453  19.778  0.00  0.00    +0.000 A 
ATOM     25  C   UNL     1       0.748   3.129  20.716  0.00  0.00    +0.000 A 
ATOM     26  C   UNL     1       1.437   2.561  21.816  0.00  0.00    +0.000 A 
ATOM     27  C   UNL     1       2.765   2.531  21.463  0.00  0.00    +0.000 A 
ATOM     28  O   UNL     1       2.939   3.065  20.227  0.00  0.00    +0.000 OA
ENDBRANCH  23  24
ENDBRANCH  11  23
TORSDOF 6
ENDMDL
MODEL 8
REMARK VINA RESULT:      -7.8      1.523      1.918
REMARK  Name = 
REMARK  7 active torsions:
REMARK  status: ('A' for Active; 'I' for Inactive)
REMARK    1  A    between atoms: C_1  and  C_2
REMARK    2  A    between atoms: C_2  and  S_3
REMARK    3  A    between atoms: C_2  and  C_21
REMARK    4  A    between atoms: S_3  and  C_4
REMARK    5  A    between atoms: N_14  and  C_15
REMARK    6  A    between atoms: C_15  and  C_16
REMARK    7  A    between atoms: C_21  and  C_23
REMARK                            x       y       z     vdW  Elec       q    Type
REMARK                         _______ _______ _______ _____ _____    ______ ____
ROOT
ATOM      1  C   UNL     1       3.286   6.302  18.105  0.00  0.00    +0.000 A 
ATOM      2  N   UNL     1       2.903   7.397  17.530  0.00  0.00    +0.000 NA
ATOM      3  C   UNL     1       2.174   8.332  18.288  0.00  0.00    +0.000 A 
ATOM      4  C   UNL     1       1.826   9.564  17.726  0.00  0.00    +0.000 A 
ATOM      5  C   UNL     1       1.151  10.539  18.482  0.00  0.00    +0.000 A 
ATOM      6  C   UNL     1       0.811  10.287  19.810  0.00  0.00    +0.000 A 
ATOM      7  C   UNL     1       1.142   9.061  20.379  0.00  0.00    +0.000 A 
ATOM      8  C   UNL     1       1.817   8.096  19.613  0.00  0.00    +0.000 A 
ATOM      9  C   UNL     1       2.227   6.820  20.214  0.00  0.00    +0.000 A 
ATOM     10  O   UNL     1       1.904   6.580  21.376  0.00  0.00    +0.000 OA
ATOM     11  N   UNL     1       3.007   5.972  19.428  0.00  0.00    +0.000 N 
ENDROOT
BRANCH   1  12
ATOM     12  S   UNL     1       4.296   5.181  17.209  0.00  0.00    +0.000 S 
BRANCH  12  14
ATOM     13  C   UNL     1       5.072   7.015  15.298  0.00  0.00    +0.000 C 
ATOM     14  C   UNL     1       5.615   6.209  16.484  0.00  0.00    +0.000 C 
BRANCH  14  15
ATOM     15  C   UNL     1       6.749   5.285  15.984  0.00  0.00    +0.000 C 
ATOM     16  O   UNL     1       7.648   4.904  16.741  0.00  0.00    +0.000 OA
BRANCH  15  17
ATOM     17  C   UNL     1       6.796   4.789  14.564  0.00  0.00    +0.000 A 
ATOM     18  C   UNL     1       5.954   3.792  14.064  0.00  0.00    +0.000 A 
ATOM     19  C   UNL     1       6.014   3.431  12.710  0.00  0.00    +0.000 A 
ATOM     20  C   UNL     1       6.933   4.039  11.855  0.00  0.00    +0.000 A 
ATOM     21  C   UNL     1       7.802   5.006  12.350  0.00  0.00    +0.000 A 
ATOM     22  C   UNL     1       7.733   5.379  13.694  0.00  0.00    +0.000 A 
ENDBRANCH  15  17
ENDBRANCH  14  15
ENDBRANCH  12  14
ENDBRANCH   1  12
BRANCH  11  23
ATOM     23  C   UNL     1       3.591   4.832  20.132  0.00  0.00    +0.000 C 
BRANCH  23  24
ATOM     24  C   UNL     1       2.630   3.712  20.330  0.00  0.00    +0.000 A 
ATOM     25  C   UNL     1       1.868   2.954  19.462  0.00  0.00    +0.000 A 
ATOM     26  C   UNL     1       0.976   2.201  20.265  0.00  0.00    +0.000 A 
ATOM     27  C   UNL     1       1.279   2.511  21.569  0.00  0.00    +0.000 A 
ATOM     28  O   UNL     1       2.283   3.423  21.618  0.00  0.00    +0.000 OA
ENDBRANCH  23  24
ENDBRANCH  11  23
TORSDOF 6
ENDMDL
MODEL 9
REMARK VINA RESULT:      -7.8      3.879      7.152
REMARK  Name = 
REMARK  7 active torsions:
REMARK  status: ('A' for Active; 'I' for Inactive)
REMARK    1  A    between atoms: C_1  and  C_2
REMARK    2  A    between atoms: C_2  and  S_3
REMARK    3  A    between atoms: C_2  and  C_21
REMARK    4  A    between atoms: S_3  and  C_4
REMARK    5  A    between atoms: N_14  and  C_15
REMARK    6  A    between atoms: C_15  and  C_16
REMARK    7  A    between atoms: C_21  and  C_23
REMARK                            x       y       z     vdW  Elec       q    Type
REMARK                         _______ _______ _______ _____ _____    ______ ____
ROOT
ATOM      1  C   UNL     1       0.245   9.998  18.357  0.00  0.00    +0.000 A 
ATOM      2  N   UNL     1      -0.588   9.773  17.391  0.00  0.00    +0.000 NA
ATOM      3  C   UNL     1      -1.870  10.348  17.463  0.00  0.00    +0.000 A 
ATOM      4  C   UNL     1      -2.759  10.201  16.394  0.00  0.00    +0.000 A 
ATOM      5  C   UNL     1      -4.023  10.817  16.416  0.00  0.00    +0.000 A 
ATOM      6  C   UNL     1      -4.413  11.582  17.513  0.00  0.00    +0.000 A 
ATOM      7  C   UNL     1      -3.542  11.728  18.589  0.00  0.00    +0.000 A 
ATOM      8  C   UNL     1      -2.281  11.109  18.554  0.00  0.00    +0.000 A 
ATOM      9  C   UNL     1      -1.326  11.300  19.653  0.00  0.00    +0.000 A 
ATOM     10  O   UNL     1      -1.674  11.950  20.637  0.00  0.00    +0.000 OA
ATOM     11  N   UNL     1      -0.051  10.761  19.483  0.00  0.00    +0.000 N 
ENDROOT
BRANCH   1  12
ATOM     12  S   UNL     1       1.884   9.387  18.226  0.00  0.00    +0.000 S 
BRANCH  12  14
ATOM     13  C   UNL     1       1.966   7.558  20.291  0.00  0.00    +0.000 C 
ATOM     14  C   UNL     1       1.786   7.650  18.771  0.00  0.00    +0.000 C 
BRANCH  14  15
ATOM     15  C   UNL     1       2.914   6.848  18.084  0.00  0.00    +0.000 C 
ATOM     16  O   UNL     1       3.847   7.416  17.508  0.00  0.00    +0.000 OA
BRANCH  15  17
ATOM     17  C   UNL     1       2.941   5.343  18.108  0.00  0.00    +0.000 A 
ATOM     18  C   UNL     1       1.838   4.544  17.792  0.00  0.00    +0.000 A 
ATOM     19  C   UNL     1       1.960   3.147  17.772  0.00  0.00    +0.000 A 
ATOM     20  C   UNL     1       3.172   2.538  18.095  0.00  0.00    +0.000 A 
ATOM     21  C   UNL     1       4.267   3.322  18.446  0.00  0.00    +0.000 A 
ATOM     22  C   UNL     1       4.152   4.714  18.451  0.00  0.00    +0.000 A 
ENDBRANCH  15  17
ENDBRANCH  14  15
ENDBRANCH  12  14
ENDBRANCH   1  12
BRANCH  11  23
ATOM     23  C   UNL     1       0.937  11.172  20.480  0.00  0.00    +0.000 C 
BRANCH  23  24
ATOM     24  C   UNL     1       1.554  12.493  20.179  0.00  0.00    +0.000 A 
ATOM     25  C   UNL     1       1.889  13.137  19.004  0.00  0.00    +0.000 A 
ATOM     26  C   UNL     1       2.660  14.268  19.372  0.00  0.00    +0.000 A 
ATOM     27  C   UNL     1       2.709  14.268  20.745  0.00  0.00    +0.000 A 
ATOM     28  O   UNL     1       2.038  13.199  21.243  0.00  0.00    +0.000 OA
ENDBRANCH  23  24
ENDBRANCH  11  23
TORSDOF 6
ENDMDL
