MODEL 1
REMARK VINA RESULT:      -8.5      0.000      0.000
REMARK  Name = 
REMARK  4 active torsions:
REMARK  status: ('A' for Active; 'I' for Inactive)
REMARK    1  A    between atoms: C_2  and  C_3
REMARK    2  A    between atoms: C_6  and  C_7
REMARK    3  A    between atoms: C_7  and  N_8
REMARK    4  A    between atoms: C_16  and  C_18
REMARK                            x       y       z     vdW  Elec       q    Type
REMARK                         _______ _______ _______ _____ _____    ______ ____
ROOT
ATOM      1  N   UNL     1       1.282   4.734  20.401  0.00  0.00    +0.000 NA
ATOM      2  C   UNL     1       1.536   3.497  21.137  0.00  0.00    +0.000 C 
ATOM      3  C   UNL     1       2.921   2.922  20.858  0.00  0.00    +0.000 C 
ATOM      4  C   UNL     1       3.376   2.974  19.396  0.00  0.00    +0.000 C 
ATOM      5  C   UNL     1       2.900   4.135  18.464  0.00  0.00    +0.000 C 
ATOM      6  C   UNL     1       3.536   5.545  18.347  0.00  0.00    +0.000 C 
ATOM      7  C   UNL     1       4.986   5.646  17.990  0.00  0.00    +0.000 C 
ATOM      8  N   UNL     1       5.226   4.995  16.729  0.00  0.00    +0.000 N 
ATOM      9  C   UNL     1       6.195   5.596  15.914  0.00  0.00    +0.000 C 
ATOM     10  O   UNL     1       6.810   6.607  16.271  0.00  0.00    +0.000 OA
ATOM     11  C   UNL     1       4.684   3.632  16.634  0.00  0.00    +0.000 C 
ATOM     12  C   UNL     1       3.161   3.566  17.007  0.00  0.00    +0.000 C 
ATOM     13  C   UNL     1       1.441   4.450  18.930  0.00  0.00    +0.000 C 
ENDROOT
BRANCH   9  14
ATOM     14  C   UNL     1       6.530   5.063  14.575  0.00  0.00    +0.000 A 
ATOM     15  C   UNL     1       5.714   4.073  14.038  0.00  0.00    +0.000 A 
ATOM     16  N   UNL     1       5.956   3.502  12.831  0.00  0.00    +0.000 NA
ATOM     17  C   UNL     1       7.068   3.945  12.202  0.00  0.00    +0.000 A 
ATOM     18  C   UNL     1       7.900   4.909  12.750  0.00  0.00    +0.000 A 
ATOM     19  N   UNL     1       7.656   5.492  13.945  0.00  0.00    +0.000 NA
ENDBRANCH   9  14
BRANCH   1  20
ATOM     20  C   UNL     1       2.058   5.854  20.994  0.00  0.00    +0.000 C 
BRANCH  20  24
ATOM     21  C   UNL     1       0.190   9.728  20.397  0.00  0.00    +0.000 A 
ATOM     22  C   UNL     1       1.173   9.298  19.494  0.00  0.00    +0.000 A 
ATOM     23  C   UNL     1       1.812   8.057  19.681  0.00  0.00    +0.000 A 
ATOM     24  C   UNL     1       1.474   7.243  20.771  0.00  0.00    +0.000 A 
ATOM     25  C   UNL     1       0.463   7.672  21.644  0.00  0.00    +0.000 A 
ATOM     26  C   UNL     1      -0.173   8.904  21.459  0.00  0.00    +0.000 A 
BRANCH  21  28
ATOM     27  N   UNL     1      -0.974  12.028  20.069  0.00  0.00    +0.000 NA
ATOM     28  C   UNL     1      -0.449  11.010  20.222  0.00  0.00    +0.000 C 
ENDBRANCH  21  28
ENDBRANCH  20  24
ENDBRANCH   1  20
TORSDOF 4
ENDMDL
MODEL 2
REMARK VINA RESULT:      -8.1      2.881      7.790
REMARK  Name = 
REMARK  4 active torsions:
REMARK  status: ('A' for Active; 'I' for Inactive)
REMARK    1  A    between atoms: C_2  and  C_3
REMARK    2  A    between atoms: C_6  and  C_7
REMARK    3  A    between atoms: C_7  and  N_8
REMARK    4  A    between atoms: C_16  and  C_18
REMARK                            x       y       z     vdW  Elec       q    Type
REMARK                         _______ _______ _______ _____ _____    ______ ____
ROOT
ATOM      1  N   UNL     1       4.514   3.125  18.443  0.00  0.00    +0.000 NA
ATOM      2  C   UNL     1       3.504   2.130  18.088  0.00  0.00    +0.000 C 
ATOM      3  C   UNL     1       2.118   2.742  17.903  0.00  0.00    +0.000 C 
ATOM      4  C   UNL     1       1.723   3.808  18.930  0.00  0.00    +0.000 C 
ATOM      5  C   UNL     1       2.814   4.727  19.570  0.00  0.00    +0.000 C 
ATOM      6  C   UNL     1       3.396   6.029  18.961  0.00  0.00    +0.000 C 
ATOM      7  C   UNL     1       2.452   7.135  18.607  0.00  0.00    +0.000 C 
ATOM      8  N   UNL     1       1.710   7.538  19.773  0.00  0.00    +0.000 N 
ATOM      9  C   UNL     1       1.418   8.906  19.861  0.00  0.00    +0.000 C 
ATOM     10  O   UNL     1       1.765   9.703  18.981  0.00  0.00    +0.000 OA
ATOM     11  C   UNL     1       1.080   6.430  20.506  0.00  0.00    +0.000 C 
ATOM     12  C   UNL     1       2.101   5.295  20.867  0.00  0.00    +0.000 C 
ATOM     13  C   UNL     1       4.076   3.814  19.708  0.00  0.00    +0.000 C 
ENDROOT
BRANCH   9  14
ATOM     14  C   UNL     1       0.690   9.477  21.015  0.00  0.00    +0.000 A 
ATOM     15  C   UNL     1       1.113   9.135  22.295  0.00  0.00    +0.000 A 
ATOM     16  N   UNL     1       0.492   9.584  23.413  0.00  0.00    +0.000 NA
ATOM     17  C   UNL     1      -0.588  10.366  23.193  0.00  0.00    +0.000 A 
ATOM     18  C   UNL     1      -1.030  10.683  21.918  0.00  0.00    +0.000 A 
ATOM     19  N   UNL     1      -0.407  10.250  20.799  0.00  0.00    +0.000 NA
ENDBRANCH   9  14
BRANCH   1  20
ATOM     20  C   UNL     1       4.850   3.961  17.261  0.00  0.00    +0.000 C 
BRANCH  20  24
ATOM     21  C   UNL     1       7.408   7.420  17.843  0.00  0.00    +0.000 A 
ATOM     22  C   UNL     1       7.707   6.229  18.520  0.00  0.00    +0.000 A 
ATOM     23  C   UNL     1       6.878   5.102  18.368  0.00  0.00    +0.000 A 
ATOM     24  C   UNL     1       5.746   5.160  17.542  0.00  0.00    +0.000 A 
ATOM     25  C   UNL     1       5.482   6.348  16.845  0.00  0.00    +0.000 A 
ATOM     26  C   UNL     1       6.306   7.469  16.994  0.00  0.00    +0.000 A 
BRANCH  21  28
ATOM     27  N   UNL     1       8.902   9.526  18.138  0.00  0.00    +0.000 NA
ATOM     28  C   UNL     1       8.241   8.586  18.017  0.00  0.00    +0.000 C 
ENDBRANCH  21  28
ENDBRANCH  20  24
ENDBRANCH   1  20
TORSDOF 4
ENDMDL
MODEL 3
REMARK VINA RESULT:      -8.1      0.563      1.310
REMARK  Name = 
REMARK  4 active torsions:
REMARK  status: ('A' for Active; 'I' for Inactive)
REMARK    1  A    between atoms: C_2  and  C_3
REMARK    2  A    between atoms: C_6  and  C_7
REMARK    3  A    between atoms: C_7  and  N_8
REMARK    4  A    between atoms: C_16  and  C_18
REMARK                            x       y       z     vdW  Elec       q    Type
REMARK                         _______ _______ _______ _____ _____    ______ ____
ROOT
ATOM      1  N   UNL     1       1.269   4.763  20.426  0.00  0.00    +0.000 NA
ATOM      2  C   UNL     1       1.587   3.593  21.241  0.00  0.00    +0.000 C 
ATOM      3  C   UNL     1       2.981   3.040  20.955  0.00  0.00    +0.000 C 
ATOM      4  C   UNL     1       3.385   2.999  19.478  0.00  0.00    +0.000 C 
ATOM      5  C   UNL     1       2.840   4.074  18.482  0.00  0.00    +0.000 C 
ATOM      6  C   UNL     1       3.425   5.489  18.241  0.00  0.00    +0.000 C 
ATOM      7  C   UNL     1       4.858   5.608  17.826  0.00  0.00    +0.000 C 
ATOM      8  N   UNL     1       5.078   4.874  16.607  0.00  0.00    +0.000 N 
ATOM      9  C   UNL     1       5.999   5.442  15.717  0.00  0.00    +0.000 C 
ATOM     10  O   UNL     1       6.592   6.495  15.978  0.00  0.00    +0.000 OA
ATOM     11  C   UNL     1       4.578   3.492  16.630  0.00  0.00    +0.000 C 
ATOM     12  C   UNL     1       3.071   3.407  17.061  0.00  0.00    +0.000 C 
ATOM     13  C   UNL     1       1.388   4.377  18.975  0.00  0.00    +0.000 C 
ENDROOT
BRANCH   9  14
ATOM     14  C   UNL     1       6.307   4.823  14.409  0.00  0.00    +0.000 A 
ATOM     15  C   UNL     1       7.474   5.207  13.758  0.00  0.00    +0.000 A 
ATOM     16  N   UNL     1       7.828   4.718  12.544  0.00  0.00    +0.000 NA
ATOM     17  C   UNL     1       6.946   3.851  11.997  0.00  0.00    +0.000 A 
ATOM     18  C   UNL     1       5.766   3.491  12.630  0.00  0.00    +0.000 A 
ATOM     19  N   UNL     1       5.415   3.965  13.847  0.00  0.00    +0.000 NA
ENDBRANCH   9  14
BRANCH   1  20
ATOM     20  C   UNL     1       2.026   5.947  20.909  0.00  0.00    +0.000 C 
BRANCH  20  24
ATOM     21  C   UNL     1       0.305   9.870  20.201  0.00  0.00    +0.000 A 
ATOM     22  C   UNL     1      -0.097   9.142  21.330  0.00  0.00    +0.000 A 
ATOM     23  C   UNL     1       0.427   7.857  21.567  0.00  0.00    +0.000 A 
ATOM     24  C   UNL     1       1.352   7.293  20.677  0.00  0.00    +0.000 A 
ATOM     25  C   UNL     1       1.770   8.049  19.572  0.00  0.00    +0.000 A 
ATOM     26  C   UNL     1       1.251   9.327  19.336  0.00  0.00    +0.000 A 
BRANCH  21  28
ATOM     27  N   UNL     1      -0.681  12.232  19.749  0.00  0.00    +0.000 NA
ATOM     28  C   UNL     1      -0.250  11.177  19.941  0.00  0.00    +0.000 C 
ENDBRANCH  21  28
ENDBRANCH  20  24
ENDBRANCH   1  20
TORSDOF 4
ENDMDL
MODEL 4
REMARK VINA RESULT:      -7.6      3.150      6.224
REMARK  Name = 
REMARK  4 active torsions:
REMARK  status: ('A' for Active; 'I' for Inactive)
REMARK    1  A    between atoms: C_2  and  C_3
REMARK    2  A    between atoms: C_6  and  C_7
REMARK    3  A    between atoms: C_7  and  N_8
REMARK    4  A    between atoms: C_16  and  C_18
REMARK                            x       y       z     vdW  Elec       q    Type
REMARK                         _______ _______ _______ _____ _____    ______ ____
ROOT
ATOM      1  N   UNL     1      -0.026  11.936  19.745  0.00  0.00    +0.000 NA
ATOM      2  C   UNL     1      -1.085  11.943  18.738  0.00  0.00    +0.000 C 
ATOM      3  C   UNL     1      -1.366  10.554  18.172  0.00  0.00    +0.000 C 
ATOM      4  C   UNL     1      -0.130   9.695  17.884  0.00  0.00    +0.000 C 
ATOM      5  C   UNL     1       1.156   9.847  18.761  0.00  0.00    +0.000 C 
ATOM      6  C   UNL     1       1.429   9.162  20.125  0.00  0.00    +0.000 C 
ATOM      7  C   UNL     1       1.369   7.669  20.197  0.00  0.00    +0.000 C 
ATOM      8  N   UNL     1       2.308   7.095  19.269  0.00  0.00    +0.000 N 
ATOM      9  C   UNL     1       2.933   5.915  19.693  0.00  0.00    +0.000 C 
ATOM     10  O   UNL     1       2.675   5.398  20.787  0.00  0.00    +0.000 OA
ATOM     11  C   UNL     1       2.215   7.628  17.902  0.00  0.00    +0.000 C 
ATOM     12  C   UNL     1       2.290   9.195  17.864  0.00  0.00    +0.000 C 
ATOM     13  C   UNL     1       1.220  11.368  19.116  0.00  0.00    +0.000 C 
ENDROOT
BRANCH   9  14
ATOM     14  C   UNL     1       3.945   5.224  18.864  0.00  0.00    +0.000 A 
ATOM     15  C   UNL     1       5.272   5.260  19.279  0.00  0.00    +0.000 A 
ATOM     16  N   UNL     1       6.274   4.682  18.572  0.00  0.00    +0.000 NA
ATOM     17  C   UNL     1       5.893   4.094  17.416  0.00  0.00    +0.000 A 
ATOM     18  C   UNL     1       4.576   4.084  16.985  0.00  0.00    +0.000 A 
ATOM     19  N   UNL     1       3.570   4.646  17.692  0.00  0.00    +0.000 NA
ENDBRANCH   9  14
BRANCH   1  20
ATOM     20  C   UNL     1      -0.521  11.331  21.008  0.00  0.00    +0.000 C 
BRANCH  20  24
ATOM     21  C   UNL     1      -2.194  14.121  23.883  0.00  0.00    +0.000 A 
ATOM     22  C   UNL     1      -2.873  12.921  23.622  0.00  0.00    +0.000 A 
ATOM     23  C   UNL     1      -2.363  12.013  22.675  0.00  0.00    +0.000 A 
ATOM     24  C   UNL     1      -1.178  12.299  21.983  0.00  0.00    +0.000 A 
ATOM     25  C   UNL     1      -0.494  13.486  22.283  0.00  0.00    +0.000 A 
ATOM     26  C   UNL     1      -0.998  14.390  23.225  0.00  0.00    +0.000 A 
BRANCH  21  28
ATOM     27  N   UNL     1      -3.168  15.830  25.582  0.00  0.00    +0.000 NA
ATOM     28  C   UNL     1      -2.727  15.066  24.835  0.00  0.00    +0.000 C 
ENDBRANCH  21  28
ENDBRANCH  20  24
ENDBRANCH   1  20
TORSDOF 4
ENDMDL
MODEL 5
REMARK VINA RESULT:      -7.6      4.480     11.170
REMARK  Name = 
REMARK  4 active torsions:
REMARK  status: ('A' for Active; 'I' for Inactive)
REMARK    1  A    between atoms: C_2  and  C_3
REMARK    2  A    between atoms: C_6  and  C_7
REMARK    3  A    between atoms: C_7  and  N_8
REMARK    4  A    between atoms: C_16  and  C_18
REMARK                            x       y       z     vdW  Elec       q    Type
REMARK                         _______ _______ _______ _____ _____    ______ ____
ROOT
ATOM      1  N   UNL     1       1.231   9.603  18.271  0.00  0.00    +0.000 NA
ATOM      2  C   UNL     1       2.135  10.648  17.797  0.00  0.00    +0.000 C 
ATOM      3  C   UNL     1       2.005  11.943  18.593  0.00  0.00    +0.000 C 
ATOM      4  C   UNL     1       0.574  12.361  18.947  0.00  0.00    +0.000 C 
ATOM      5  C   UNL     1      -0.526  11.277  19.189  0.00  0.00    +0.000 C 
ATOM      6  C   UNL     1      -0.795  10.515  20.512  0.00  0.00    +0.000 C 
ATOM      7  C   UNL     1      -1.088  11.310  21.746  0.00  0.00    +0.000 C 
ATOM      8  N   UNL     1      -2.240  12.146  21.527  0.00  0.00    +0.000 N 
ATOM      9  C   UNL     1      -3.076  12.325  22.637  0.00  0.00    +0.000 C 
ATOM     10  O   UNL     1      -2.825  11.808  23.732  0.00  0.00    +0.000 OA
ATOM     11  C   UNL     1      -2.181  12.954  20.300  0.00  0.00    +0.000 C 
ATOM     12  C   UNL     1      -1.880  12.086  19.027  0.00  0.00    +0.000 C 
ATOM     13  C   UNL     1      -0.180  10.126  18.189  0.00  0.00    +0.000 C 
ENDROOT
BRANCH   9  14
ATOM     14  C   UNL     1      -4.315  13.131  22.561  0.00  0.00    +0.000 A 
ATOM     15  C   UNL     1      -4.269  14.449  23.003  0.00  0.00    +0.000 A 
ATOM     16  N   UNL     1      -5.358  15.258  23.000  0.00  0.00    +0.000 NA
ATOM     17  C   UNL     1      -6.499  14.679  22.565  0.00  0.00    +0.000 A 
ATOM     18  C   UNL     1      -6.553  13.356  22.154  0.00  0.00    +0.000 A 
ATOM     19  N   UNL     1      -5.469  12.549  22.141  0.00  0.00    +0.000 NA
ENDBRANCH   9  14
BRANCH   1  20
ATOM     20  C   UNL     1       1.709   9.058  19.568  0.00  0.00    +0.000 C 
BRANCH  20  24
ATOM     21  C   UNL     1       2.413   4.777  19.410  0.00  0.00    +0.000 A 
ATOM     22  C   UNL     1       1.871   5.336  20.576  0.00  0.00    +0.000 A 
ATOM     23  C   UNL     1       1.658   6.725  20.661  0.00  0.00    +0.000 A 
ATOM     24  C   UNL     1       1.988   7.560  19.584  0.00  0.00    +0.000 A 
ATOM     25  C   UNL     1       2.495   6.980  18.413  0.00  0.00    +0.000 A 
ATOM     26  C   UNL     1       2.706   5.599  18.326  0.00  0.00    +0.000 A 
BRANCH  21  28
ATOM     27  N   UNL     1       2.847   2.217  19.286  0.00  0.00    +0.000 NA
ATOM     28  C   UNL     1       2.656   3.356  19.330  0.00  0.00    +0.000 C 
ENDBRANCH  21  28
ENDBRANCH  20  24
ENDBRANCH   1  20
TORSDOF 4
ENDMDL
MODEL 6
REMARK VINA RESULT:      -7.5      3.189      6.208
REMARK  Name = 
REMARK  4 active torsions:
REMARK  status: ('A' for Active; 'I' for Inactive)
REMARK    1  A    between atoms: C_2  and  C_3
REMARK    2  A    between atoms: C_6  and  C_7
REMARK    3  A    between atoms: C_7  and  N_8
REMARK    4  A    between atoms: C_16  and  C_18
REMARK                            x       y       z     vdW  Elec       q    Type
REMARK                         _______ _______ _______ _____ _____    ______ ____
ROOT
ATOM      1  N   UNL     1       0.004  12.069  19.822  0.00  0.00    +0.000 NA
ATOM      2  C   UNL     1      -1.089  12.097  18.852  0.00  0.00    +0.000 C 
ATOM      3  C   UNL     1      -1.412  10.715  18.291  0.00  0.00    +0.000 C 
ATOM      4  C   UNL     1      -0.201   9.837  17.959  0.00  0.00    +0.000 C 
ATOM      5  C   UNL     1       1.116   9.965  18.791  0.00  0.00    +0.000 C 
ATOM      6  C   UNL     1       1.425   9.270  20.142  0.00  0.00    +0.000 C 
ATOM      7  C   UNL     1       1.343   7.777  20.212  0.00  0.00    +0.000 C 
ATOM      8  N   UNL     1       2.240   7.192  19.249  0.00  0.00    +0.000 N 
ATOM      9  C   UNL     1       2.860   6.000  19.648  0.00  0.00    +0.000 C 
ATOM     10  O   UNL     1       2.632   5.484  20.748  0.00  0.00    +0.000 OA
ATOM     11  C   UNL     1       2.109   7.732  17.888  0.00  0.00    +0.000 C 
ATOM     12  C   UNL     1       2.208   9.297  17.853  0.00  0.00    +0.000 C 
ATOM     13  C   UNL     1       1.218  11.483  19.149  0.00  0.00    +0.000 C 
ENDROOT
BRANCH   9  14
ATOM     14  C   UNL     1       3.831   5.296  18.782  0.00  0.00    +0.000 A 
ATOM     15  C   UNL     1       3.342   4.396  17.841  0.00  0.00    +0.000 A 
ATOM     16  N   UNL     1       4.154   3.683  17.023  0.00  0.00    +0.000 NA
ATOM     17  C   UNL     1       5.477   3.887  17.210  0.00  0.00    +0.000 A 
ATOM     18  C   UNL     1       5.968   4.760  18.169  0.00  0.00    +0.000 A 
ATOM     19  N   UNL     1       5.163   5.485  18.977  0.00  0.00    +0.000 NA
ENDBRANCH   9  14
BRANCH   1  20
ATOM     20  C   UNL     1      -0.457  11.467  21.100  0.00  0.00    +0.000 C 
BRANCH  20  24
ATOM     21  C   UNL     1      -2.268  14.242  23.904  0.00  0.00    +0.000 A 
ATOM     22  C   UNL     1      -1.034  14.567  23.324  0.00  0.00    +0.000 A 
ATOM     23  C   UNL     1      -0.414  13.671  22.431  0.00  0.00    +0.000 A 
ATOM     24  C   UNL     1      -1.023  12.448  22.118  0.00  0.00    +0.000 A 
ATOM     25  C   UNL     1      -2.274  12.155  22.679  0.00  0.00    +0.000 A 
ATOM     26  C   UNL     1      -2.892  13.044  23.566  0.00  0.00    +0.000 A 
BRANCH  21  28
ATOM     27  N   UNL     1      -3.393  15.887  25.573  0.00  0.00    +0.000 NA
ATOM     28  C   UNL     1      -2.894  15.147  24.839  0.00  0.00    +0.000 C 
ENDBRANCH  21  28
ENDBRANCH  20  24
ENDBRANCH   1  20
TORSDOF 4
ENDMDL
MODEL 7
REMARK VINA RESULT:      -7.4      2.196      8.558
REMARK  Name = 
REMARK  4 active torsions:
REMARK  status: ('A' for Active; 'I' for Inactive)
REMARK    1  A    between atoms: C_2  and  C_3
REMARK    2  A    between atoms: C_6  and  C_7
REMARK    3  A    between atoms: C_7  and  N_8
REMARK    4  A    between atoms: C_16  and  C_18
REMARK                            x       y       z     vdW  Elec       q    Type
REMARK                         _______ _______ _______ _____ _____    ______ ____
ROOT
ATOM      1  N   UNL     1       3.445   4.404  19.134  0.00  0.00    +0.000 NA
ATOM      2  C   UNL     1       2.521   3.449  19.741  0.00  0.00    +0.000 C 
ATOM      3  C   UNL     1       1.127   4.033  19.952  0.00  0.00    +0.000 C 
ATOM      4  C   UNL     1       1.085   5.475  20.468  0.00  0.00    +0.000 C 
ATOM      5  C   UNL     1       2.215   6.483  20.080  0.00  0.00    +0.000 C 
ATOM      6  C   UNL     1       2.297   7.322  18.779  0.00  0.00    +0.000 C 
ATOM      7  C   UNL     1       1.157   8.232  18.445  0.00  0.00    +0.000 C 
ATOM      8  N   UNL     1       0.954   9.175  19.514  0.00  0.00    +0.000 N 
ATOM      9  C   UNL     1       0.554  10.459  19.120  0.00  0.00    +0.000 C 
ATOM     10  O   UNL     1       0.373  10.748  17.931  0.00  0.00    +0.000 OA
ATOM     11  C   UNL     1       0.858   8.569  20.850  0.00  0.00    +0.000 C 
ATOM     12  C   UNL     1       2.073   7.628  21.168  0.00  0.00    +0.000 C 
ATOM     13  C   UNL     1       3.518   5.620  20.020  0.00  0.00    +0.000 C 
ENDROOT
BRANCH   9  14
ATOM     14  C   UNL     1       0.336  11.546  20.100  0.00  0.00    +0.000 A 
ATOM     15  C   UNL     1       1.436  12.291  20.510  0.00  0.00    +0.000 A 
ATOM     16  N   UNL     1       1.341  13.288  21.425  0.00  0.00    +0.000 NA
ATOM     17  C   UNL     1       0.104  13.483  21.933  0.00  0.00    +0.000 A 
ATOM     18  C   UNL     1      -0.988  12.720  21.548  0.00  0.00    +0.000 A 
ATOM     19  N   UNL     1      -0.903  11.735  20.626  0.00  0.00    +0.000 NA
ENDBRANCH   9  14
BRANCH   1  20
ATOM     20  C   UNL     1       3.118   4.594  17.697  0.00  0.00    +0.000 C 
BRANCH  20  24
ATOM     21  C   UNL     1       6.424   5.154  14.939  0.00  0.00    +0.000 A 
ATOM     22  C   UNL     1       5.993   3.852  15.232  0.00  0.00    +0.000 A 
ATOM     23  C   UNL     1       4.940   3.644  16.143  0.00  0.00    +0.000 A 
ATOM     24  C   UNL     1       4.316   4.734  16.767  0.00  0.00    +0.000 A 
ATOM     25  C   UNL     1       4.736   6.030  16.436  0.00  0.00    +0.000 A 
ATOM     26  C   UNL     1       5.781   6.239  15.529  0.00  0.00    +0.000 A 
BRANCH  21  28
ATOM     27  N   UNL     1       8.400   5.563  13.301  0.00  0.00    +0.000 NA
ATOM     28  C   UNL     1       7.520   5.370  14.025  0.00  0.00    +0.000 C 
ENDBRANCH  21  28
ENDBRANCH  20  24
ENDBRANCH   1  20
TORSDOF 4
ENDMDL
MODEL 8
REMARK VINA RESULT:      -7.1      5.041     12.216
REMARK  Name = 
REMARK  4 active torsions:
REMARK  status: ('A' for Active; 'I' for Inactive)
REMARK    1  A    between atoms: C_2  and  C_3
REMARK    2  A    between atoms: C_6  and  C_7
REMARK    3  A    between atoms: C_7  and  N_8
REMARK    4  A    between atoms: C_16  and  C_18
REMARK                            x       y       z     vdW  Elec       q    Type
REMARK                         _______ _______ _______ _____ _____    ______ ____
ROOT
ATOM      1  N   UNL     1       0.417  11.443  19.045  0.00  0.00    +0.000 NA
ATOM      2  C   UNL     1       1.301  12.604  18.971  0.00  0.00    +0.000 C 
ATOM      3  C   UNL     1       1.063  13.597  20.105  0.00  0.00    +0.000 C 
ATOM      4  C   UNL     1      -0.405  13.853  20.461  0.00  0.00    +0.000 C 
ATOM      5  C   UNL     1      -1.467  12.719  20.288  0.00  0.00    +0.000 C 
ATOM      6  C   UNL     1      -1.783  11.589  21.302  0.00  0.00    +0.000 C 
ATOM      7  C   UNL     1      -2.188  11.969  22.691  0.00  0.00    +0.000 C 
ATOM      8  N   UNL     1      -3.361  12.804  22.648  0.00  0.00    +0.000 N 
ATOM      9  C   UNL     1      -4.272  12.620  23.696  0.00  0.00    +0.000 C 
ATOM     10  O   UNL     1      -4.066  11.805  24.603  0.00  0.00    +0.000 OA
ATOM     11  C   UNL     1      -3.263  13.943  21.724  0.00  0.00    +0.000 C 
ATOM     12  C   UNL     1      -2.844  13.506  20.277  0.00  0.00    +0.000 C 
ATOM     13  C   UNL     1      -1.008  11.930  19.019  0.00  0.00    +0.000 C 
ENDROOT
BRANCH   9  14
ATOM     14  C   UNL     1      -5.539  13.381  23.774  0.00  0.00    +0.000 A 
ATOM     15  C   UNL     1      -6.683  12.712  24.197  0.00  0.00    +0.000 A 
ATOM     16  N   UNL     1      -7.895  13.315  24.273  0.00  0.00    +0.000 NA
ATOM     17  C   UNL     1      -7.916  14.608  23.877  0.00  0.00    +0.000 A 
ATOM     18  C   UNL     1      -6.784  15.267  23.425  0.00  0.00    +0.000 A 
ATOM     19  N   UNL     1      -5.570  14.675  23.361  0.00  0.00    +0.000 NA
ENDBRANCH   9  14
BRANCH   1  20
ATOM     20  C   UNL     1       0.839  10.545  20.152  0.00  0.00    +0.000 C 
BRANCH  20  24
ATOM     21  C   UNL     1       2.448   6.645  19.131  0.00  0.00    +0.000 A 
ATOM     22  C   UNL     1       2.558   7.692  18.204  0.00  0.00    +0.000 A 
ATOM     23  C   UNL     1       2.021   8.958  18.502  0.00  0.00    +0.000 A 
ATOM     24  C   UNL     1       1.370   9.184  19.723  0.00  0.00    +0.000 A 
ATOM     25  C   UNL     1       1.301   8.136  20.653  0.00  0.00    +0.000 A 
ATOM     26  C   UNL     1       1.835   6.876  20.359  0.00  0.00    +0.000 A 
BRANCH  21  28
ATOM     27  N   UNL     1       3.378   4.283  18.569  0.00  0.00    +0.000 NA
ATOM     28  C   UNL     1       2.976   5.338  18.818  0.00  0.00    +0.000 C 
ENDBRANCH  21  28
ENDBRANCH  20  24
ENDBRANCH   1  20
TORSDOF 4
ENDMDL
MODEL 9
REMARK VINA RESULT:      -7.1      2.911      7.619
REMARK  Name = 
REMARK  4 active torsions:
REMARK  status: ('A' for Active; 'I' for Inactive)
REMARK    1  A    between atoms: C_2  and  C_3
REMARK    2  A    between atoms: C_6  and  C_7
REMARK    3  A    between atoms: C_7  and  N_8
REMARK    4  A    between atoms: C_16  and  C_18
REMARK                            x       y       z     vdW  Elec       q    Type
REMARK                         _______ _______ _______ _____ _____    ______ ____
ROOT
ATOM      1  N   UNL     1       4.824   3.636  18.521  0.00  0.00    +0.000 NA
ATOM      2  C   UNL     1       3.890   2.600  18.086  0.00  0.00    +0.000 C 
ATOM      3  C   UNL     1       2.580   3.176  17.557  0.00  0.00    +0.000 C 
ATOM      4  C   UNL     1       2.004   4.351  18.354  0.00  0.00    +0.000 C 
ATOM      5  C   UNL     1       2.959   5.346  19.092  0.00  0.00    +0.000 C 
ATOM      6  C   UNL     1       3.673   6.573  18.468  0.00  0.00    +0.000 C 
ATOM      7  C   UNL     1       2.837   7.624  17.807  0.00  0.00    +0.000 C 
ATOM      8  N   UNL     1       1.883   8.153  18.745  0.00  0.00    +0.000 N 
ATOM      9  C   UNL     1       1.602   9.520  18.616  0.00  0.00    +0.000 C 
ATOM     10  O   UNL     1       2.131  10.213  17.739  0.00  0.00    +0.000 OA
ATOM     11  C   UNL     1       1.100   7.133  19.458  0.00  0.00    +0.000 C 
ATOM     12  C   UNL     1       2.009   6.054  20.145  0.00  0.00    +0.000 C 
ATOM     13  C   UNL     1       4.152   4.463  19.585  0.00  0.00    +0.000 C 
ENDROOT
BRANCH   9  14
ATOM     14  C   UNL     1       0.666  10.216  19.526  0.00  0.00    +0.000 A 
ATOM     15  C   UNL     1      -0.500  10.750  18.988  0.00  0.00    +0.000 A 
ATOM     16  N   UNL     1      -1.404  11.429  19.736  0.00  0.00    +0.000 NA
ATOM     17  C   UNL     1      -1.074  11.577  21.038  0.00  0.00    +0.000 A 
ATOM     18  C   UNL     1       0.103  11.073  21.570  0.00  0.00    +0.000 A 
ATOM     19  N   UNL     1       1.001  10.382  20.833  0.00  0.00    +0.000 NA
ENDBRANCH   9  14
BRANCH   1  20
ATOM     20  C   UNL     1       5.405   4.332  17.344  0.00  0.00    +0.000 C 
BRANCH  20  24
ATOM     21  C   UNL     1       7.832   7.866  18.028  0.00  0.00    +0.000 A 
ATOM     22  C   UNL     1       8.035   6.734  18.830  0.00  0.00    +0.000 A 
ATOM     23  C   UNL     1       7.242   5.585  18.644  0.00  0.00    +0.000 A 
ATOM     24  C   UNL     1       6.244   5.563  17.661  0.00  0.00    +0.000 A 
ATOM     25  C   UNL     1       6.078   6.691  16.845  0.00  0.00    +0.000 A 
ATOM     26  C   UNL     1       6.866   7.834  17.027  0.00  0.00    +0.000 A 
BRANCH  21  28
ATOM     27  N   UNL     1       9.254  10.014  18.378  0.00  0.00    +0.000 NA
ATOM     28  C   UNL     1       8.625   9.054  18.233  0.00  0.00    +0.000 C 
ENDBRANCH  21  28
ENDBRANCH  20  24
ENDBRANCH   1  20
TORSDOF 4
ENDMDL
