MODEL 1
REMARK VINA RESULT:      -8.2      0.000      0.000
REMARK  Name = 
REMARK  4 active torsions:
REMARK  status: ('A' for Active; 'I' for Inactive)
REMARK    1  A    between atoms: C_1  and  N_2
REMARK    2  A    between atoms: C_6  and  C_7
REMARK    3  A    between atoms: N_11  and  C_12
REMARK    4  A    between atoms: C_12  and  C_13
REMARK                            x       y       z     vdW  Elec       q    Type
REMARK                         _______ _______ _______ _____ _____    ______ ____
ROOT
ATOM      1  C   UNL     1       6.607   5.523  16.781  0.00  0.00    +0.000 A 
ATOM      2  N   UNL     1       7.216   4.854  15.818  0.00  0.00    +0.000 NA
ATOM      3  C   UNL     1       6.308   3.960  15.333  0.00  0.00    +0.000 A 
ATOM      4  C   UNL     1       5.149   4.026  16.036  0.00  0.00    +0.000 A 
ATOM      5  N   UNL     1       5.349   4.974  17.014  0.00  0.00    +0.000 N 
ENDROOT
BRANCH   1  11
ATOM      6  C   UNL     1       8.056   5.457  19.490  0.00  0.00    +0.000 C 
ATOM      7  N   UNL     1       7.882   6.606  18.621  0.00  0.00    +0.000 N 
ATOM      8  C   UNL     1       8.424   7.839  18.866  0.00  0.00    +0.000 A 
ATOM      9  C   UNL     1       8.051   8.604  17.792  0.00  0.00    +0.000 A 
ATOM     10  N   UNL     1       7.299   7.873  16.904  0.00  0.00    +0.000 NA
ATOM     11  C   UNL     1       7.216   6.658  17.418  0.00  0.00    +0.000 A 
ENDBRANCH   1  11
BRANCH   5  12
ATOM     12  C   UNL     1       4.454   5.257  18.142  0.00  0.00    +0.000 C 
BRANCH  12  13
ATOM     13  C   UNL     1       2.961   5.618  17.821  0.00  0.00    +0.000 C 
ATOM     14  C   UNL     1       2.581   7.065  18.201  0.00  0.00    +0.000 C 
ATOM     15  C   UNL     1       2.411   7.283  19.700  0.00  0.00    +0.000 C 
ATOM     16  C   UNL     1       1.657   6.166  20.421  0.00  0.00    +0.000 C 
ATOM     17  N   UNL     1       2.030   4.817  19.968  0.00  0.00    +0.000 NA
ATOM     18  C   UNL     1       1.297   3.811  20.751  0.00  0.00    +0.000 C 
ATOM     19  C   UNL     1       1.535   2.384  20.269  0.00  0.00    +0.000 C 
ATOM     20  C   UNL     1       1.200   2.254  18.792  0.00  0.00    +0.000 C 
ATOM     21  C   UNL     1       2.091   3.217  18.020  0.00  0.00    +0.000 C 
ATOM     22  C   UNL     1       1.923   4.671  18.504  0.00  0.00    +0.000 C 
ENDBRANCH  12  13
ENDBRANCH   5  12
TORSDOF 3
ENDMDL
MODEL 2
REMARK VINA RESULT:      -7.4      1.156      1.772
REMARK  Name = 
REMARK  4 active torsions:
REMARK  status: ('A' for Active; 'I' for Inactive)
REMARK    1  A    between atoms: C_1  and  N_2
REMARK    2  A    between atoms: C_6  and  C_7
REMARK    3  A    between atoms: N_11  and  C_12
REMARK    4  A    between atoms: C_12  and  C_13
REMARK                            x       y       z     vdW  Elec       q    Type
REMARK                         _______ _______ _______ _____ _____    ______ ____
ROOT
ATOM      1  C   UNL     1       6.851   4.792  16.229  0.00  0.00    +0.000 A 
ATOM      2  N   UNL     1       7.545   4.821  15.106  0.00  0.00    +0.000 NA
ATOM      3  C   UNL     1       6.676   4.503  14.105  0.00  0.00    +0.000 A 
ATOM      4  C   UNL     1       5.450   4.212  14.609  0.00  0.00    +0.000 A 
ATOM      5  N   UNL     1       5.564   4.323  15.978  0.00  0.00    +0.000 N 
ENDROOT
BRANCH   1  11
ATOM      6  C   UNL     1       7.191   7.725  17.082  0.00  0.00    +0.000 C 
ATOM      7  N   UNL     1       7.535   6.545  17.854  0.00  0.00    +0.000 N 
ATOM      8  C   UNL     1       8.004   6.583  19.141  0.00  0.00    +0.000 A 
ATOM      9  C   UNL     1       8.159   5.269  19.495  0.00  0.00    +0.000 A 
ATOM     10  N   UNL     1       7.799   4.435  18.464  0.00  0.00    +0.000 NA
ATOM     11  C   UNL     1       7.412   5.227  17.479  0.00  0.00    +0.000 A 
ENDBRANCH   1  11
BRANCH   5  12
ATOM     12  C   UNL     1       4.561   3.914  16.966  0.00  0.00    +0.000 C 
BRANCH  12  13
ATOM     13  C   UNL     1       3.313   4.843  17.174  0.00  0.00    +0.000 C 
ATOM     14  C   UNL     1       3.681   6.291  17.563  0.00  0.00    +0.000 C 
ATOM     15  C   UNL     1       4.151   6.439  19.006  0.00  0.00    +0.000 C 
ATOM     16  C   UNL     1       3.334   5.644  20.023  0.00  0.00    +0.000 C 
ATOM     17  N   UNL     1       2.972   4.295  19.562  0.00  0.00    +0.000 NA
ATOM     18  C   UNL     1       2.237   3.589  20.623  0.00  0.00    +0.000 C 
ATOM     19  C   UNL     1       1.720   2.222  20.187  0.00  0.00    +0.000 C 
ATOM     20  C   UNL     1       0.861   2.346  18.938  0.00  0.00    +0.000 C 
ATOM     21  C   UNL     1       1.718   2.951  17.835  0.00  0.00    +0.000 C 
ATOM     22  C   UNL     1       2.307   4.316  18.246  0.00  0.00    +0.000 C 
ENDBRANCH  12  13
ENDBRANCH   5  12
TORSDOF 3
ENDMDL
MODEL 3
REMARK VINA RESULT:      -6.8      1.129      1.196
REMARK  Name = 
REMARK  4 active torsions:
REMARK  status: ('A' for Active; 'I' for Inactive)
REMARK    1  A    between atoms: C_1  and  N_2
REMARK    2  A    between atoms: C_6  and  C_7
REMARK    3  A    between atoms: N_11  and  C_12
REMARK    4  A    between atoms: C_12  and  C_13
REMARK                            x       y       z     vdW  Elec       q    Type
REMARK                         _______ _______ _______ _____ _____    ______ ____
ROOT
ATOM      1  C   UNL     1       6.882   5.983  16.736  0.00  0.00    +0.000 A 
ATOM      2  N   UNL     1       7.523   5.348  15.771  0.00  0.00    +0.000 NA
ATOM      3  C   UNL     1       6.620   4.500  15.200  0.00  0.00    +0.000 A 
ATOM      4  C   UNL     1       5.431   4.558  15.850  0.00  0.00    +0.000 A 
ATOM      5  N   UNL     1       5.603   5.453  16.883  0.00  0.00    +0.000 N 
ENDROOT
BRANCH   1  11
ATOM      6  C   UNL     1       8.226   5.745  19.490  0.00  0.00    +0.000 C 
ATOM      7  N   UNL     1       8.103   6.942  18.679  0.00  0.00    +0.000 N 
ATOM      8  C   UNL     1       8.654   8.151  19.011  0.00  0.00    +0.000 A 
ATOM      9  C   UNL     1       8.333   8.979  17.969  0.00  0.00    +0.000 A 
ATOM     10  N   UNL     1       7.605   8.311  17.014  0.00  0.00    +0.000 NA
ATOM     11  C   UNL     1       7.484   7.071  17.456  0.00  0.00    +0.000 A 
ENDBRANCH   1  11
BRANCH   5  12
ATOM     12  C   UNL     1       4.662   5.701  17.980  0.00  0.00    +0.000 C 
BRANCH  12  13
ATOM     13  C   UNL     1       3.183   5.206  17.805  0.00  0.00    +0.000 C 
ATOM     14  C   UNL     1       2.132   6.207  18.329  0.00  0.00    +0.000 C 
ATOM     15  C   UNL     1       2.035   6.257  19.849  0.00  0.00    +0.000 C 
ATOM     16  C   UNL     1       2.078   4.890  20.532  0.00  0.00    +0.000 C 
ATOM     17  N   UNL     1       3.064   3.970  19.944  0.00  0.00    +0.000 NA
ATOM     18  C   UNL     1       3.072   2.706  20.696  0.00  0.00    +0.000 C 
ATOM     19  C   UNL     1       3.984   1.648  20.083  0.00  0.00    +0.000 C 
ATOM     20  C   UNL     1       3.613   1.399  18.629  0.00  0.00    +0.000 C 
ATOM     21  C   UNL     1       3.760   2.711  17.873  0.00  0.00    +0.000 C 
ATOM     22  C   UNL     1       2.894   3.830  18.486  0.00  0.00    +0.000 C 
ENDBRANCH  12  13
ENDBRANCH   5  12
TORSDOF 3
ENDMDL
MODEL 4
REMARK VINA RESULT:      -6.5      1.166      3.066
REMARK  Name = 
REMARK  4 active torsions:
REMARK  status: ('A' for Active; 'I' for Inactive)
REMARK    1  A    between atoms: C_1  and  N_2
REMARK    2  A    between atoms: C_6  and  C_7
REMARK    3  A    between atoms: N_11  and  C_12
REMARK    4  A    between atoms: C_12  and  C_13
REMARK                            x       y       z     vdW  Elec       q    Type
REMARK                         _______ _______ _______ _____ _____    ______ ____
ROOT
ATOM      1  C   UNL     1       6.705   5.321  17.254  0.00  0.00    +0.000 A 
ATOM      2  N   UNL     1       7.730   6.131  17.447  0.00  0.00    +0.000 NA
ATOM      3  C   UNL     1       7.873   6.261  18.797  0.00  0.00    +0.000 A 
ATOM      4  C   UNL     1       6.896   5.582  19.449  0.00  0.00    +0.000 A 
ATOM      5  N   UNL     1       6.095   5.031  18.472  0.00  0.00    +0.000 N 
ENDROOT
BRANCH   1  11
ATOM      6  C   UNL     1       5.023   6.857  15.189  0.00  0.00    +0.000 C 
ATOM      7  N   UNL     1       5.625   5.546  15.025  0.00  0.00    +0.000 N 
ATOM      8  C   UNL     1       5.584   4.827  13.861  0.00  0.00    +0.000 A 
ATOM      9  C   UNL     1       6.295   3.687  14.129  0.00  0.00    +0.000 A 
ATOM     10  N   UNL     1       6.766   3.693  15.420  0.00  0.00    +0.000 NA
ATOM     11  C   UNL     1       6.359   4.835  15.946  0.00  0.00    +0.000 A 
ENDBRANCH   1  11
BRANCH   5  12
ATOM     12  C   UNL     1       4.801   4.374  18.681  0.00  0.00    +0.000 C 
BRANCH  12  13
ATOM     13  C   UNL     1       3.537   5.009  18.002  0.00  0.00    +0.000 C 
ATOM     14  C   UNL     1       3.424   6.534  18.213  0.00  0.00    +0.000 C 
ATOM     15  C   UNL     1       2.985   6.930  19.618  0.00  0.00    +0.000 C 
ATOM     16  C   UNL     1       1.857   6.075  20.193  0.00  0.00    +0.000 C 
ATOM     17  N   UNL     1       2.002   4.639  19.905  0.00  0.00    +0.000 NA
ATOM     18  C   UNL     1       0.905   3.893  20.541  0.00  0.00    +0.000 C 
ATOM     19  C   UNL     1       0.910   2.407  20.196  0.00  0.00    +0.000 C 
ATOM     20  C   UNL     1       0.886   2.206  18.690  0.00  0.00    +0.000 C 
ATOM     21  C   UNL     1       2.119   2.878  18.104  0.00  0.00    +0.000 C 
ATOM     22  C   UNL     1       2.187   4.376  18.466  0.00  0.00    +0.000 C 
ENDBRANCH  12  13
ENDBRANCH   5  12
TORSDOF 3
ENDMDL
MODEL 5
REMARK VINA RESULT:      -6.4      1.594      6.306
REMARK  Name = 
REMARK  4 active torsions:
REMARK  status: ('A' for Active; 'I' for Inactive)
REMARK    1  A    between atoms: C_1  and  N_2
REMARK    2  A    between atoms: C_6  and  C_7
REMARK    3  A    between atoms: N_11  and  C_12
REMARK    4  A    between atoms: C_12  and  C_13
REMARK                            x       y       z     vdW  Elec       q    Type
REMARK                         _______ _______ _______ _____ _____    ______ ____
ROOT
ATOM      1  C   UNL     1       2.018   5.489  19.490  0.00  0.00    +0.000 A 
ATOM      2  N   UNL     1       1.469   6.193  20.463  0.00  0.00    +0.000 NA
ATOM      3  C   UNL     1       1.839   7.489  20.260  0.00  0.00    +0.000 A 
ATOM      4  C   UNL     1       2.673   7.587  19.194  0.00  0.00    +0.000 A 
ATOM      5  N   UNL     1       2.855   6.303  18.731  0.00  0.00    +0.000 N 
ENDROOT
BRANCH   1  11
ATOM      6  C   UNL     1       2.482   3.278  21.574  0.00  0.00    +0.000 C 
ATOM      7  N   UNL     1       1.908   3.124  20.250  0.00  0.00    +0.000 N 
ATOM      8  C   UNL     1       1.410   1.943  19.766  0.00  0.00    +0.000 A 
ATOM      9  C   UNL     1       0.939   2.250  18.516  0.00  0.00    +0.000 A 
ATOM     10  N   UNL     1       1.136   3.579  18.228  0.00  0.00    +0.000 NA
ATOM     11  C   UNL     1       1.715   4.097  19.297  0.00  0.00    +0.000 A 
ENDBRANCH   1  11
BRANCH   5  12
ATOM     12  C   UNL     1       3.828   5.876  17.719  0.00  0.00    +0.000 C 
BRANCH  12  13
ATOM     13  C   UNL     1       4.673   4.587  18.010  0.00  0.00    +0.000 C 
ATOM     14  C   UNL     1       5.481   4.663  19.323  0.00  0.00    +0.000 C 
ATOM     15  C   UNL     1       6.708   5.562  19.238  0.00  0.00    +0.000 C 
ATOM     16  C   UNL     1       7.513   5.416  17.947  0.00  0.00    +0.000 C 
ATOM     17  N   UNL     1       6.676   5.294  16.744  0.00  0.00    +0.000 NA
ATOM     18  C   UNL     1       7.533   5.213  15.551  0.00  0.00    +0.000 C 
ATOM     19  C   UNL     1       6.750   4.965  14.265  0.00  0.00    +0.000 C 
ATOM     20  C   UNL     1       5.895   3.715  14.390  0.00  0.00    +0.000 C 
ATOM     21  C   UNL     1       4.932   3.916  15.552  0.00  0.00    +0.000 C 
ATOM     22  C   UNL     1       5.674   4.219  16.869  0.00  0.00    +0.000 C 
ENDBRANCH  12  13
ENDBRANCH   5  12
TORSDOF 3
ENDMDL
MODEL 6
REMARK VINA RESULT:      -6.3      1.271      2.522
REMARK  Name = 
REMARK  4 active torsions:
REMARK  status: ('A' for Active; 'I' for Inactive)
REMARK    1  A    between atoms: C_1  and  N_2
REMARK    2  A    between atoms: C_6  and  C_7
REMARK    3  A    between atoms: N_11  and  C_12
REMARK    4  A    between atoms: C_12  and  C_13
REMARK                            x       y       z     vdW  Elec       q    Type
REMARK                         _______ _______ _______ _____ _____    ______ ____
ROOT
ATOM      1  C   UNL     1       6.504   5.473  16.020  0.00  0.00    +0.000 A 
ATOM      2  N   UNL     1       7.204   5.058  14.979  0.00  0.00    +0.000 NA
ATOM      3  C   UNL     1       6.358   4.311  14.215  0.00  0.00    +0.000 A 
ATOM      4  C   UNL     1       5.143   4.205  14.810  0.00  0.00    +0.000 A 
ATOM      5  N   UNL     1       5.241   4.886  16.004  0.00  0.00    +0.000 N 
ENDROOT
BRANCH   1  11
ATOM      6  C   UNL     1       8.007   4.735  18.597  0.00  0.00    +0.000 C 
ATOM      7  N   UNL     1       7.727   6.070  18.101  0.00  0.00    +0.000 N 
ATOM      8  C   UNL     1       8.176   7.218  18.698  0.00  0.00    +0.000 A 
ATOM      9  C   UNL     1       7.723   8.230  17.894  0.00  0.00    +0.000 A 
ATOM     10  N   UNL     1       7.013   7.733  16.828  0.00  0.00    +0.000 NA
ATOM     11  C   UNL     1       7.035   6.418  16.963  0.00  0.00    +0.000 A 
ENDBRANCH   1  11
BRANCH   5  12
ATOM     12  C   UNL     1       4.250   4.888  17.085  0.00  0.00    +0.000 C 
BRANCH  12  13
ATOM     13  C   UNL     1       4.554   4.027  18.361  0.00  0.00    +0.000 C 
ATOM     14  C   UNL     1       4.758   2.527  18.059  0.00  0.00    +0.000 C 
ATOM     15  C   UNL     1       3.465   1.781  17.749  0.00  0.00    +0.000 C 
ATOM     16  C   UNL     1       2.291   2.142  18.658  0.00  0.00    +0.000 C 
ATOM     17  N   UNL     1       2.192   3.582  18.947  0.00  0.00    +0.000 NA
ATOM     18  C   UNL     1       1.008   3.839  19.780  0.00  0.00    +0.000 C 
ATOM     19  C   UNL     1       0.892   5.293  20.226  0.00  0.00    +0.000 C 
ATOM     20  C   UNL     1       2.155   5.735  20.948  0.00  0.00    +0.000 C 
ATOM     21  C   UNL     1       3.327   5.579  19.988  0.00  0.00    +0.000 C 
ATOM     22  C   UNL     1       3.457   4.133  19.468  0.00  0.00    +0.000 C 
ENDBRANCH  12  13
ENDBRANCH   5  12
TORSDOF 3
ENDMDL
MODEL 7
REMARK VINA RESULT:      -6.2      1.407      2.881
REMARK  Name = 
REMARK  4 active torsions:
REMARK  status: ('A' for Active; 'I' for Inactive)
REMARK    1  A    between atoms: C_1  and  N_2
REMARK    2  A    between atoms: C_6  and  C_7
REMARK    3  A    between atoms: N_11  and  C_12
REMARK    4  A    between atoms: C_12  and  C_13
REMARK                            x       y       z     vdW  Elec       q    Type
REMARK                         _______ _______ _______ _____ _____    ______ ____
ROOT
ATOM      1  C   UNL     1       6.668   4.892  16.328  0.00  0.00    +0.000 A 
ATOM      2  N   UNL     1       7.347   4.632  15.225  0.00  0.00    +0.000 NA
ATOM      3  C   UNL     1       6.424   4.436  14.240  0.00  0.00    +0.000 A 
ATOM      4  C   UNL     1       5.166   4.511  14.741  0.00  0.00    +0.000 A 
ATOM      5  N   UNL     1       5.305   4.733  16.094  0.00  0.00    +0.000 N 
ENDROOT
BRANCH   1  11
ATOM      6  C   UNL     1       7.206   7.808  17.140  0.00  0.00    +0.000 C 
ATOM      7  N   UNL     1       7.533   6.615  17.900  0.00  0.00    +0.000 N 
ATOM      8  C   UNL     1       8.075   6.634  19.157  0.00  0.00    +0.000 A 
ATOM      9  C   UNL     1       8.184   5.315  19.511  0.00  0.00    +0.000 A 
ATOM     10  N   UNL     1       7.723   4.496  18.507  0.00  0.00    +0.000 NA
ATOM     11  C   UNL     1       7.321   5.303  17.541  0.00  0.00    +0.000 A 
ENDBRANCH   1  11
BRANCH   5  12
ATOM     12  C   UNL     1       4.232   4.690  17.093  0.00  0.00    +0.000 C 
BRANCH  12  13
ATOM     13  C   UNL     1       4.342   3.627  18.243  0.00  0.00    +0.000 C 
ATOM     14  C   UNL     1       4.176   2.172  17.756  0.00  0.00    +0.000 C 
ATOM     15  C   UNL     1       2.738   1.797  17.418  0.00  0.00    +0.000 C 
ATOM     16  C   UNL     1       1.699   2.306  18.417  0.00  0.00    +0.000 C 
ATOM     17  N   UNL     1       1.953   3.680  18.879  0.00  0.00    +0.000 NA
ATOM     18  C   UNL     1       0.878   4.102  19.790  0.00  0.00    +0.000 C 
ATOM     19  C   UNL     1       1.121   5.474  20.411  0.00  0.00    +0.000 C 
ATOM     20  C   UNL     1       2.464   5.510  21.122  0.00  0.00    +0.000 C 
ATOM     21  C   UNL     1       3.548   5.205  20.098  0.00  0.00    +0.000 C 
ATOM     22  C   UNL     1       3.321   3.847  19.404  0.00  0.00    +0.000 C 
ENDBRANCH  12  13
ENDBRANCH   5  12
TORSDOF 3
ENDMDL
MODEL 8
REMARK VINA RESULT:      -6.2      1.447      6.304
REMARK  Name = 
REMARK  4 active torsions:
REMARK  status: ('A' for Active; 'I' for Inactive)
REMARK    1  A    between atoms: C_1  and  N_2
REMARK    2  A    between atoms: C_6  and  C_7
REMARK    3  A    between atoms: N_11  and  C_12
REMARK    4  A    between atoms: C_12  and  C_13
REMARK                            x       y       z     vdW  Elec       q    Type
REMARK                         _______ _______ _______ _____ _____    ______ ____
ROOT
ATOM      1  C   UNL     1       2.478   6.229  19.199  0.00  0.00    +0.000 A 
ATOM      2  N   UNL     1       2.039   7.375  19.688  0.00  0.00    +0.000 NA
ATOM      3  C   UNL     1       2.296   8.324  18.743  0.00  0.00    +0.000 A 
ATOM      4  C   UNL     1       2.954   7.781  17.687  0.00  0.00    +0.000 A 
ATOM      5  N   UNL     1       3.142   6.452  17.995  0.00  0.00    +0.000 N 
ENDROOT
BRANCH   1  11
ATOM      6  C   UNL     1       1.114   3.789  17.920  0.00  0.00    +0.000 C 
ATOM      7  N   UNL     1       1.644   3.887  19.268  0.00  0.00    +0.000 N 
ATOM      8  C   UNL     1       1.674   2.845  20.155  0.00  0.00    +0.000 A 
ATOM      9  C   UNL     1       2.280   3.355  21.273  0.00  0.00    +0.000 A 
ATOM     10  N   UNL     1       2.618   4.674  21.091  0.00  0.00    +0.000 NA
ATOM     11  C   UNL     1       2.235   4.978  19.863  0.00  0.00    +0.000 A 
ENDBRANCH   1  11
BRANCH   5  12
ATOM     12  C   UNL     1       3.976   5.501  17.254  0.00  0.00    +0.000 C 
BRANCH  12  13
ATOM     13  C   UNL     1       5.051   6.080  16.267  0.00  0.00    +0.000 C 
ATOM     14  C   UNL     1       5.088   5.358  14.903  0.00  0.00    +0.000 C 
ATOM     15  C   UNL     1       5.739   3.981  14.954  0.00  0.00    +0.000 C 
ATOM     16  C   UNL     1       7.010   3.911  15.799  0.00  0.00    +0.000 C 
ATOM     17  N   UNL     1       6.921   4.668  17.058  0.00  0.00    +0.000 NA
ATOM     18  C   UNL     1       8.165   4.499  17.826  0.00  0.00    +0.000 C 
ATOM     19  C   UNL     1       8.206   5.345  19.094  0.00  0.00    +0.000 C 
ATOM     20  C   UNL     1       7.978   6.813  18.768  0.00  0.00    +0.000 C 
ATOM     21  C   UNL     1       6.615   6.942  18.103  0.00  0.00    +0.000 C 
ATOM     22  C   UNL     1       6.504   6.065  16.840  0.00  0.00    +0.000 C 
ENDBRANCH  12  13
ENDBRANCH   5  12
TORSDOF 3
ENDMDL
MODEL 9
REMARK VINA RESULT:      -6.1      1.837      3.550
REMARK  Name = 
REMARK  4 active torsions:
REMARK  status: ('A' for Active; 'I' for Inactive)
REMARK    1  A    between atoms: C_1  and  N_2
REMARK    2  A    between atoms: C_6  and  C_7
REMARK    3  A    between atoms: N_11  and  C_12
REMARK    4  A    between atoms: C_12  and  C_13
REMARK                            x       y       z     vdW  Elec       q    Type
REMARK                         _______ _______ _______ _____ _____    ______ ____
ROOT
ATOM      1  C   UNL     1       6.682   5.200  17.425  0.00  0.00    +0.000 A 
ATOM      2  N   UNL     1       7.882   5.665  17.720  0.00  0.00    +0.000 NA
ATOM      3  C   UNL     1       7.929   5.783  19.078  0.00  0.00    +0.000 A 
ATOM      4  C   UNL     1       6.734   5.451  19.629  0.00  0.00    +0.000 A 
ATOM      5  N   UNL     1       5.900   5.143  18.576  0.00  0.00    +0.000 N 
ENDROOT
BRANCH   1  11
ATOM      6  C   UNL     1       4.935   6.845  15.504  0.00  0.00    +0.000 C 
ATOM      7  N   UNL     1       5.565   5.566  15.233  0.00  0.00    +0.000 N 
ATOM      8  C   UNL     1       5.525   4.936  14.018  0.00  0.00    +0.000 A 
ATOM      9  C   UNL     1       6.266   3.797  14.191  0.00  0.00    +0.000 A 
ATOM     10  N   UNL     1       6.756   3.717  15.472  0.00  0.00    +0.000 NA
ATOM     11  C   UNL     1       6.329   4.805  16.089  0.00  0.00    +0.000 A 
ENDBRANCH   1  11
BRANCH   5  12
ATOM     12  C   UNL     1       4.453   4.916  18.655  0.00  0.00    +0.000 C 
BRANCH  12  13
ATOM     13  C   UNL     1       3.903   3.517  18.205  0.00  0.00    +0.000 C 
ATOM     14  C   UNL     1       3.023   3.580  16.939  0.00  0.00    +0.000 C 
ATOM     15  C   UNL     1       1.632   4.153  17.185  0.00  0.00    +0.000 C 
ATOM     16  C   UNL     1       0.958   3.655  18.462  0.00  0.00    +0.000 C 
ATOM     17  N   UNL     1       1.871   3.568  19.613  0.00  0.00    +0.000 NA
ATOM     18  C   UNL     1       1.125   3.133  20.804  0.00  0.00    +0.000 C 
ATOM     19  C   UNL     1       2.018   2.903  22.020  0.00  0.00    +0.000 C 
ATOM     20  C   UNL     1       3.123   1.911  21.694  0.00  0.00    +0.000 C 
ATOM     21  C   UNL     1       3.946   2.482  20.547  0.00  0.00    +0.000 C 
ATOM     22  C   UNL     1       3.079   2.780  19.307  0.00  0.00    +0.000 C 
ENDBRANCH  12  13
ENDBRANCH   5  12
TORSDOF 3
ENDMDL
