MODEL 1
REMARK VINA RESULT:      -7.2      0.000      0.000
REMARK  Name = 
REMARK  8 active torsions:
REMARK  status: ('A' for Active; 'I' for Inactive)
REMARK    1  A    between atoms: C_1  and  O_2
REMARK    2  A    between atoms: O_2  and  C_3
REMARK    3  A    between atoms: C_6  and  N_7
REMARK    4  A    between atoms: C_8  and  C_10
REMARK    5  A    between atoms: C_10  and  C_11
REMARK    6  A    between atoms: C_12  and  C_13
REMARK    7  A    between atoms: C_18  and  C_19
REMARK    8  A    between atoms: C_22  and  O_23
REMARK                            x       y       z     vdW  Elec       q    Type
REMARK                         _______ _______ _______ _____ _____    ______ ____
ROOT
ATOM      1  C   UNL     1       5.678   5.201  17.586  0.00  0.00    +0.000 A 
ATOM      2  C   UNL     1       6.810   5.991  17.253  0.00  0.00    +0.000 A 
ATOM      3  C   UNL     1       7.521   7.005  18.076  0.00  0.00    +0.000 C 
ATOM      4  N   UNL     1       7.236   5.753  16.006  0.00  0.00    +0.000 NA
ATOM      5  N   UNL     1       6.330   4.884  15.491  0.00  0.00    +0.000 N 
ATOM      6  C   UNL     1       6.395   4.466  14.159  0.00  0.00    +0.000 A 
ATOM      7  N   UNL     1       5.436   3.745  13.607  0.00  0.00    +0.000 NA
ATOM      8  C   UNL     1       5.758   3.521  12.275  0.00  0.00    +0.000 A 
ATOM      9  C   UNL     1       4.781   2.817  11.406  0.00  0.00    +0.000 C 
ATOM     10  C   UNL     1       7.000   3.998  11.891  0.00  0.00    +0.000 A 
ATOM     11  S   UNL     1       7.734   4.853  13.186  0.00  0.00    +0.000 S 
ATOM     12  C   UNL     1       5.369   4.522  16.428  0.00  0.00    +0.000 A 
ENDROOT
BRANCH  12  13
ATOM     13  O   UNL     1       4.362   3.678  16.182  0.00  0.00    +0.000 OA
ATOM     14  H   UNL     1       3.939   3.952  15.336  0.00  0.00    +0.000 HD
ENDBRANCH  12  13
BRANCH   1  15
ATOM     15  C   UNL     1       4.925   5.133  18.866  0.00  0.00    +0.000 C 
BRANCH  15  17
ATOM     16  N   UNL     1       3.541   7.129  19.041  0.00  0.00    +0.000 N 
ATOM     17  C   UNL     1       3.561   5.783  18.713  0.00  0.00    +0.000 C 
ATOM     18  O   UNL     1       2.610   5.110  18.319  0.00  0.00    +0.000 OA
ATOM     19  H   UNL     1       4.428   7.555  19.294  0.00  0.00    +0.000 HD
BRANCH  16  23
ATOM     20  C   UNL     1       0.178   9.690  19.122  0.00  0.00    +0.000 A 
ATOM     21  C   UNL     1       0.839   9.450  17.920  0.00  0.00    +0.000 A 
ATOM     22  C   UNL     1       1.941   8.593  17.871  0.00  0.00    +0.000 A 
ATOM     23  C   UNL     1       2.411   7.974  19.027  0.00  0.00    +0.000 A 
ATOM     24  C   UNL     1       1.736   8.200  20.233  0.00  0.00    +0.000 A 
ATOM     25  C   UNL     1       0.632   9.068  20.284  0.00  0.00    +0.000 A 
BRANCH  20  27
ATOM     26  C   UNL     1      -1.706  10.438  17.904  0.00  0.00    +0.000 C 
ATOM     27  O   UNL     1      -0.860  10.575  19.037  0.00  0.00    +0.000 OA
ENDBRANCH  20  27
ENDBRANCH  16  23
ENDBRANCH  15  17
ENDBRANCH   1  15
TORSDOF 5
ENDMDL
MODEL 2
REMARK VINA RESULT:      -7.1      4.369      6.881
REMARK  Name = 
REMARK  8 active torsions:
REMARK  status: ('A' for Active; 'I' for Inactive)
REMARK    1  A    between atoms: C_1  and  O_2
REMARK    2  A    between atoms: O_2  and  C_3
REMARK    3  A    between atoms: C_6  and  N_7
REMARK    4  A    between atoms: C_8  and  C_10
REMARK    5  A    between atoms: C_10  and  C_11
REMARK    6  A    between atoms: C_12  and  C_13
REMARK    7  A    between atoms: C_18  and  C_19
REMARK    8  A    between atoms: C_22  and  O_23
REMARK                            x       y       z     vdW  Elec       q    Type
REMARK                         _______ _______ _______ _____ _____    ______ ____
ROOT
ATOM      1  C   UNL     1       6.830   5.399  17.899  0.00  0.00    +0.000 A 
ATOM      2  C   UNL     1       6.482   4.917  16.610  0.00  0.00    +0.000 A 
ATOM      3  C   UNL     1       7.242   5.014  15.335  0.00  0.00    +0.000 C 
ATOM      4  N   UNL     1       5.285   4.316  16.608  0.00  0.00    +0.000 NA
ATOM      5  N   UNL     1       4.809   4.490  17.866  0.00  0.00    +0.000 N 
ATOM      6  C   UNL     1       3.527   4.067  18.225  0.00  0.00    +0.000 A 
ATOM      7  N   UNL     1       2.996   4.366  19.397  0.00  0.00    +0.000 NA
ATOM      8  C   UNL     1       1.709   3.849  19.449  0.00  0.00    +0.000 A 
ATOM      9  C   UNL     1       0.862   4.143  20.633  0.00  0.00    +0.000 C 
ATOM     10  C   UNL     1       1.344   3.091  18.349  0.00  0.00    +0.000 A 
ATOM     11  S   UNL     1       2.589   3.122  17.168  0.00  0.00    +0.000 S 
ATOM     12  C   UNL     1       5.726   5.141  18.681  0.00  0.00    +0.000 A 
ENDROOT
BRANCH  12  13
ATOM     13  O   UNL     1       5.510   5.436  19.968  0.00  0.00    +0.000 OA
ATOM     14  H   UNL     1       6.200   6.081  20.248  0.00  0.00    +0.000 HD
ENDBRANCH  12  13
BRANCH   1  15
ATOM     15  C   UNL     1       8.072   6.087  18.339  0.00  0.00    +0.000 C 
BRANCH  15  17
ATOM     16  N   UNL     1       8.832   8.337  18.879  0.00  0.00    +0.000 N 
ATOM     17  C   UNL     1       7.956   7.584  18.112  0.00  0.00    +0.000 C 
ATOM     18  O   UNL     1       7.139   8.013  17.298  0.00  0.00    +0.000 OA
ATOM     19  H   UNL     1       9.488   7.827  19.463  0.00  0.00    +0.000 HD
BRANCH  16  23
ATOM     20  C   UNL     1       9.181  12.547  19.044  0.00  0.00    +0.000 A 
ATOM     21  C   UNL     1       8.869  11.924  17.839  0.00  0.00    +0.000 A 
ATOM     22  C   UNL     1       8.732  10.535  17.769  0.00  0.00    +0.000 A 
ATOM     23  C   UNL     1       8.921   9.745  18.901  0.00  0.00    +0.000 A 
ATOM     24  C   UNL     1       9.217  10.373  20.117  0.00  0.00    +0.000 A 
ATOM     25  C   UNL     1       9.362  11.769  20.186  0.00  0.00    +0.000 A 
BRANCH  20  27
ATOM     26  C   UNL     1      10.618  14.382  18.639  0.00  0.00    +0.000 C 
ATOM     27  O   UNL     1       9.320  13.904  18.966  0.00  0.00    +0.000 OA
ENDBRANCH  20  27
ENDBRANCH  16  23
ENDBRANCH  15  17
ENDBRANCH   1  15
TORSDOF 5
ENDMDL
MODEL 3
REMARK VINA RESULT:      -6.9      4.736      8.720
REMARK  Name = 
REMARK  8 active torsions:
REMARK  status: ('A' for Active; 'I' for Inactive)
REMARK    1  A    between atoms: C_1  and  O_2
REMARK    2  A    between atoms: O_2  and  C_3
REMARK    3  A    between atoms: C_6  and  N_7
REMARK    4  A    between atoms: C_8  and  C_10
REMARK    5  A    between atoms: C_10  and  C_11
REMARK    6  A    between atoms: C_12  and  C_13
REMARK    7  A    between atoms: C_18  and  C_19
REMARK    8  A    between atoms: C_22  and  O_23
REMARK                            x       y       z     vdW  Elec       q    Type
REMARK                         _______ _______ _______ _____ _____    ______ ____
ROOT
ATOM      1  C   UNL     1       0.389  10.041  20.033  0.00  0.00    +0.000 A 
ATOM      2  C   UNL     1      -0.643  10.556  20.861  0.00  0.00    +0.000 A 
ATOM      3  C   UNL     1      -0.681  10.682  22.342  0.00  0.00    +0.000 C 
ATOM      4  N   UNL     1      -1.705  10.952  20.148  0.00  0.00    +0.000 NA
ATOM      5  N   UNL     1      -1.411  10.607  18.870  0.00  0.00    +0.000 N 
ATOM      6  C   UNL     1      -2.334  10.786  17.836  0.00  0.00    +0.000 A 
ATOM      7  N   UNL     1      -2.119  10.315  16.620  0.00  0.00    +0.000 NA
ATOM      8  C   UNL     1      -3.220  10.609  15.828  0.00  0.00    +0.000 A 
ATOM      9  C   UNL     1      -3.266  10.091  14.437  0.00  0.00    +0.000 C 
ATOM     10  C   UNL     1      -4.191  11.379  16.446  0.00  0.00    +0.000 A 
ATOM     11  S   UNL     1      -3.779  11.643  18.092  0.00  0.00    +0.000 S 
ATOM     12  C   UNL     1      -0.141  10.054  18.761  0.00  0.00    +0.000 A 
ENDROOT
BRANCH  12  13
ATOM     13  O   UNL     1       0.398   9.631  17.613  0.00  0.00    +0.000 OA
ATOM     14  H   UNL     1       0.960  10.358  17.259  0.00  0.00    +0.000 HD
ENDBRANCH  12  13
BRANCH   1  15
ATOM     15  C   UNL     1       1.733   9.534  20.414  0.00  0.00    +0.000 C 
BRANCH  15  17
ATOM     16  N   UNL     1       2.503   7.613  19.129  0.00  0.00    +0.000 N 
ATOM     17  C   UNL     1       1.796   8.025  20.248  0.00  0.00    +0.000 C 
ATOM     18  O   UNL     1       1.250   7.300  21.078  0.00  0.00    +0.000 OA
ATOM     19  H   UNL     1       2.946   8.338  18.572  0.00  0.00    +0.000 HD
BRANCH  16  23
ATOM     20  C   UNL     1       3.156   3.603  17.961  0.00  0.00    +0.000 A 
ATOM     21  C   UNL     1       1.941   4.220  17.674  0.00  0.00    +0.000 A 
ATOM     22  C   UNL     1       1.714   5.550  18.036  0.00  0.00    +0.000 A 
ATOM     23  C   UNL     1       2.693   6.281  18.707  0.00  0.00    +0.000 A 
ATOM     24  C   UNL     1       3.921   5.666  18.980  0.00  0.00    +0.000 A 
ATOM     25  C   UNL     1       4.147   4.326  18.622  0.00  0.00    +0.000 A 
BRANCH  20  27
ATOM     26  C   UNL     1       3.580   1.367  18.606  0.00  0.00    +0.000 C 
ATOM     27  O   UNL     1       3.233   2.292  17.585  0.00  0.00    +0.000 OA
ENDBRANCH  20  27
ENDBRANCH  16  23
ENDBRANCH  15  17
ENDBRANCH   1  15
TORSDOF 5
ENDMDL
MODEL 4
REMARK VINA RESULT:      -6.9      0.731      1.206
REMARK  Name = 
REMARK  8 active torsions:
REMARK  status: ('A' for Active; 'I' for Inactive)
REMARK    1  A    between atoms: C_1  and  O_2
REMARK    2  A    between atoms: O_2  and  C_3
REMARK    3  A    between atoms: C_6  and  N_7
REMARK    4  A    between atoms: C_8  and  C_10
REMARK    5  A    between atoms: C_10  and  C_11
REMARK    6  A    between atoms: C_12  and  C_13
REMARK    7  A    between atoms: C_18  and  C_19
REMARK    8  A    between atoms: C_22  and  O_23
REMARK                            x       y       z     vdW  Elec       q    Type
REMARK                         _______ _______ _______ _____ _____    ______ ____
ROOT
ATOM      1  C   UNL     1       5.170   4.627  17.968  0.00  0.00    +0.000 A 
ATOM      2  C   UNL     1       6.435   5.253  17.817  0.00  0.00    +0.000 A 
ATOM      3  C   UNL     1       7.229   6.017  18.816  0.00  0.00    +0.000 C 
ATOM      4  N   UNL     1       6.917   5.113  16.576  0.00  0.00    +0.000 NA
ATOM      5  N   UNL     1       5.930   4.483  15.891  0.00  0.00    +0.000 N 
ATOM      6  C   UNL     1       6.036   4.239  14.519  0.00  0.00    +0.000 A 
ATOM      7  N   UNL     1       5.023   3.767  13.814  0.00  0.00    +0.000 NA
ATOM      8  C   UNL     1       5.412   3.669  12.486  0.00  0.00    +0.000 A 
ATOM      9  C   UNL     1       4.409   3.259  11.470  0.00  0.00    +0.000 C 
ATOM     10  C   UNL     1       6.740   3.978  12.246  0.00  0.00    +0.000 A 
ATOM     11  S   UNL     1       7.493   4.521  13.690  0.00  0.00    +0.000 S 
ATOM     12  C   UNL     1       4.853   4.167  16.709  0.00  0.00    +0.000 A 
ENDROOT
BRANCH  12  13
ATOM     13  O   UNL     1       3.748   3.542  16.287  0.00  0.00    +0.000 OA
ATOM     14  H   UNL     1       3.537   2.834  16.938  0.00  0.00    +0.000 HD
ENDBRANCH  12  13
BRANCH   1  15
ATOM     15  C   UNL     1       4.315   4.518  19.180  0.00  0.00    +0.000 C 
BRANCH  15  17
ATOM     16  N   UNL     1       3.235   6.652  19.636  0.00  0.00    +0.000 N 
ATOM     17  C   UNL     1       3.091   5.407  19.045  0.00  0.00    +0.000 C 
ATOM     18  O   UNL     1       2.102   4.990  18.444  0.00  0.00    +0.000 OA
ATOM     19  H   UNL     1       4.140   6.867  20.045  0.00  0.00    +0.000 HD
BRANCH  16  23
ATOM     20  C   UNL     1       0.275   9.670  19.692  0.00  0.00    +0.000 A 
ATOM     21  C   UNL     1       0.520   8.917  20.838  0.00  0.00    +0.000 A 
ATOM     22  C   UNL     1       1.506   7.928  20.843  0.00  0.00    +0.000 A 
ATOM     23  C   UNL     1       2.254   7.663  19.697  0.00  0.00    +0.000 A 
ATOM     24  C   UNL     1       2.020   8.433  18.551  0.00  0.00    +0.000 A 
ATOM     25  C   UNL     1       1.023   9.423  18.543  0.00  0.00    +0.000 A 
BRANCH  20  27
ATOM     26  C   UNL     1      -1.550  10.766  18.660  0.00  0.00    +0.000 C 
ATOM     27  O   UNL     1      -0.739  10.579  19.812  0.00  0.00    +0.000 OA
ENDBRANCH  20  27
ENDBRANCH  16  23
ENDBRANCH  15  17
ENDBRANCH   1  15
TORSDOF 5
ENDMDL
MODEL 5
REMARK VINA RESULT:      -6.8      5.223      8.774
REMARK  Name = 
REMARK  8 active torsions:
REMARK  status: ('A' for Active; 'I' for Inactive)
REMARK    1  A    between atoms: C_1  and  O_2
REMARK    2  A    between atoms: O_2  and  C_3
REMARK    3  A    between atoms: C_6  and  N_7
REMARK    4  A    between atoms: C_8  and  C_10
REMARK    5  A    between atoms: C_10  and  C_11
REMARK    6  A    between atoms: C_12  and  C_13
REMARK    7  A    between atoms: C_18  and  C_19
REMARK    8  A    between atoms: C_22  and  O_23
REMARK                            x       y       z     vdW  Elec       q    Type
REMARK                         _______ _______ _______ _____ _____    ______ ____
ROOT
ATOM      1  C   UNL     1       0.411  10.012  19.883  0.00  0.00    +0.000 A 
ATOM      2  C   UNL     1      -0.604  10.456  20.770  0.00  0.00    +0.000 A 
ATOM      3  C   UNL     1      -0.592  10.513  22.256  0.00  0.00    +0.000 C 
ATOM      4  N   UNL     1      -1.703  10.850  20.115  0.00  0.00    +0.000 NA
ATOM      5  N   UNL     1      -1.447  10.573  18.812  0.00  0.00    +0.000 N 
ATOM      6  C   UNL     1      -2.412  10.769  17.821  0.00  0.00    +0.000 A 
ATOM      7  N   UNL     1      -2.228  10.361  16.578  0.00  0.00    +0.000 NA
ATOM      8  C   UNL     1      -3.366  10.656  15.840  0.00  0.00    +0.000 A 
ATOM      9  C   UNL     1      -3.448  10.201  14.429  0.00  0.00    +0.000 C 
ATOM     10  C   UNL     1      -4.336  11.366  16.528  0.00  0.00    +0.000 A 
ATOM     11  S   UNL     1      -3.872  11.567  18.168  0.00  0.00    +0.000 S 
ATOM     12  C   UNL     1      -0.166  10.066  18.633  0.00  0.00    +0.000 A 
ENDROOT
BRANCH  12  13
ATOM     13  O   UNL     1       0.343   9.712  17.448  0.00  0.00    +0.000 OA
ATOM     14  H   UNL     1       0.957   8.957  17.598  0.00  0.00    +0.000 HD
ENDBRANCH  12  13
BRANCH   1  15
ATOM     15  C   UNL     1       1.783   9.530  20.192  0.00  0.00    +0.000 C 
BRANCH  15  17
ATOM     16  N   UNL     1       1.922   7.122  20.527  0.00  0.00    +0.000 N 
ATOM     17  C   UNL     1       2.006   8.149  19.600  0.00  0.00    +0.000 C 
ATOM     18  O   UNL     1       2.227   8.034  18.396  0.00  0.00    +0.000 OA
ATOM     19  H   UNL     1       1.673   7.378  21.477  0.00  0.00    +0.000 HD
BRANCH  16  23
ATOM     20  C   UNL     1       2.387   2.997  19.725  0.00  0.00    +0.000 A 
ATOM     21  C   UNL     1       3.464   3.862  19.555  0.00  0.00    +0.000 A 
ATOM     22  C   UNL     1       3.335   5.226  19.832  0.00  0.00    +0.000 A 
ATOM     23  C   UNL     1       2.119   5.749  20.269  0.00  0.00    +0.000 A 
ATOM     24  C   UNL     1       1.041   4.876  20.457  0.00  0.00    +0.000 A 
ATOM     25  C   UNL     1       1.169   3.506  20.172  0.00  0.00    +0.000 A 
BRANCH  20  27
ATOM     26  C   UNL     1       3.510   1.498  18.281  0.00  0.00    +0.000 C 
ATOM     27  O   UNL     1       2.639   1.698  19.385  0.00  0.00    +0.000 OA
ENDBRANCH  20  27
ENDBRANCH  16  23
ENDBRANCH  15  17
ENDBRANCH   1  15
TORSDOF 5
ENDMDL
MODEL 6
REMARK VINA RESULT:      -6.8      5.542     10.634
REMARK  Name = 
REMARK  8 active torsions:
REMARK  status: ('A' for Active; 'I' for Inactive)
REMARK    1  A    between atoms: C_1  and  O_2
REMARK    2  A    between atoms: O_2  and  C_3
REMARK    3  A    between atoms: C_6  and  N_7
REMARK    4  A    between atoms: C_8  and  C_10
REMARK    5  A    between atoms: C_10  and  C_11
REMARK    6  A    between atoms: C_12  and  C_13
REMARK    7  A    between atoms: C_18  and  C_19
REMARK    8  A    between atoms: C_22  and  O_23
REMARK                            x       y       z     vdW  Elec       q    Type
REMARK                         _______ _______ _______ _____ _____    ______ ____
ROOT
ATOM      1  C   UNL     1       0.609  10.514  21.653  0.00  0.00    +0.000 A 
ATOM      2  C   UNL     1       0.631  11.653  20.805  0.00  0.00    +0.000 A 
ATOM      3  C   UNL     1       1.691  12.099  19.861  0.00  0.00    +0.000 C 
ATOM      4  N   UNL     1      -0.477  12.392  20.933  0.00  0.00    +0.000 NA
ATOM      5  N   UNL     1      -1.178  11.796  21.930  0.00  0.00    +0.000 N 
ATOM      6  C   UNL     1      -2.370  12.343  22.412  0.00  0.00    +0.000 A 
ATOM      7  N   UNL     1      -2.978  11.859  23.480  0.00  0.00    +0.000 NA
ATOM      8  C   UNL     1      -4.104  12.627  23.738  0.00  0.00    +0.000 A 
ATOM      9  C   UNL     1      -4.905  12.345  24.956  0.00  0.00    +0.000 C 
ATOM     10  C   UNL     1      -4.364  13.610  22.797  0.00  0.00    +0.000 A 
ATOM     11  S   UNL     1      -3.109  13.657  21.627  0.00  0.00    +0.000 S 
ATOM     12  C   UNL     1      -0.548  10.646  22.388  0.00  0.00    +0.000 A 
ENDROOT
BRANCH  12  13
ATOM     13  O   UNL     1      -1.026   9.867  23.364  0.00  0.00    +0.000 OA
ATOM     14  H   UNL     1      -0.383   9.891  24.110  0.00  0.00    +0.000 HD
ENDBRANCH  12  13
BRANCH   1  15
ATOM     15  C   UNL     1       1.615   9.428  21.792  0.00  0.00    +0.000 C 
BRANCH  15  17
ATOM     16  N   UNL     1       1.896   7.139  21.010  0.00  0.00    +0.000 N 
ATOM     17  C   UNL     1       1.451   8.409  20.678  0.00  0.00    +0.000 C 
ATOM     18  O   UNL     1       0.952   8.755  19.608  0.00  0.00    +0.000 OA
ATOM     19  H   UNL     1       2.230   7.001  21.959  0.00  0.00    +0.000 HD
BRANCH  16  23
ATOM     20  C   UNL     1       2.019   3.795  18.425  0.00  0.00    +0.000 A 
ATOM     21  C   UNL     1       1.340   3.710  19.638  0.00  0.00    +0.000 A 
ATOM     22  C   UNL     1       1.274   4.810  20.497  0.00  0.00    +0.000 A 
ATOM     23  C   UNL     1       1.900   6.010  20.164  0.00  0.00    +0.000 A 
ATOM     24  C   UNL     1       2.567   6.102  18.936  0.00  0.00    +0.000 A 
ATOM     25  C   UNL     1       2.640   4.993  18.076  0.00  0.00    +0.000 A 
BRANCH  20  27
ATOM     26  C   UNL     1       3.215   1.851  17.806  0.00  0.00    +0.000 C 
ATOM     27  O   UNL     1       2.037   2.638  17.699  0.00  0.00    +0.000 OA
ENDBRANCH  20  27
ENDBRANCH  16  23
ENDBRANCH  15  17
ENDBRANCH   1  15
TORSDOF 5
ENDMDL
MODEL 7
REMARK VINA RESULT:      -6.7      4.800      7.207
REMARK  Name = 
REMARK  8 active torsions:
REMARK  status: ('A' for Active; 'I' for Inactive)
REMARK    1  A    between atoms: C_1  and  O_2
REMARK    2  A    between atoms: O_2  and  C_3
REMARK    3  A    between atoms: C_6  and  N_7
REMARK    4  A    between atoms: C_8  and  C_10
REMARK    5  A    between atoms: C_10  and  C_11
REMARK    6  A    between atoms: C_12  and  C_13
REMARK    7  A    between atoms: C_18  and  C_19
REMARK    8  A    between atoms: C_22  and  O_23
REMARK                            x       y       z     vdW  Elec       q    Type
REMARK                         _______ _______ _______ _____ _____    ______ ____
ROOT
ATOM      1  C   UNL     1       0.810   9.832  19.668  0.00  0.00    +0.000 A 
ATOM      2  C   UNL     1       0.868   8.963  20.789  0.00  0.00    +0.000 A 
ATOM      3  C   UNL     1       0.295   9.147  22.150  0.00  0.00    +0.000 C 
ATOM      4  N   UNL     1       1.562   7.850  20.523  0.00  0.00    +0.000 NA
ATOM      5  N   UNL     1       2.040   8.032  19.267  0.00  0.00    +0.000 N 
ATOM      6  C   UNL     1       2.896   7.103  18.670  0.00  0.00    +0.000 A 
ATOM      7  N   UNL     1       3.487   7.343  17.513  0.00  0.00    +0.000 NA
ATOM      8  C   UNL     1       4.302   6.264  17.198  0.00  0.00    +0.000 A 
ATOM      9  C   UNL     1       5.159   6.338  15.986  0.00  0.00    +0.000 C 
ATOM     10  C   UNL     1       4.225   5.201  18.081  0.00  0.00    +0.000 A 
ATOM     11  S   UNL     1       3.204   5.601  19.402  0.00  0.00    +0.000 S 
ATOM     12  C   UNL     1       1.596   9.227  18.713  0.00  0.00    +0.000 A 
ENDROOT
BRANCH  12  13
ATOM     13  O   UNL     1       1.917   9.650  17.486  0.00  0.00    +0.000 OA
ATOM     14  H   UNL     1       1.747   8.909  16.859  0.00  0.00    +0.000 HD
ENDBRANCH  12  13
BRANCH   1  15
ATOM     15  C   UNL     1       0.116  11.140  19.530  0.00  0.00    +0.000 C 
BRANCH  15  17
ATOM     16  N   UNL     1       1.396  13.031  18.685  0.00  0.00    +0.000 N 
ATOM     17  C   UNL     1       1.079  12.281  19.806  0.00  0.00    +0.000 C 
ATOM     18  O   UNL     1       1.491  12.463  20.951  0.00  0.00    +0.000 OA
ATOM     19  H   UNL     1       0.924  12.787  17.819  0.00  0.00    +0.000 HD
BRANCH  16  23
ATOM     20  C   UNL     1       3.999  16.362  18.634  0.00  0.00    +0.000 A 
ATOM     21  C   UNL     1       4.475  15.104  18.274  0.00  0.00    +0.000 A 
ATOM     22  C   UNL     1       3.626  13.995  18.268  0.00  0.00    +0.000 A 
ATOM     23  C   UNL     1       2.288  14.123  18.637  0.00  0.00    +0.000 A 
ATOM     24  C   UNL     1       1.805  15.391  18.981  0.00  0.00    +0.000 A 
ATOM     25  C   UNL     1       2.661  16.506  18.995  0.00  0.00    +0.000 A 
BRANCH  20  27
ATOM     26  C   UNL     1       5.684  17.510  19.833  0.00  0.00    +0.000 C 
ATOM     27  O   UNL     1       4.942  17.352  18.632  0.00  0.00    +0.000 OA
ENDBRANCH  20  27
ENDBRANCH  16  23
ENDBRANCH  15  17
ENDBRANCH   1  15
TORSDOF 5
ENDMDL
MODEL 8
REMARK VINA RESULT:      -6.7      4.576      6.877
REMARK  Name = 
REMARK  8 active torsions:
REMARK  status: ('A' for Active; 'I' for Inactive)
REMARK    1  A    between atoms: C_1  and  O_2
REMARK    2  A    between atoms: O_2  and  C_3
REMARK    3  A    between atoms: C_6  and  N_7
REMARK    4  A    between atoms: C_8  and  C_10
REMARK    5  A    between atoms: C_10  and  C_11
REMARK    6  A    between atoms: C_12  and  C_13
REMARK    7  A    between atoms: C_18  and  C_19
REMARK    8  A    between atoms: C_22  and  O_23
REMARK                            x       y       z     vdW  Elec       q    Type
REMARK                         _______ _______ _______ _____ _____    ______ ____
ROOT
ATOM      1  C   UNL     1       6.678   5.149  17.849  0.00  0.00    +0.000 A 
ATOM      2  C   UNL     1       6.127   4.828  16.580  0.00  0.00    +0.000 A 
ATOM      3  C   UNL     1       6.642   5.157  15.224  0.00  0.00    +0.000 C 
ATOM      4  N   UNL     1       4.979   4.148  16.691  0.00  0.00    +0.000 NA
ATOM      5  N   UNL     1       4.728   4.109  18.023  0.00  0.00    +0.000 N 
ATOM      6  C   UNL     1       3.552   3.548  18.528  0.00  0.00    +0.000 A 
ATOM      7  N   UNL     1       3.226   3.641  19.805  0.00  0.00    +0.000 NA
ATOM      8  C   UNL     1       1.995   3.029  19.996  0.00  0.00    +0.000 A 
ATOM      9  C   UNL     1       1.360   3.092  21.337  0.00  0.00    +0.000 C 
ATOM     10  C   UNL     1       1.475   2.408  18.873  0.00  0.00    +0.000 A 
ATOM     11  S   UNL     1       2.486   2.694  17.515  0.00  0.00    +0.000 S 
ATOM     12  C   UNL     1       5.745   4.704  18.760  0.00  0.00    +0.000 A 
ENDROOT
BRANCH  12  13
ATOM     13  O   UNL     1       5.749   4.800  20.094  0.00  0.00    +0.000 OA
ATOM     14  H   UNL     1       5.650   3.891  20.460  0.00  0.00    +0.000 HD
ENDBRANCH  12  13
BRANCH   1  15
ATOM     15  C   UNL     1       7.945   5.857  18.170  0.00  0.00    +0.000 C 
BRANCH  15  17
ATOM     16  N   UNL     1       8.713   8.117  18.650  0.00  0.00    +0.000 N 
ATOM     17  C   UNL     1       7.781   7.353  17.967  0.00  0.00    +0.000 C 
ATOM     18  O   UNL     1       6.881   7.771  17.239  0.00  0.00    +0.000 OA
ATOM     19  H   UNL     1       9.432   7.616  19.164  0.00  0.00    +0.000 HD
BRANCH  16  23
ATOM     20  C   UNL     1       8.805  12.344  18.649  0.00  0.00    +0.000 A 
ATOM     21  C   UNL     1       9.362  11.638  19.712  0.00  0.00    +0.000 A 
ATOM     22  C   UNL     1       9.357  10.241  19.722  0.00  0.00    +0.000 A 
ATOM     23  C   UNL     1       8.779   9.526  18.674  0.00  0.00    +0.000 A 
ATOM     24  C   UNL     1       8.236  10.235  17.596  0.00  0.00    +0.000 A 
ATOM     25  C   UNL     1       8.234  11.641  17.590  0.00  0.00    +0.000 A 
BRANCH  20  27
ATOM     26  C   UNL     1      10.116  14.312  18.599  0.00  0.00    +0.000 C 
ATOM     27  O   UNL     1       8.845  13.703  18.782  0.00  0.00    +0.000 OA
ENDBRANCH  20  27
ENDBRANCH  16  23
ENDBRANCH  15  17
ENDBRANCH   1  15
TORSDOF 5
ENDMDL
MODEL 9
REMARK VINA RESULT:      -6.7      5.111      8.805
REMARK  Name = 
REMARK  8 active torsions:
REMARK  status: ('A' for Active; 'I' for Inactive)
REMARK    1  A    between atoms: C_1  and  O_2
REMARK    2  A    between atoms: O_2  and  C_3
REMARK    3  A    between atoms: C_6  and  N_7
REMARK    4  A    between atoms: C_8  and  C_10
REMARK    5  A    between atoms: C_10  and  C_11
REMARK    6  A    between atoms: C_12  and  C_13
REMARK    7  A    between atoms: C_18  and  C_19
REMARK    8  A    between atoms: C_22  and  O_23
REMARK                            x       y       z     vdW  Elec       q    Type
REMARK                         _______ _______ _______ _____ _____    ______ ____
ROOT
ATOM      1  C   UNL     1       0.421  10.010  19.879  0.00  0.00    +0.000 A 
ATOM      2  C   UNL     1      -0.550  10.598  20.732  0.00  0.00    +0.000 A 
ATOM      3  C   UNL     1      -0.524  10.762  22.210  0.00  0.00    +0.000 C 
ATOM      4  N   UNL     1      -1.617  11.032  20.050  0.00  0.00    +0.000 NA
ATOM      5  N   UNL     1      -1.392  10.641  18.770  0.00  0.00    +0.000 N 
ATOM      6  C   UNL     1      -2.343  10.843  17.768  0.00  0.00    +0.000 A 
ATOM      7  N   UNL     1      -2.201  10.332  16.557  0.00  0.00    +0.000 NA
ATOM      8  C   UNL     1      -3.315  10.664  15.800  0.00  0.00    +0.000 A 
ATOM      9  C   UNL     1      -3.441  10.116  14.425  0.00  0.00    +0.000 C 
ATOM     10  C   UNL     1      -4.220  11.499  16.434  0.00  0.00    +0.000 A 
ATOM     11  S   UNL     1      -3.732  11.780  18.055  0.00  0.00    +0.000 S 
ATOM     12  C   UNL     1      -0.157  10.020  18.629  0.00  0.00    +0.000 A 
ENDROOT
BRANCH  12  13
ATOM     13  O   UNL     1       0.315   9.541  17.473  0.00  0.00    +0.000 OA
ATOM     14  H   UNL     1       0.674   8.641  17.645  0.00  0.00    +0.000 HD
ENDBRANCH  12  13
BRANCH   1  15
ATOM     15  C   UNL     1       1.751   9.442  20.223  0.00  0.00    +0.000 C 
BRANCH  15  17
ATOM     16  N   UNL     1       2.327   7.243  19.348  0.00  0.00    +0.000 N 
ATOM     17  C   UNL     1       1.664   7.931  20.353  0.00  0.00    +0.000 C 
ATOM     18  O   UNL     1       1.049   7.438  21.297  0.00  0.00    +0.000 OA
ATOM     19  H   UNL     1       2.840   7.799  18.670  0.00  0.00    +0.000 HD
BRANCH  16  23
ATOM     20  C   UNL     1       2.500   3.060  18.763  0.00  0.00    +0.000 A 
ATOM     21  C   UNL     1       3.010   3.619  19.933  0.00  0.00    +0.000 A 
ATOM     22  C   UNL     1       2.945   4.997  20.151  0.00  0.00    +0.000 A 
ATOM     23  C   UNL     1       2.384   5.843  19.196  0.00  0.00    +0.000 A 
ATOM     24  C   UNL     1       1.855   5.279  18.028  0.00  0.00    +0.000 A 
ATOM     25  C   UNL     1       1.926   3.893  17.805  0.00  0.00    +0.000 A 
BRANCH  20  27
ATOM     26  C   UNL     1       3.994   1.243  18.517  0.00  0.00    +0.000 C 
ATOM     27  O   UNL     1       2.659   1.707  18.661  0.00  0.00    +0.000 OA
ENDBRANCH  20  27
ENDBRANCH  16  23
ENDBRANCH  15  17
ENDBRANCH   1  15
TORSDOF 5
ENDMDL
