MODEL 1
REMARK VINA RESULT:      -8.9      0.000      0.000
REMARK  Name = 
REMARK  8 active torsions:
REMARK  status: ('A' for Active; 'I' for Inactive)
REMARK    1  A    between atoms: C_1  and  N_2
REMARK    2  A    between atoms: C_5  and  C_6
REMARK    3  A    between atoms: C_6  and  C_7
REMARK    4  A    between atoms: C_7  and  C_8
REMARK    5  A    between atoms: C_9  and  C_10
REMARK    6  A    between atoms: C_15  and  C_16
REMARK    7  A    between atoms: C_22  and  C_23
REMARK    8  A    between atoms: C_23  and  O_25
REMARK                            x       y       z     vdW  Elec       q    Type
REMARK                         _______ _______ _______ _____ _____    ______ ____
ROOT
ATOM      1  C   UNL     1       2.449   8.051  18.157  0.00  0.00    +0.000 C 
ATOM      2  C   UNL     1       3.096   7.061  17.886  0.00  0.00    +0.000 C 
ENDROOT
BRANCH   2   3
ATOM      3  C   UNL     1       3.983   6.070  17.346  0.00  0.00    +0.000 A 
ATOM      4  C   UNL     1       4.854   6.514  16.332  0.00  0.00    +0.000 A 
ATOM      5  C   UNL     1       5.710   5.628  15.682  0.00  0.00    +0.000 A 
ATOM      6  C   UNL     1       5.726   4.293  16.056  0.00  0.00    +0.000 A 
ATOM      7  C   UNL     1       4.847   3.839  17.041  0.00  0.00    +0.000 A 
ATOM      8  C   UNL     1       3.922   4.695  17.687  0.00  0.00    +0.000 A 
BRANCH   8   9
ATOM      9  C   UNL     1       2.920   4.094  18.623  0.00  0.00    +0.000 A 
ATOM     10  C   UNL     1       3.017   4.223  20.018  0.00  0.00    +0.000 A 
ATOM     11  C   UNL     1       2.050   3.698  20.879  0.00  0.00    +0.000 A 
ATOM     12  C   UNL     1       0.981   2.975  20.369  0.00  0.00    +0.000 A 
ATOM     13  C   UNL     1       0.867   2.797  18.997  0.00  0.00    +0.000 A 
ATOM     14  C   UNL     1       1.813   3.365  18.137  0.00  0.00    +0.000 A 
ENDBRANCH   8   9
ENDBRANCH   2   3
BRANCH   1  15
ATOM     15  C   UNL     1       1.983   9.438  18.094  0.00  0.00    +0.000 C 
BRANCH  15  16
ATOM     16  C   UNL     1       0.486   9.762  17.995  0.00  0.00    +0.000 C 
BRANCH  16  21
ATOM     17  C   UNL     1      -1.299  12.079  23.001  0.00  0.00    +0.000 C 
ATOM     18  N   UNL     1      -0.585  11.807  21.751  0.00  0.00    +0.000 NA
ATOM     19  C   UNL     1       0.037  10.476  21.810  0.00  0.00    +0.000 C 
ATOM     20  C   UNL     1       0.755  10.129  20.505  0.00  0.00    +0.000 C 
ATOM     21  C   UNL     1      -0.205  10.196  19.302  0.00  0.00    +0.000 C 
ATOM     22  C   UNL     1      -0.779  11.643  19.284  0.00  0.00    +0.000 C 
ATOM     23  C   UNL     1      -1.509  11.906  20.612  0.00  0.00    +0.000 C 
BRANCH  22  24
ATOM     24  C   UNL     1      -1.777  11.935  18.186  0.00  0.00    +0.000 C 
ATOM     25  O   UNL     1      -2.944  11.572  18.190  0.00  0.00    +0.000 OA
BRANCH  24  26
ATOM     26  O   UNL     1      -1.266  12.706  17.195  0.00  0.00    +0.000 OA
ATOM     27  H   UNL     1      -0.291  12.702  17.134  0.00  0.00    +0.000 HD
ENDBRANCH  24  26
ENDBRANCH  22  24
ENDBRANCH  16  21
ENDBRANCH  15  16
ENDBRANCH   1  15
TORSDOF 7
ENDMDL
MODEL 2
REMARK VINA RESULT:      -8.9      1.929      2.565
REMARK  Name = 
REMARK  8 active torsions:
REMARK  status: ('A' for Active; 'I' for Inactive)
REMARK    1  A    between atoms: C_1  and  N_2
REMARK    2  A    between atoms: C_5  and  C_6
REMARK    3  A    between atoms: C_6  and  C_7
REMARK    4  A    between atoms: C_7  and  C_8
REMARK    5  A    between atoms: C_9  and  C_10
REMARK    6  A    between atoms: C_15  and  C_16
REMARK    7  A    between atoms: C_22  and  C_23
REMARK    8  A    between atoms: C_23  and  O_25
REMARK                            x       y       z     vdW  Elec       q    Type
REMARK                         _______ _______ _______ _____ _____    ______ ____
ROOT
ATOM      1  C   UNL     1       2.824   8.207  18.025  0.00  0.00    +0.000 C 
ATOM      2  C   UNL     1       3.491   7.230  17.756  0.00  0.00    +0.000 C 
ENDROOT
BRANCH   2   3
ATOM      3  C   UNL     1       4.184   6.129  17.149  0.00  0.00    +0.000 A 
ATOM      4  C   UNL     1       5.032   6.456  16.072  0.00  0.00    +0.000 A 
ATOM      5  C   UNL     1       5.701   5.465  15.359  0.00  0.00    +0.000 A 
ATOM      6  C   UNL     1       5.554   4.136  15.729  0.00  0.00    +0.000 A 
ATOM      7  C   UNL     1       4.695   3.801  16.777  0.00  0.00    +0.000 A 
ATOM      8  C   UNL     1       3.953   4.772  17.492  0.00  0.00    +0.000 A 
BRANCH   8   9
ATOM      9  C   UNL     1       2.948   4.309  18.501  0.00  0.00    +0.000 A 
ATOM     10  C   UNL     1       1.741   3.690  18.136  0.00  0.00    +0.000 A 
ATOM     11  C   UNL     1       0.833   3.220  19.087  0.00  0.00    +0.000 A 
ATOM     12  C   UNL     1       1.081   3.407  20.440  0.00  0.00    +0.000 A 
ATOM     13  C   UNL     1       2.248   4.044  20.841  0.00  0.00    +0.000 A 
ATOM     14  C   UNL     1       3.175   4.471  19.884  0.00  0.00    +0.000 A 
ENDBRANCH   8   9
ENDBRANCH   2   3
BRANCH   1  15
ATOM     15  C   UNL     1       1.969   9.377  17.815  0.00  0.00    +0.000 C 
BRANCH  15  16
ATOM     16  C   UNL     1       0.541   9.419  18.373  0.00  0.00    +0.000 C 
BRANCH  16  21
ATOM     17  C   UNL     1      -1.304  12.396  22.994  0.00  0.00    +0.000 C 
ATOM     18  N   UNL     1      -1.207  11.471  21.861  0.00  0.00    +0.000 NA
ATOM     19  C   UNL     1      -0.994  12.224  20.617  0.00  0.00    +0.000 C 
ATOM     20  C   UNL     1      -0.840  11.296  19.412  0.00  0.00    +0.000 C 
ATOM     21  C   UNL     1       0.319  10.301  19.617  0.00  0.00    +0.000 C 
ATOM     22  C   UNL     1      -0.007   9.515  20.920  0.00  0.00    +0.000 C 
ATOM     23  C   UNL     1      -0.117  10.511  22.088  0.00  0.00    +0.000 C 
BRANCH  22  24
ATOM     24  C   UNL     1       1.020   8.486  21.336  0.00  0.00    +0.000 C 
ATOM     25  O   UNL     1       1.095   7.353  20.883  0.00  0.00    +0.000 OA
BRANCH  24  26
ATOM     26  O   UNL     1       1.914   8.961  22.237  0.00  0.00    +0.000 OA
ATOM     27  H   UNL     1       2.405   9.756  21.949  0.00  0.00    +0.000 HD
ENDBRANCH  24  26
ENDBRANCH  22  24
ENDBRANCH  16  21
ENDBRANCH  15  16
ENDBRANCH   1  15
TORSDOF 7
ENDMDL
MODEL 3
REMARK VINA RESULT:      -8.9      0.539      1.082
REMARK  Name = 
REMARK  8 active torsions:
REMARK  status: ('A' for Active; 'I' for Inactive)
REMARK    1  A    between atoms: C_1  and  N_2
REMARK    2  A    between atoms: C_5  and  C_6
REMARK    3  A    between atoms: C_6  and  C_7
REMARK    4  A    between atoms: C_7  and  C_8
REMARK    5  A    between atoms: C_9  and  C_10
REMARK    6  A    between atoms: C_15  and  C_16
REMARK    7  A    between atoms: C_22  and  C_23
REMARK    8  A    between atoms: C_23  and  O_25
REMARK                            x       y       z     vdW  Elec       q    Type
REMARK                         _______ _______ _______ _____ _____    ______ ____
ROOT
ATOM      1  C   UNL     1       2.564   8.175  18.032  0.00  0.00    +0.000 C 
ATOM      2  C   UNL     1       3.373   7.309  17.770  0.00  0.00    +0.000 C 
ENDROOT
BRANCH   2   3
ATOM      3  C   UNL     1       4.128   6.209  17.239  0.00  0.00    +0.000 A 
ATOM      4  C   UNL     1       4.994   6.517  16.172  0.00  0.00    +0.000 A 
ATOM      5  C   UNL     1       5.723   5.521  15.529  0.00  0.00    +0.000 A 
ATOM      6  C   UNL     1       5.618   4.207  15.961  0.00  0.00    +0.000 A 
ATOM      7  C   UNL     1       4.743   3.889  17.001  0.00  0.00    +0.000 A 
ATOM      8  C   UNL     1       3.941   4.863  17.644  0.00  0.00    +0.000 A 
BRANCH   8   9
ATOM      9  C   UNL     1       2.926   4.409  18.647  0.00  0.00    +0.000 A 
ATOM     10  C   UNL     1       1.755   3.724  18.280  0.00  0.00    +0.000 A 
ATOM     11  C   UNL     1       0.838   3.264  19.228  0.00  0.00    +0.000 A 
ATOM     12  C   UNL     1       1.038   3.527  20.576  0.00  0.00    +0.000 A 
ATOM     13  C   UNL     1       2.167   4.230  20.976  0.00  0.00    +0.000 A 
ATOM     14  C   UNL     1       3.105   4.648  20.026  0.00  0.00    +0.000 A 
ENDBRANCH   8   9
ENDBRANCH   2   3
BRANCH   1  15
ATOM     15  C   UNL     1       1.361   9.001  17.913  0.00  0.00    +0.000 C 
BRANCH  15  16
ATOM     16  C   UNL     1       1.287  10.383  18.575  0.00  0.00    +0.000 C 
BRANCH  16  21
ATOM     17  C   UNL     1      -2.123  11.840  23.032  0.00  0.00    +0.000 C 
ATOM     18  N   UNL     1      -1.073  11.820  22.011  0.00  0.00    +0.000 NA
ATOM     19  C   UNL     1      -0.256  10.606  22.157  0.00  0.00    +0.000 C 
ATOM     20  C   UNL     1       0.826  10.519  21.081  0.00  0.00    +0.000 C 
ATOM     21  C   UNL     1       0.213  10.560  19.667  0.00  0.00    +0.000 C 
ATOM     22  C   UNL     1      -0.590  11.890  19.579  0.00  0.00    +0.000 C 
ATOM     23  C   UNL     1      -1.674  11.890  20.671  0.00  0.00    +0.000 C 
BRANCH  22  24
ATOM     24  C   UNL     1      -1.306  12.134  18.270  0.00  0.00    +0.000 C 
ATOM     25  O   UNL     1      -2.282  11.509  17.882  0.00  0.00    +0.000 OA
BRANCH  24  26
ATOM     26  O   UNL     1      -0.792  13.174  17.569  0.00  0.00    +0.000 OA
ATOM     27  H   UNL     1      -1.422  13.902  17.394  0.00  0.00    +0.000 HD
ENDBRANCH  24  26
ENDBRANCH  22  24
ENDBRANCH  16  21
ENDBRANCH  15  16
ENDBRANCH   1  15
TORSDOF 7
ENDMDL
MODEL 4
REMARK VINA RESULT:      -8.8      1.046      1.463
REMARK  Name = 
REMARK  8 active torsions:
REMARK  status: ('A' for Active; 'I' for Inactive)
REMARK    1  A    between atoms: C_1  and  N_2
REMARK    2  A    between atoms: C_5  and  C_6
REMARK    3  A    between atoms: C_6  and  C_7
REMARK    4  A    between atoms: C_7  and  C_8
REMARK    5  A    between atoms: C_9  and  C_10
REMARK    6  A    between atoms: C_15  and  C_16
REMARK    7  A    between atoms: C_22  and  C_23
REMARK    8  A    between atoms: C_23  and  O_25
REMARK                            x       y       z     vdW  Elec       q    Type
REMARK                         _______ _______ _______ _____ _____    ______ ____
ROOT
ATOM      1  C   UNL     1       2.814   8.170  17.969  0.00  0.00    +0.000 C 
ATOM      2  C   UNL     1       3.562   7.359  17.465  0.00  0.00    +0.000 C 
ENDROOT
BRANCH   2   3
ATOM      3  C   UNL     1       4.266   6.192  17.013  0.00  0.00    +0.000 A 
ATOM      4  C   UNL     1       5.136   6.384  15.922  0.00  0.00    +0.000 A 
ATOM      5  C   UNL     1       5.818   5.313  15.350  0.00  0.00    +0.000 A 
ATOM      6  C   UNL     1       5.662   4.041  15.879  0.00  0.00    +0.000 A 
ATOM      7  C   UNL     1       4.783   3.837  16.944  0.00  0.00    +0.000 A 
ATOM      8  C   UNL     1       4.028   4.888  17.518  0.00  0.00    +0.000 A 
BRANCH   8   9
ATOM      9  C   UNL     1       3.003   4.552  18.556  0.00  0.00    +0.000 A 
ATOM     10  C   UNL     1       1.832   3.835  18.258  0.00  0.00    +0.000 A 
ATOM     11  C   UNL     1       0.906   3.487  19.244  0.00  0.00    +0.000 A 
ATOM     12  C   UNL     1       1.096   3.897  20.556  0.00  0.00    +0.000 A 
ATOM     13  C   UNL     1       2.225   4.636  20.885  0.00  0.00    +0.000 A 
ATOM     14  C   UNL     1       3.173   4.942  19.902  0.00  0.00    +0.000 A 
ENDBRANCH   8   9
ENDBRANCH   2   3
BRANCH   1  15
ATOM     15  C   UNL     1       1.677   8.692  18.729  0.00  0.00    +0.000 C 
BRANCH  15  16
ATOM     16  C   UNL     1       0.629   9.592  18.060  0.00  0.00    +0.000 C 
BRANCH  16  21
ATOM     17  C   UNL     1      -2.608  13.070  21.383  0.00  0.00    +0.000 C 
ATOM     18  N   UNL     1      -1.636  12.549  20.419  0.00  0.00    +0.000 NA
ATOM     19  C   UNL     1      -0.676  11.668  21.101  0.00  0.00    +0.000 C 
ATOM     20  C   UNL     1       0.331  11.063  20.123  0.00  0.00    +0.000 C 
ATOM     21  C   UNL     1      -0.379  10.280  19.001  0.00  0.00    +0.000 C 
ATOM     22  C   UNL     1      -1.333  11.292  18.303  0.00  0.00    +0.000 C 
ATOM     23  C   UNL     1      -2.332  11.833  19.340  0.00  0.00    +0.000 C 
BRANCH  22  24
ATOM     24  C   UNL     1      -2.162  10.730  17.169  0.00  0.00    +0.000 C 
ATOM     25  O   UNL     1      -2.760   9.665  17.204  0.00  0.00    +0.000 OA
BRANCH  24  26
ATOM     26  O   UNL     1      -2.234  11.561  16.101  0.00  0.00    +0.000 OA
ATOM     27  H   UNL     1      -3.142  11.756  15.793  0.00  0.00    +0.000 HD
ENDBRANCH  24  26
ENDBRANCH  22  24
ENDBRANCH  16  21
ENDBRANCH  15  16
ENDBRANCH   1  15
TORSDOF 7
ENDMDL
MODEL 5
REMARK VINA RESULT:      -8.8      2.057      2.710
REMARK  Name = 
REMARK  8 active torsions:
REMARK  status: ('A' for Active; 'I' for Inactive)
REMARK    1  A    between atoms: C_1  and  N_2
REMARK    2  A    between atoms: C_5  and  C_6
REMARK    3  A    between atoms: C_6  and  C_7
REMARK    4  A    between atoms: C_7  and  C_8
REMARK    5  A    between atoms: C_9  and  C_10
REMARK    6  A    between atoms: C_15  and  C_16
REMARK    7  A    between atoms: C_22  and  C_23
REMARK    8  A    between atoms: C_23  and  O_25
REMARK                            x       y       z     vdW  Elec       q    Type
REMARK                         _______ _______ _______ _____ _____    ______ ____
ROOT
ATOM      1  C   UNL     1       2.776   8.219  17.974  0.00  0.00    +0.000 C 
ATOM      2  C   UNL     1       3.551   7.398  17.531  0.00  0.00    +0.000 C 
ENDROOT
BRANCH   2   3
ATOM      3  C   UNL     1       4.235   6.228  17.056  0.00  0.00    +0.000 A 
ATOM      4  C   UNL     1       5.095   6.424  15.957  0.00  0.00    +0.000 A 
ATOM      5  C   UNL     1       5.757   5.352  15.364  0.00  0.00    +0.000 A 
ATOM      6  C   UNL     1       5.592   4.075  15.878  0.00  0.00    +0.000 A 
ATOM      7  C   UNL     1       4.722   3.868  16.950  0.00  0.00    +0.000 A 
ATOM      8  C   UNL     1       3.986   4.921  17.546  0.00  0.00    +0.000 A 
BRANCH   8   9
ATOM      9  C   UNL     1       2.969   4.585  18.592  0.00  0.00    +0.000 A 
ATOM     10  C   UNL     1       1.810   3.843  18.308  0.00  0.00    +0.000 A 
ATOM     11  C   UNL     1       0.892   3.495  19.301  0.00  0.00    +0.000 A 
ATOM     12  C   UNL     1       1.078   3.929  20.606  0.00  0.00    +0.000 A 
ATOM     13  C   UNL     1       2.194   4.693  20.921  0.00  0.00    +0.000 A 
ATOM     14  C   UNL     1       3.135   4.999  19.931  0.00  0.00    +0.000 A 
ENDBRANCH   8   9
ENDBRANCH   2   3
BRANCH   1  15
ATOM     15  C   UNL     1       1.528   8.773  18.503  0.00  0.00    +0.000 C 
BRANCH  15  16
ATOM     16  C   UNL     1       1.309   8.915  20.015  0.00  0.00    +0.000 C 
BRANCH  16  21
ATOM     17  C   UNL     1      -1.336  13.909  21.313  0.00  0.00    +0.000 C 
ATOM     18  N   UNL     1      -1.038  12.556  20.835  0.00  0.00    +0.000 NA
ATOM     19  C   UNL     1       0.038  12.604  19.834  0.00  0.00    +0.000 C 
ATOM     20  C   UNL     1       0.416  11.208  19.341  0.00  0.00    +0.000 C 
ATOM     21  C   UNL     1       0.841  10.297  20.510  0.00  0.00    +0.000 C 
ATOM     22  C   UNL     1      -0.364  10.262  21.494  0.00  0.00    +0.000 C 
ATOM     23  C   UNL     1      -0.664  11.694  21.967  0.00  0.00    +0.000 C 
BRANCH  22  24
ATOM     24  C   UNL     1      -0.161   9.436  22.745  0.00  0.00    +0.000 C 
ATOM     25  O   UNL     1       0.583   9.738  23.666  0.00  0.00    +0.000 OA
BRANCH  24  26
ATOM     26  O   UNL     1      -0.941   8.329  22.783  0.00  0.00    +0.000 OA
ATOM     27  H   UNL     1      -1.885   8.499  22.970  0.00  0.00    +0.000 HD
ENDBRANCH  24  26
ENDBRANCH  22  24
ENDBRANCH  16  21
ENDBRANCH  15  16
ENDBRANCH   1  15
TORSDOF 7
ENDMDL
MODEL 6
REMARK VINA RESULT:      -8.7      1.064      3.424
REMARK  Name = 
REMARK  8 active torsions:
REMARK  status: ('A' for Active; 'I' for Inactive)
REMARK    1  A    between atoms: C_1  and  N_2
REMARK    2  A    between atoms: C_5  and  C_6
REMARK    3  A    between atoms: C_6  and  C_7
REMARK    4  A    between atoms: C_7  and  C_8
REMARK    5  A    between atoms: C_9  and  C_10
REMARK    6  A    between atoms: C_15  and  C_16
REMARK    7  A    between atoms: C_22  and  C_23
REMARK    8  A    between atoms: C_23  and  O_25
REMARK                            x       y       z     vdW  Elec       q    Type
REMARK                         _______ _______ _______ _____ _____    ______ ____
ROOT
ATOM      1  C   UNL     1       2.582   7.768  18.044  0.00  0.00    +0.000 C 
ATOM      2  C   UNL     1       2.695   6.623  18.428  0.00  0.00    +0.000 C 
ENDROOT
BRANCH   2   3
ATOM      3  C   UNL     1       2.654   5.365  19.117  0.00  0.00    +0.000 A 
ATOM      4  C   UNL     1       1.706   5.264  20.155  0.00  0.00    +0.000 A 
ATOM      5  C   UNL     1       1.622   4.118  20.941  0.00  0.00    +0.000 A 
ATOM      6  C   UNL     1       2.464   3.047  20.684  0.00  0.00    +0.000 A 
ATOM      7  C   UNL     1       3.423   3.148  19.675  0.00  0.00    +0.000 A 
ATOM      8  C   UNL     1       3.580   4.315  18.890  0.00  0.00    +0.000 A 
BRANCH   8   9
ATOM      9  C   UNL     1       4.729   4.388  17.933  0.00  0.00    +0.000 A 
ATOM     10  C   UNL     1       4.596   4.089  16.567  0.00  0.00    +0.000 A 
ATOM     11  C   UNL     1       5.664   4.206  15.674  0.00  0.00    +0.000 A 
ATOM     12  C   UNL     1       6.920   4.573  16.136  0.00  0.00    +0.000 A 
ATOM     13  C   UNL     1       7.101   4.846  17.486  0.00  0.00    +0.000 A 
ATOM     14  C   UNL     1       6.017   4.772  18.366  0.00  0.00    +0.000 A 
ENDBRANCH   8   9
ENDBRANCH   2   3
BRANCH   1  15
ATOM     15  C   UNL     1       2.131   9.161  18.016  0.00  0.00    +0.000 C 
BRANCH  15  16
ATOM     16  C   UNL     1       0.640   9.503  17.894  0.00  0.00    +0.000 C 
BRANCH  16  21
ATOM     17  C   UNL     1      -1.191  11.676  22.948  0.00  0.00    +0.000 C 
ATOM     18  N   UNL     1      -0.447  11.421  21.712  0.00  0.00    +0.000 NA
ATOM     19  C   UNL     1       0.086  10.051  21.722  0.00  0.00    +0.000 C 
ATOM     20  C   UNL     1       0.832   9.724  20.428  0.00  0.00    +0.000 C 
ATOM     21  C   UNL     1      -0.074   9.915  19.196  0.00  0.00    +0.000 C 
ATOM     22  C   UNL     1      -0.553  11.395  19.234  0.00  0.00    +0.000 C 
ATOM     23  C   UNL     1      -1.317  11.638  20.547  0.00  0.00    +0.000 C 
BRANCH  22  24
ATOM     24  C   UNL     1      -1.486  11.807  18.118  0.00  0.00    +0.000 C 
ATOM     25  O   UNL     1      -2.586  11.315  17.910  0.00  0.00    +0.000 OA
BRANCH  24  26
ATOM     26  O   UNL     1      -1.010  12.839  17.380  0.00  0.00    +0.000 OA
ATOM     27  H   UNL     1      -1.694  13.364  16.918  0.00  0.00    +0.000 HD
ENDBRANCH  24  26
ENDBRANCH  22  24
ENDBRANCH  16  21
ENDBRANCH  15  16
ENDBRANCH   1  15
TORSDOF 7
ENDMDL
MODEL 7
REMARK VINA RESULT:      -8.6      2.300      3.946
REMARK  Name = 
REMARK  8 active torsions:
REMARK  status: ('A' for Active; 'I' for Inactive)
REMARK    1  A    between atoms: C_1  and  N_2
REMARK    2  A    between atoms: C_5  and  C_6
REMARK    3  A    between atoms: C_6  and  C_7
REMARK    4  A    between atoms: C_7  and  C_8
REMARK    5  A    between atoms: C_9  and  C_10
REMARK    6  A    between atoms: C_15  and  C_16
REMARK    7  A    between atoms: C_22  and  C_23
REMARK    8  A    between atoms: C_23  and  O_25
REMARK                            x       y       z     vdW  Elec       q    Type
REMARK                         _______ _______ _______ _____ _____    ______ ____
ROOT
ATOM      1  C   UNL     1       2.447   8.104  18.251  0.00  0.00    +0.000 C 
ATOM      2  C   UNL     1       2.739   6.927  18.225  0.00  0.00    +0.000 C 
ENDROOT
BRANCH   2   3
ATOM      3  C   UNL     1       2.899   5.528  17.946  0.00  0.00    +0.000 A 
ATOM      4  C   UNL     1       1.712   4.771  17.900  0.00  0.00    +0.000 A 
ATOM      5  C   UNL     1       1.748   3.392  17.709  0.00  0.00    +0.000 A 
ATOM      6  C   UNL     1       2.967   2.755  17.534  0.00  0.00    +0.000 A 
ATOM      7  C   UNL     1       4.149   3.493  17.604  0.00  0.00    +0.000 A 
ATOM      8  C   UNL     1       4.162   4.887  17.853  0.00  0.00    +0.000 A 
BRANCH   8   9
ATOM      9  C   UNL     1       5.479   5.569  18.058  0.00  0.00    +0.000 A 
ATOM     10  C   UNL     1       6.319   5.279  19.146  0.00  0.00    +0.000 A 
ATOM     11  C   UNL     1       7.566   5.887  19.301  0.00  0.00    +0.000 A 
ATOM     12  C   UNL     1       7.989   6.852  18.397  0.00  0.00    +0.000 A 
ATOM     13  C   UNL     1       7.173   7.190  17.325  0.00  0.00    +0.000 A 
ATOM     14  C   UNL     1       5.945   6.543  17.149  0.00  0.00    +0.000 A 
ENDBRANCH   8   9
ENDBRANCH   2   3
BRANCH   1  15
ATOM     15  C   UNL     1       1.843   9.371  17.834  0.00  0.00    +0.000 C 
BRANCH  15  16
ATOM     16  C   UNL     1       0.445   9.775  18.322  0.00  0.00    +0.000 C 
BRANCH  16  21
ATOM     17  C   UNL     1      -0.798  13.490  22.596  0.00  0.00    +0.000 C 
ATOM     18  N   UNL     1      -0.891  12.516  21.506  0.00  0.00    +0.000 NA
ATOM     19  C   UNL     1      -0.290  13.072  20.285  0.00  0.00    +0.000 C 
ATOM     20  C   UNL     1      -0.323  12.070  19.131  0.00  0.00    +0.000 C 
ATOM     21  C   UNL     1       0.395  10.758  19.507  0.00  0.00    +0.000 C 
ATOM     22  C   UNL     1      -0.330  10.214  20.772  0.00  0.00    +0.000 C 
ATOM     23  C   UNL     1      -0.229  11.262  21.894  0.00  0.00    +0.000 C 
BRANCH  22  24
ATOM     24  C   UNL     1       0.228   8.929  21.341  0.00  0.00    +0.000 C 
ATOM     25  O   UNL     1       1.417   8.697  21.507  0.00  0.00    +0.000 OA
BRANCH  24  26
ATOM     26  O   UNL     1      -0.735   8.052  21.716  0.00  0.00    +0.000 OA
ATOM     27  H   UNL     1      -1.194   7.606  20.977  0.00  0.00    +0.000 HD
ENDBRANCH  24  26
ENDBRANCH  22  24
ENDBRANCH  16  21
ENDBRANCH  15  16
ENDBRANCH   1  15
TORSDOF 7
ENDMDL
MODEL 8
REMARK VINA RESULT:      -8.6      1.027      1.033
REMARK  Name = 
REMARK  8 active torsions:
REMARK  status: ('A' for Active; 'I' for Inactive)
REMARK    1  A    between atoms: C_1  and  N_2
REMARK    2  A    between atoms: C_5  and  C_6
REMARK    3  A    between atoms: C_6  and  C_7
REMARK    4  A    between atoms: C_7  and  C_8
REMARK    5  A    between atoms: C_9  and  C_10
REMARK    6  A    between atoms: C_15  and  C_16
REMARK    7  A    between atoms: C_22  and  C_23
REMARK    8  A    between atoms: C_23  and  O_25
REMARK                            x       y       z     vdW  Elec       q    Type
REMARK                         _______ _______ _______ _____ _____    ______ ____
ROOT
ATOM      1  C   UNL     1       2.410   8.201  18.099  0.00  0.00    +0.000 C 
ATOM      2  C   UNL     1       3.095   7.225  17.879  0.00  0.00    +0.000 C 
ENDROOT
BRANCH   2   3
ATOM      3  C   UNL     1       3.944   6.200  17.340  0.00  0.00    +0.000 A 
ATOM      4  C   UNL     1       4.804   6.601  16.299  0.00  0.00    +0.000 A 
ATOM      5  C   UNL     1       5.623   5.680  15.650  0.00  0.00    +0.000 A 
ATOM      6  C   UNL     1       5.613   4.353  16.051  0.00  0.00    +0.000 A 
ATOM      7  C   UNL     1       4.745   3.942  17.064  0.00  0.00    +0.000 A 
ATOM      8  C   UNL     1       3.856   4.834  17.711  0.00  0.00    +0.000 A 
BRANCH   8   9
ATOM      9  C   UNL     1       2.860   4.279  18.680  0.00  0.00    +0.000 A 
ATOM     10  C   UNL     1       2.968   4.468  20.068  0.00  0.00    +0.000 A 
ATOM     11  C   UNL     1       2.007   3.986  20.959  0.00  0.00    +0.000 A 
ATOM     12  C   UNL     1       0.932   3.244  20.490  0.00  0.00    +0.000 A 
ATOM     13  C   UNL     1       0.806   3.007  19.127  0.00  0.00    +0.000 A 
ATOM     14  C   UNL     1       1.747   3.533  18.236  0.00  0.00    +0.000 A 
ENDBRANCH   8   9
ENDBRANCH   2   3
BRANCH   1  15
ATOM     15  C   UNL     1       1.766   9.497  17.875  0.00  0.00    +0.000 C 
BRANCH  15  16
ATOM     16  C   UNL     1       0.260   9.679  18.107  0.00  0.00    +0.000 C 
BRANCH  16  21
ATOM     17  C   UNL     1      -0.566  14.417  21.346  0.00  0.00    +0.000 C 
ATOM     18  N   UNL     1      -0.146  13.484  20.297  0.00  0.00    +0.000 NA
ATOM     19  C   UNL     1       0.655  12.400  20.883  0.00  0.00    +0.000 C 
ATOM     20  C   UNL     1       1.077  11.375  19.830  0.00  0.00    +0.000 C 
ATOM     21  C   UNL     1      -0.147  10.778  19.108  0.00  0.00    +0.000 C 
ATOM     22  C   UNL     1      -0.909  11.980  18.479  0.00  0.00    +0.000 C 
ATOM     23  C   UNL     1      -1.324  12.949  19.599  0.00  0.00    +0.000 C 
BRANCH  22  24
ATOM     24  C   UNL     1      -2.176  11.630  17.730  0.00  0.00    +0.000 C 
ATOM     25  O   UNL     1      -3.237  11.330  18.257  0.00  0.00    +0.000 OA
BRANCH  24  26
ATOM     26  O   UNL     1      -2.045  11.736  16.385  0.00  0.00    +0.000 OA
ATOM     27  H   UNL     1      -2.882  11.670  15.885  0.00  0.00    +0.000 HD
ENDBRANCH  24  26
ENDBRANCH  22  24
ENDBRANCH  16  21
ENDBRANCH  15  16
ENDBRANCH   1  15
TORSDOF 7
ENDMDL
MODEL 9
REMARK VINA RESULT:      -8.6      1.766      2.198
REMARK  Name = 
REMARK  8 active torsions:
REMARK  status: ('A' for Active; 'I' for Inactive)
REMARK    1  A    between atoms: C_1  and  N_2
REMARK    2  A    between atoms: C_5  and  C_6
REMARK    3  A    between atoms: C_6  and  C_7
REMARK    4  A    between atoms: C_7  and  C_8
REMARK    5  A    between atoms: C_9  and  C_10
REMARK    6  A    between atoms: C_15  and  C_16
REMARK    7  A    between atoms: C_22  and  C_23
REMARK    8  A    between atoms: C_23  and  O_25
REMARK                            x       y       z     vdW  Elec       q    Type
REMARK                         _______ _______ _______ _____ _____    ______ ____
ROOT
ATOM      1  C   UNL     1       2.576   8.161  18.104  0.00  0.00    +0.000 C 
ATOM      2  C   UNL     1       3.227   7.171  17.845  0.00  0.00    +0.000 C 
ENDROOT
BRANCH   2   3
ATOM      3  C   UNL     1       4.034   6.135  17.264  0.00  0.00    +0.000 A 
ATOM      4  C   UNL     1       4.888   6.537  16.218  0.00  0.00    +0.000 A 
ATOM      5  C   UNL     1       5.665   5.609  15.529  0.00  0.00    +0.000 A 
ATOM      6  C   UNL     1       5.621   4.272  15.895  0.00  0.00    +0.000 A 
ATOM      7  C   UNL     1       4.758   3.861  16.913  0.00  0.00    +0.000 A 
ATOM      8  C   UNL     1       3.910   4.763  17.600  0.00  0.00    +0.000 A 
BRANCH   8   9
ATOM      9  C   UNL     1       2.914   4.212  18.573  0.00  0.00    +0.000 A 
ATOM     10  C   UNL     1       3.048   4.369  19.962  0.00  0.00    +0.000 A 
ATOM     11  C   UNL     1       2.088   3.892  20.858  0.00  0.00    +0.000 A 
ATOM     12  C   UNL     1       0.986   3.190  20.390  0.00  0.00    +0.000 A 
ATOM     13  C   UNL     1       0.834   2.985  19.024  0.00  0.00    +0.000 A 
ATOM     14  C   UNL     1       1.775   3.506  18.130  0.00  0.00    +0.000 A 
ENDBRANCH   8   9
ENDBRANCH   2   3
BRANCH   1  15
ATOM     15  C   UNL     1       1.964   9.478  17.923  0.00  0.00    +0.000 C 
BRANCH  15  16
ATOM     16  C   UNL     1       0.452   9.675  18.101  0.00  0.00    +0.000 C 
BRANCH  16  21
ATOM     17  C   UNL     1      -2.159  13.478  21.614  0.00  0.00    +0.000 C 
ATOM     18  N   UNL     1      -1.865  12.334  20.746  0.00  0.00    +0.000 NA
ATOM     19  C   UNL     1      -1.481  12.809  19.408  0.00  0.00    +0.000 C 
ATOM     20  C   UNL     1      -1.119  11.649  18.479  0.00  0.00    +0.000 C 
ATOM     21  C   UNL     1       0.019  10.794  19.069  0.00  0.00    +0.000 C 
ATOM     22  C   UNL     1      -0.485  10.295  20.454  0.00  0.00    +0.000 C 
ATOM     23  C   UNL     1      -0.799  11.513  21.339  0.00  0.00    +0.000 C 
BRANCH  22  24
ATOM     24  C   UNL     1       0.491   9.444  21.235  0.00  0.00    +0.000 C 
ATOM     25  O   UNL     1       0.558   8.225  21.174  0.00  0.00    +0.000 OA
BRANCH  24  26
ATOM     26  O   UNL     1       1.349  10.174  21.988  0.00  0.00    +0.000 OA
ATOM     27  H   UNL     1       1.945   9.649  22.558  0.00  0.00    +0.000 HD
ENDBRANCH  24  26
ENDBRANCH  22  24
ENDBRANCH  16  21
ENDBRANCH  15  16
ENDBRANCH   1  15
TORSDOF 7
ENDMDL
