MODEL 1
REMARK VINA RESULT:      -6.0      0.000      0.000
REMARK  Name = 
REMARK  2 active torsions:
REMARK  status: ('A' for Active; 'I' for Inactive)
REMARK    1  A    between atoms: O_1  and  C_2
REMARK    2  A    between atoms: C_7  and  C_8
REMARK                            x       y       z     vdW  Elec       q    Type
REMARK                         _______ _______ _______ _____ _____    ______ ____
ROOT
ATOM      1  C   UNL     1      -4.178  13.242  21.147  0.00  0.00    +0.000 C 
ATOM      2  C   UNL     1      -3.055  14.221  21.571  0.00  0.00    +0.000 C 
ATOM      3  C   UNL     1      -1.671  13.935  20.968  0.00  0.00    +0.000 C 
ATOM      4  N   UNL     1      -1.544  14.360  19.580  0.00  0.00    +0.000 NA
ATOM      5  C   UNL     1      -0.298  13.931  18.941  0.00  0.00    +0.000 C 
ATOM      6  C   UNL     1      -0.191  12.408  18.663  0.00  0.00    +0.000 C 
ATOM      7  N   UNL     1      -1.270  11.941  17.806  0.00  0.00    +0.000 NA
ATOM      8  C   UNL     1      -1.440  10.505  17.761  0.00  0.00    +0.000 C 
ATOM      9  C   UNL     1      -2.629  10.079  16.883  0.00  0.00    +0.000 C 
ATOM     10  C   UNL     1      -4.008  10.508  17.409  0.00  0.00    +0.000 C 
ATOM     11  N   UNL     1      -4.321  11.898  17.091  0.00  0.00    +0.000 NA
ATOM     12  C   UNL     1      -5.564  12.379  17.703  0.00  0.00    +0.000 C 
ATOM     13  C   UNL     1      -5.555  12.491  19.249  0.00  0.00    +0.000 C 
ATOM     14  N   UNL     1      -4.542  13.431  19.729  0.00  0.00    +0.000 NA
ATOM     15  H   UNL     1      -1.673  15.363  19.496  0.00  0.00    +0.000 HD
ATOM     16  H   UNL     1      -1.263  12.377  16.890  0.00  0.00    +0.000 HD
ATOM     17  H   UNL     1      -4.342  12.040  16.086  0.00  0.00    +0.000 HD
ATOM     18  H   UNL     1      -4.869  14.386  19.601  0.00  0.00    +0.000 HD
ENDROOT
BRANCH   1  24
ATOM     19  C   UNL     1      -6.176  14.574  22.000  0.00  0.00    +0.000 A 
ATOM     20  C   UNL     1      -7.238  14.730  22.887  0.00  0.00    +0.000 A 
ATOM     21  C   UNL     1      -7.470  13.749  23.842  0.00  0.00    +0.000 A 
ATOM     22  C   UNL     1      -6.637  12.641  23.867  0.00  0.00    +0.000 A 
ATOM     23  N   UNL     1      -5.607  12.457  23.016  0.00  0.00    +0.000 NA
ATOM     24  C   UNL     1      -5.364  13.438  22.099  0.00  0.00    +0.000 A 
BRANCH  19  25
ATOM     25  O   UNL     1      -5.937  15.519  21.044  0.00  0.00    +0.000 OA
ATOM     26  H   UNL     1      -6.554  15.387  20.305  0.00  0.00    +0.000 HD
ENDBRANCH  19  25
ENDBRANCH   1  24
TORSDOF 2
ENDMDL
MODEL 2
REMARK VINA RESULT:      -5.9      1.233      1.481
REMARK  Name = 
REMARK  2 active torsions:
REMARK  status: ('A' for Active; 'I' for Inactive)
REMARK    1  A    between atoms: O_1  and  C_2
REMARK    2  A    between atoms: C_7  and  C_8
REMARK                            x       y       z     vdW  Elec       q    Type
REMARK                         _______ _______ _______ _____ _____    ______ ____
ROOT
ATOM      1  C   UNL     1      -4.026  13.398  21.123  0.00  0.00    +0.000 C 
ATOM      2  C   UNL     1      -3.007  14.510  21.476  0.00  0.00    +0.000 C 
ATOM      3  C   UNL     1      -1.595  14.314  20.905  0.00  0.00    +0.000 C 
ATOM      4  N   UNL     1      -1.491  14.642  19.489  0.00  0.00    +0.000 NA
ATOM      5  C   UNL     1      -0.200  14.287  18.893  0.00  0.00    +0.000 C 
ATOM      6  C   UNL     1       0.055  12.765  18.734  0.00  0.00    +0.000 C 
ATOM      7  N   UNL     1      -0.962  12.132  17.910  0.00  0.00    +0.000 NA
ATOM      8  C   UNL     1      -0.994  10.687  17.975  0.00  0.00    +0.000 C 
ATOM      9  C   UNL     1      -2.125  10.083  17.125  0.00  0.00    +0.000 C 
ATOM     10  C   UNL     1      -3.545  10.415  17.608  0.00  0.00    +0.000 C 
ATOM     11  N   UNL     1      -3.986  11.740  17.182  0.00  0.00    +0.000 NA
ATOM     12  C   UNL     1      -5.277  12.145  17.747  0.00  0.00    +0.000 C 
ATOM     13  C   UNL     1      -5.300  12.375  19.280  0.00  0.00    +0.000 C 
ATOM     14  N   UNL     1      -4.387  13.442  19.692  0.00  0.00    +0.000 NA
ATOM     15  H   UNL     1      -1.714  15.619  19.327  0.00  0.00    +0.000 HD
ATOM     16  H   UNL     1      -0.985  12.495  16.962  0.00  0.00    +0.000 HD
ATOM     17  H   UNL     1      -4.007  11.803  16.169  0.00  0.00    +0.000 HD
ATOM     18  H   UNL     1      -4.802  14.349  19.489  0.00  0.00    +0.000 HD
ENDROOT
BRANCH   1  24
ATOM     19  C   UNL     1      -5.288  12.871  23.272  0.00  0.00    +0.000 A 
ATOM     20  C   UNL     1      -6.408  13.019  24.086  0.00  0.00    +0.000 A 
ATOM     21  C   UNL     1      -7.444  13.845  23.668  0.00  0.00    +0.000 A 
ATOM     22  C   UNL     1      -7.315  14.503  22.455  0.00  0.00    +0.000 A 
ATOM     23  N   UNL     1      -6.239  14.387  21.649  0.00  0.00    +0.000 NA
ATOM     24  C   UNL     1      -5.238  13.551  22.049  0.00  0.00    +0.000 A 
BRANCH  19  25
ATOM     25  O   UNL     1      -4.253  12.075  23.669  0.00  0.00    +0.000 OA
ATOM     26  H   UNL     1      -3.490  12.633  23.892  0.00  0.00    +0.000 HD
ENDBRANCH  19  25
ENDBRANCH   1  24
TORSDOF 2
ENDMDL
MODEL 3
REMARK VINA RESULT:      -5.8      2.211      6.445
REMARK  Name = 
REMARK  2 active torsions:
REMARK  status: ('A' for Active; 'I' for Inactive)
REMARK    1  A    between atoms: O_1  and  C_2
REMARK    2  A    between atoms: C_7  and  C_8
REMARK                            x       y       z     vdW  Elec       q    Type
REMARK                         _______ _______ _______ _____ _____    ______ ____
ROOT
ATOM      1  C   UNL     1      -2.743  11.687  18.985  0.00  0.00    +0.000 C 
ATOM      2  C   UNL     1      -3.236  11.544  17.524  0.00  0.00    +0.000 C 
ATOM      3  C   UNL     1      -4.758  11.414  17.353  0.00  0.00    +0.000 C 
ATOM      4  N   UNL     1      -5.467  12.679  17.489  0.00  0.00    +0.000 NA
ATOM      5  C   UNL     1      -6.926  12.541  17.510  0.00  0.00    +0.000 C 
ATOM      6  C   UNL     1      -7.506  11.881  18.789  0.00  0.00    +0.000 C 
ATOM      7  N   UNL     1      -7.151  12.626  19.986  0.00  0.00    +0.000 NA
ATOM      8  C   UNL     1      -7.363  11.922  21.232  0.00  0.00    +0.000 C 
ATOM      9  C   UNL     1      -6.918  12.741  22.456  0.00  0.00    +0.000 C 
ATOM     10  C   UNL     1      -5.407  13.008  22.540  0.00  0.00    +0.000 C 
ATOM     11  N   UNL     1      -4.987  14.119  21.692  0.00  0.00    +0.000 NA
ATOM     12  C   UNL     1      -3.533  14.306  21.639  0.00  0.00    +0.000 C 
ATOM     13  C   UNL     1      -2.732  13.173  20.949  0.00  0.00    +0.000 C 
ATOM     14  N   UNL     1      -3.114  13.000  19.547  0.00  0.00    +0.000 NA
ATOM     15  H   UNL     1      -5.171  13.339  16.777  0.00  0.00    +0.000 HD
ATOM     16  H   UNL     1      -7.520  13.571  19.987  0.00  0.00    +0.000 HD
ATOM     17  H   UNL     1      -5.445  14.980  21.975  0.00  0.00    +0.000 HD
ATOM     18  H   UNL     1      -2.687  13.729  18.980  0.00  0.00    +0.000 HD
ENDROOT
BRANCH   1  24
ATOM     19  C   UNL     1      -0.343  12.402  18.516  0.00  0.00    +0.000 A 
ATOM     20  C   UNL     1       1.024  12.140  18.534  0.00  0.00    +0.000 A 
ATOM     21  C   UNL     1       1.474  10.929  19.045  0.00  0.00    +0.000 A 
ATOM     22  C   UNL     1       0.538  10.028  19.529  0.00  0.00    +0.000 A 
ATOM     23  N   UNL     1      -0.792  10.257  19.534  0.00  0.00    +0.000 NA
ATOM     24  C   UNL     1      -1.231  11.436  19.004  0.00  0.00    +0.000 A 
BRANCH  19  25
ATOM     25  O   UNL     1      -0.807  13.591  18.031  0.00  0.00    +0.000 OA
ATOM     26  H   UNL     1      -1.093  14.148  18.775  0.00  0.00    +0.000 HD
ENDBRANCH  19  25
ENDBRANCH   1  24
TORSDOF 2
ENDMDL
MODEL 4
REMARK VINA RESULT:      -5.7      1.421      1.654
REMARK  Name = 
REMARK  2 active torsions:
REMARK  status: ('A' for Active; 'I' for Inactive)
REMARK    1  A    between atoms: O_1  and  C_2
REMARK    2  A    between atoms: C_7  and  C_8
REMARK                            x       y       z     vdW  Elec       q    Type
REMARK                         _______ _______ _______ _____ _____    ______ ____
ROOT
ATOM      1  C   UNL     1      -4.820  13.318  21.257  0.00  0.00    +0.000 C 
ATOM      2  C   UNL     1      -3.492  13.883  21.820  0.00  0.00    +0.000 C 
ATOM      3  C   UNL     1      -2.218  13.395  21.114  0.00  0.00    +0.000 C 
ATOM      4  N   UNL     1      -1.976  14.048  19.835  0.00  0.00    +0.000 NA
ATOM      5  C   UNL     1      -0.870  13.464  19.071  0.00  0.00    +0.000 C 
ATOM      6  C   UNL     1      -1.144  12.051  18.492  0.00  0.00    +0.000 C 
ATOM      7  N   UNL     1      -2.297  12.048  17.606  0.00  0.00    +0.000 NA
ATOM      8  C   UNL     1      -2.820  10.738  17.283  0.00  0.00    +0.000 C 
ATOM      9  C   UNL     1      -4.069  10.805  16.389  0.00  0.00    +0.000 C 
ATOM     10  C   UNL     1      -5.302  11.443  17.047  0.00  0.00    +0.000 C 
ATOM     11  N   UNL     1      -5.256  12.902  17.025  0.00  0.00    +0.000 NA
ATOM     12  C   UNL     1      -6.345  13.539  17.771  0.00  0.00    +0.000 C 
ATOM     13  C   UNL     1      -6.323  13.330  19.307  0.00  0.00    +0.000 C 
ATOM     14  N   UNL     1      -5.112  13.874  19.922  0.00  0.00    +0.000 NA
ATOM     15  H   UNL     1      -1.851  15.048  19.957  0.00  0.00    +0.000 HD
ATOM     16  H   UNL     1      -2.173  12.645  16.795  0.00  0.00    +0.000 HD
ATOM     17  H   UNL     1      -5.232  13.246  16.070  0.00  0.00    +0.000 HD
ATOM     18  H   UNL     1      -5.189  14.886  20.000  0.00  0.00    +0.000 HD
ENDROOT
BRANCH   1  24
ATOM     19  C   UNL     1      -6.902  12.635  22.558  0.00  0.00    +0.000 A 
ATOM     20  C   UNL     1      -7.904  12.927  23.480  0.00  0.00    +0.000 A 
ATOM     21  C   UNL     1      -7.907  14.167  24.105  0.00  0.00    +0.000 A 
ATOM     22  C   UNL     1      -6.899  15.067  23.793  0.00  0.00    +0.000 A 
ATOM     23  N   UNL     1      -5.910  14.810  22.912  0.00  0.00    +0.000 NA
ATOM     24  C   UNL     1      -5.928  13.602  22.278  0.00  0.00    +0.000 A 
BRANCH  19  25
ATOM     25  O   UNL     1      -6.871  11.418  21.941  0.00  0.00    +0.000 OA
ATOM     26  H   UNL     1      -7.219  11.509  21.038  0.00  0.00    +0.000 HD
ENDBRANCH  19  25
ENDBRANCH   1  24
TORSDOF 2
ENDMDL
MODEL 5
REMARK VINA RESULT:      -5.6      2.625      6.973
REMARK  Name = 
REMARK  2 active torsions:
REMARK  status: ('A' for Active; 'I' for Inactive)
REMARK    1  A    between atoms: O_1  and  C_2
REMARK    2  A    between atoms: C_7  and  C_8
REMARK                            x       y       z     vdW  Elec       q    Type
REMARK                         _______ _______ _______ _____ _____    ______ ____
ROOT
ATOM      1  C   UNL     1      -1.507  10.695  18.860  0.00  0.00    +0.000 C 
ATOM      2  C   UNL     1      -2.367  10.089  17.724  0.00  0.00    +0.000 C 
ATOM      3  C   UNL     1      -3.841  10.521  17.714  0.00  0.00    +0.000 C 
ATOM      4  N   UNL     1      -4.050  11.862  17.183  0.00  0.00    +0.000 NA
ATOM      5  C   UNL     1      -5.422  12.352  17.336  0.00  0.00    +0.000 C 
ATOM      6  C   UNL     1      -5.846  12.678  18.793  0.00  0.00    +0.000 C 
ATOM      7  N   UNL     1      -4.984  13.685  19.392  0.00  0.00    +0.000 NA
ATOM      8  C   UNL     1      -5.094  13.812  20.828  0.00  0.00    +0.000 C 
ATOM      9  C   UNL     1      -4.119  14.853  21.405  0.00  0.00    +0.000 C 
ATOM     10  C   UNL     1      -2.632  14.492  21.269  0.00  0.00    +0.000 C 
ATOM     11  N   UNL     1      -2.103  14.788  19.941  0.00  0.00    +0.000 NA
ATOM     12  C   UNL     1      -0.728  14.323  19.735  0.00  0.00    +0.000 C 
ATOM     13  C   UNL     1      -0.531  12.785  19.724  0.00  0.00    +0.000 C 
ATOM     14  N   UNL     1      -1.285  12.139  18.649  0.00  0.00    +0.000 NA
ATOM     15  H   UNL     1      -3.745  11.920  16.217  0.00  0.00    +0.000 HD
ATOM     16  H   UNL     1      -5.018  14.574  18.903  0.00  0.00    +0.000 HD
ATOM     17  H   UNL     1      -2.175  15.781  19.740  0.00  0.00    +0.000 HD
ATOM     18  H   UNL     1      -0.802  12.268  17.763  0.00  0.00    +0.000 HD
ENDROOT
BRANCH   1  24
ATOM     19  C   UNL     1       0.237   9.379  20.171  0.00  0.00    +0.000 A 
ATOM     20  C   UNL     1       1.434   8.669  20.219  0.00  0.00    +0.000 A 
ATOM     21  C   UNL     1       2.160   8.486  19.049  0.00  0.00    +0.000 A 
ATOM     22  C   UNL     1       1.654   9.010  17.870  0.00  0.00    +0.000 A 
ATOM     23  N   UNL     1       0.493   9.694  17.789  0.00  0.00    +0.000 NA
ATOM     24  C   UNL     1      -0.201   9.897  18.946  0.00  0.00    +0.000 A 
BRANCH  19  25
ATOM     25  O   UNL     1      -0.499   9.559  21.306  0.00  0.00    +0.000 OA
ATOM     26  H   UNL     1      -0.248  10.403  21.717  0.00  0.00    +0.000 HD
ENDBRANCH  19  25
ENDBRANCH   1  24
TORSDOF 2
ENDMDL
MODEL 6
REMARK VINA RESULT:      -5.4      2.248      6.104
REMARK  Name = 
REMARK  2 active torsions:
REMARK  status: ('A' for Active; 'I' for Inactive)
REMARK    1  A    between atoms: O_1  and  C_2
REMARK    2  A    between atoms: C_7  and  C_8
REMARK                            x       y       z     vdW  Elec       q    Type
REMARK                         _______ _______ _______ _____ _____    ______ ____
ROOT
ATOM      1  C   UNL     1      -2.549  12.161  19.650  0.00  0.00    +0.000 C 
ATOM      2  C   UNL     1      -2.727  11.836  18.146  0.00  0.00    +0.000 C 
ATOM      3  C   UNL     1      -4.127  11.351  17.739  0.00  0.00    +0.000 C 
ATOM      4  N   UNL     1      -5.107  12.425  17.642  0.00  0.00    +0.000 NA
ATOM      5  C   UNL     1      -6.479  11.957  17.434  0.00  0.00    +0.000 C 
ATOM      6  C   UNL     1      -7.125  11.247  18.654  0.00  0.00    +0.000 C 
ATOM      7  N   UNL     1      -7.162  12.113  19.821  0.00  0.00    +0.000 NA
ATOM      8  C   UNL     1      -7.439  11.443  21.073  0.00  0.00    +0.000 C 
ATOM      9  C   UNL     1      -7.411  12.403  22.275  0.00  0.00    +0.000 C 
ATOM     10  C   UNL     1      -6.035  13.013  22.583  0.00  0.00    +0.000 C 
ATOM     11  N   UNL     1      -5.720  14.147  21.719  0.00  0.00    +0.000 NA
ATOM     12  C   UNL     1      -4.357  14.660  21.890  0.00  0.00    +0.000 C 
ATOM     13  C   UNL     1      -3.217  13.707  21.446  0.00  0.00    +0.000 C 
ATOM     14  N   UNL     1      -3.292  13.381  20.022  0.00  0.00    +0.000 NA
ATOM     15  H   UNL     1      -4.837  13.098  16.932  0.00  0.00    +0.000 HD
ATOM     16  H   UNL     1      -7.722  12.947  19.676  0.00  0.00    +0.000 HD
ATOM     17  H   UNL     1      -6.397  14.893  21.844  0.00  0.00    +0.000 HD
ATOM     18  H   UNL     1      -2.939  14.159  19.470  0.00  0.00    +0.000 HD
ENDROOT
BRANCH   1  24
ATOM     19  C   UNL     1      -0.313  13.372  19.499  0.00  0.00    +0.000 A 
ATOM     20  C   UNL     1       1.053  13.433  19.767  0.00  0.00    +0.000 A 
ATOM     21  C   UNL     1       1.649  12.396  20.473  0.00  0.00    +0.000 A 
ATOM     22  C   UNL     1       0.854  11.342  20.896  0.00  0.00    +0.000 A 
ATOM     23  N   UNL     1      -0.471  11.260  20.661  0.00  0.00    +0.000 NA
ATOM     24  C   UNL     1      -1.047  12.265  19.940  0.00  0.00    +0.000 A 
BRANCH  19  25
ATOM     25  O   UNL     1      -0.923  14.386  18.818  0.00  0.00    +0.000 OA
ATOM     26  H   UNL     1      -1.845  14.460  19.117  0.00  0.00    +0.000 HD
ENDBRANCH  19  25
ENDBRANCH   1  24
TORSDOF 2
ENDMDL
MODEL 7
REMARK VINA RESULT:      -5.4      2.122      5.843
REMARK  Name = 
REMARK  2 active torsions:
REMARK  status: ('A' for Active; 'I' for Inactive)
REMARK    1  A    between atoms: O_1  and  C_2
REMARK    2  A    between atoms: C_7  and  C_8
REMARK                            x       y       z     vdW  Elec       q    Type
REMARK                         _______ _______ _______ _____ _____    ______ ____
ROOT
ATOM      1  C   UNL     1      -2.461  12.671  19.767  0.00  0.00    +0.000 C 
ATOM      2  C   UNL     1      -2.553  12.698  21.312  0.00  0.00    +0.000 C 
ATOM      3  C   UNL     1      -3.866  13.255  21.884  0.00  0.00    +0.000 C 
ATOM      4  N   UNL     1      -4.974  12.313  21.815  0.00  0.00    +0.000 NA
ATOM      5  C   UNL     1      -6.268  12.892  22.187  0.00  0.00    +0.000 C 
ATOM      6  C   UNL     1      -6.848  13.912  21.172  0.00  0.00    +0.000 C 
ATOM      7  N   UNL     1      -7.031  13.317  19.858  0.00  0.00    +0.000 NA
ATOM      8  C   UNL     1      -7.253  14.260  18.783  0.00  0.00    +0.000 C 
ATOM      9  C   UNL     1      -7.384  13.572  17.413  0.00  0.00    +0.000 C 
ATOM     10  C   UNL     1      -6.109  12.875  16.915  0.00  0.00    +0.000 C 
ATOM     11  N   UNL     1      -5.921  11.557  17.514  0.00  0.00    +0.000 NA
ATOM     12  C   UNL     1      -4.642  10.928  17.170  0.00  0.00    +0.000 C 
ATOM     13  C   UNL     1      -3.375  11.622  17.734  0.00  0.00    +0.000 C 
ATOM     14  N   UNL     1      -3.368  11.654  19.197  0.00  0.00    +0.000 NA
ATOM     15  H   UNL     1      -4.775  11.480  22.360  0.00  0.00    +0.000 HD
ATOM     16  H   UNL     1      -7.691  12.546  19.862  0.00  0.00    +0.000 HD
ATOM     17  H   UNL     1      -6.693  10.942  17.279  0.00  0.00    +0.000 HD
ATOM     18  H   UNL     1      -3.103  10.741  19.561  0.00  0.00    +0.000 HD
ENDROOT
BRANCH   1  24
ATOM     19  C   UNL     1      -0.233  13.489  18.841  0.00  0.00    +0.000 A 
ATOM     20  C   UNL     1       1.092  13.251  18.487  0.00  0.00    +0.000 A 
ATOM     21  C   UNL     1       1.628  11.985  18.688  0.00  0.00    +0.000 A 
ATOM     22  C   UNL     1       0.820  11.007  19.245  0.00  0.00    +0.000 A 
ATOM     23  N   UNL     1      -0.463  11.209  19.606  0.00  0.00    +0.000 NA
ATOM     24  C   UNL     1      -0.995  12.446  19.380  0.00  0.00    +0.000 A 
BRANCH  19  25
ATOM     25  O   UNL     1      -0.777  14.729  18.666  0.00  0.00    +0.000 OA
ATOM     26  H   UNL     1      -0.255  15.379  19.166  0.00  0.00    +0.000 HD
ENDBRANCH  19  25
ENDBRANCH   1  24
TORSDOF 2
ENDMDL
MODEL 8
REMARK VINA RESULT:      -5.3      1.583      2.023
REMARK  Name = 
REMARK  2 active torsions:
REMARK  status: ('A' for Active; 'I' for Inactive)
REMARK    1  A    between atoms: O_1  and  C_2
REMARK    2  A    between atoms: C_7  and  C_8
REMARK                            x       y       z     vdW  Elec       q    Type
REMARK                         _______ _______ _______ _____ _____    ______ ____
ROOT
ATOM      1  C   UNL     1      -3.767  13.070  20.456  0.00  0.00    +0.000 C 
ATOM      2  C   UNL     1      -3.214  14.433  20.938  0.00  0.00    +0.000 C 
ATOM      3  C   UNL     1      -1.683  14.543  20.985  0.00  0.00    +0.000 C 
ATOM      4  N   UNL     1      -1.074  14.737  19.676  0.00  0.00    +0.000 NA
ATOM      5  C   UNL     1       0.389  14.660  19.686  0.00  0.00    +0.000 C 
ATOM      6  C   UNL     1       0.972  13.244  19.936  0.00  0.00    +0.000 C 
ATOM      7  N   UNL     1       0.521  12.292  18.933  0.00  0.00    +0.000 NA
ATOM      8  C   UNL     1       0.741  10.901  19.263  0.00  0.00    +0.000 C 
ATOM      9  C   UNL     1       0.193   9.946  18.190  0.00  0.00    +0.000 C 
ATOM     10  C   UNL     1      -1.335   9.956  18.034  0.00  0.00    +0.000 C 
ATOM     11  N   UNL     1      -1.807  11.075  17.223  0.00  0.00    +0.000 NA
ATOM     12  C   UNL     1      -3.267  11.196  17.174  0.00  0.00    +0.000 C 
ATOM     13  C   UNL     1      -3.957  11.572  18.511  0.00  0.00    +0.000 C 
ATOM     14  N   UNL     1      -3.515  12.872  19.015  0.00  0.00    +0.000 NA
ATOM     15  H   UNL     1      -1.394  15.603  19.254  0.00  0.00    +0.000 HD
ATOM     16  H   UNL     1       0.818  12.538  17.994  0.00  0.00    +0.000 HD
ATOM     17  H   UNL     1      -1.424  11.024  16.284  0.00  0.00    +0.000 HD
ATOM     18  H   UNL     1      -3.975  13.618  18.498  0.00  0.00    +0.000 HD
ENDROOT
BRANCH   1  24
ATOM     19  C   UNL     1      -6.199  13.726  20.070  0.00  0.00    +0.000 A 
ATOM     20  C   UNL     1      -7.543  13.659  20.428  0.00  0.00    +0.000 A 
ATOM     21  C   UNL     1      -7.916  12.871  21.510  0.00  0.00    +0.000 A 
ATOM     22  C   UNL     1      -6.930  12.170  22.188  0.00  0.00    +0.000 A 
ATOM     23  N   UNL     1      -5.622  12.208  21.859  0.00  0.00    +0.000 NA
ATOM     24  C   UNL     1      -5.257  13.006  20.815  0.00  0.00    +0.000 A 
BRANCH  19  25
ATOM     25  O   UNL     1      -5.811  14.483  19.002  0.00  0.00    +0.000 OA
ATOM     26  H   UNL     1      -4.849  14.610  19.036  0.00  0.00    +0.000 HD
ENDBRANCH  19  25
ENDBRANCH   1  24
TORSDOF 2
ENDMDL
MODEL 9
REMARK VINA RESULT:      -5.3      2.183      6.574
REMARK  Name = 
REMARK  2 active torsions:
REMARK  status: ('A' for Active; 'I' for Inactive)
REMARK    1  A    between atoms: O_1  and  C_2
REMARK    2  A    between atoms: C_7  and  C_8
REMARK                            x       y       z     vdW  Elec       q    Type
REMARK                         _______ _______ _______ _____ _____    ______ ____
ROOT
ATOM      1  C   UNL     1      -4.686  11.529  19.307  0.00  0.00    +0.000 C 
ATOM      2  C   UNL     1      -6.212  11.413  19.070  0.00  0.00    +0.000 C 
ATOM      3  C   UNL     1      -7.083  11.509  20.332  0.00  0.00    +0.000 C 
ATOM      4  N   UNL     1      -7.243  12.871  20.824  0.00  0.00    +0.000 NA
ATOM      5  C   UNL     1      -7.916  12.956  22.123  0.00  0.00    +0.000 C 
ATOM      6  C   UNL     1      -7.089  12.436  23.328  0.00  0.00    +0.000 C 
ATOM      7  N   UNL     1      -5.835  13.159  23.471  0.00  0.00    +0.000 NA
ATOM      8  C   UNL     1      -4.865  12.538  24.347  0.00  0.00    +0.000 C 
ATOM      9  C   UNL     1      -3.543  13.321  24.413  0.00  0.00    +0.000 C 
ATOM     10  C   UNL     1      -2.748  13.359  23.099  0.00  0.00    +0.000 C 
ATOM     11  N   UNL     1      -3.252  14.364  22.168  0.00  0.00    +0.000 NA
ATOM     12  C   UNL     1      -2.608  14.327  20.851  0.00  0.00    +0.000 C 
ATOM     13  C   UNL     1      -2.888  13.062  19.999  0.00  0.00    +0.000 C 
ATOM     14  N   UNL     1      -4.311  12.902  19.698  0.00  0.00    +0.000 NA
ATOM     15  H   UNL     1      -7.705  13.454  20.133  0.00  0.00    +0.000 HD
ATOM     16  H   UNL     1      -5.968  14.149  23.651  0.00  0.00    +0.000 HD
ATOM     17  H   UNL     1      -3.182  15.294  22.571  0.00  0.00    +0.000 HD
ATOM     18  H   UNL     1      -4.579  13.539  18.951  0.00  0.00    +0.000 HD
ENDROOT
BRANCH   1  24
ATOM     19  C   UNL     1      -4.248  11.643  16.800  0.00  0.00    +0.000 A 
ATOM     20  C   UNL     1      -3.590  11.180  15.663  0.00  0.00    +0.000 A 
ATOM     21  C   UNL     1      -2.668  10.150  15.788  0.00  0.00    +0.000 A 
ATOM     22  C   UNL     1      -2.429   9.627  17.050  0.00  0.00    +0.000 A 
ATOM     23  N   UNL     1      -3.042  10.060  18.171  0.00  0.00    +0.000 NA
ATOM     24  C   UNL     1      -3.970  11.053  18.038  0.00  0.00    +0.000 A 
BRANCH  19  25
ATOM     25  O   UNL     1      -5.148  12.665  16.703  0.00  0.00    +0.000 OA
ATOM     26  H   UNL     1      -6.043  12.294  16.628  0.00  0.00    +0.000 HD
ENDBRANCH  19  25
ENDBRANCH   1  24
TORSDOF 2
ENDMDL
