MODEL 1
REMARK VINA RESULT:      -8.3      0.000      0.000
REMARK  Name = 
REMARK  8 active torsions:
REMARK  status: ('A' for Active; 'I' for Inactive)
REMARK    1  A    between atoms: C_1  and  N_2
REMARK    2  A    between atoms: C_5  and  C_6
REMARK    3  A    between atoms: C_6  and  N_7
REMARK    4  A    between atoms: C_9  and  C_10
REMARK    5  A    between atoms: C_15  and  O_16
REMARK    6  A    between atoms: O_16  and  C_17
REMARK    7  A    between atoms: C_17  and  C_18
REMARK    8  A    between atoms: C_18  and  O_19
REMARK                            x       y       z     vdW  Elec       q    Type
REMARK                         _______ _______ _______ _____ _____    ______ ____
ROOT
ATOM      1  N   UNL     1       4.750   5.097  18.451  0.00  0.00    +0.000 N 
ATOM      2  N   UNL     1       4.136   6.295  18.528  0.00  0.00    +0.000 NA
ATOM      3  C   UNL     1       3.001   6.032  19.187  0.00  0.00    +0.000 A 
ATOM      4  C   UNL     1       2.841   4.628  19.423  0.00  0.00    +0.000 A 
ATOM      5  C   UNL     1       1.882   3.742  19.953  0.00  0.00    +0.000 A 
ATOM      6  N   UNL     1       0.604   4.089  20.360  0.00  0.00    +0.000 N 
ATOM      7  N   UNL     1       2.200   2.436  20.045  0.00  0.00    +0.000 NA
ATOM      8  C   UNL     1       3.409   2.035  19.613  0.00  0.00    +0.000 A 
ATOM      9  N   UNL     1       4.376   2.769  19.054  0.00  0.00    +0.000 NA
ATOM     10  C   UNL     1       4.024   4.068  18.981  0.00  0.00    +0.000 A 
ATOM     11  H   UNL     1       0.206   4.894  19.874  0.00  0.00    +0.000 HD
ATOM     12  H   UNL     1       0.023   3.270  20.406  0.00  0.00    +0.000 HD
ENDROOT
BRANCH   3  13
ATOM     13  C   UNL     1       2.105   7.100  19.600  0.00  0.00    +0.000 A 
ATOM     14  C   UNL     1       1.436   7.055  20.832  0.00  0.00    +0.000 A 
ATOM     15  C   UNL     1       0.861   8.221  21.339  0.00  0.00    +0.000 A 
ATOM     16  C   UNL     1       0.952   9.410  20.601  0.00  0.00    +0.000 A 
ATOM     17  C   UNL     1       0.799  10.670  21.182  0.00  0.00    +0.000 A 
ATOM     18  C   UNL     1       1.066  11.799  20.407  0.00  0.00    +0.000 A 
ATOM     19  C   UNL     1       1.040  11.722  19.025  0.00  0.00    +0.000 A 
ATOM     20  C   UNL     1       1.256  10.490  18.443  0.00  0.00    +0.000 A 
ATOM     21  C   UNL     1       1.361   9.364  19.258  0.00  0.00    +0.000 A 
ATOM     22  C   UNL     1       1.978   8.216  18.780  0.00  0.00    +0.000 A 
BRANCH  18  23
ATOM     23  O   UNL     1       1.510  12.877  21.107  0.00  0.00    +0.000 OA
BRANCH  23  24
ATOM     24  C   UNL     1       2.051  13.986  20.367  0.00  0.00    +0.000 C 
BRANCH  24  25
ATOM     25  C   UNL     1       3.393  14.213  21.027  0.00  0.00    +0.000 C 
BRANCH  25  26
ATOM     26  O   UNL     1       3.159  14.510  22.407  0.00  0.00    +0.000 OA
ATOM     27  H   UNL     1       3.935  14.162  22.886  0.00  0.00    +0.000 HD
ENDBRANCH  25  26
ENDBRANCH  24  25
ENDBRANCH  23  24
ENDBRANCH  18  23
ENDBRANCH   3  13
BRANCH   1  28
ATOM     28  C   UNL     1       6.050   4.995  17.808  0.00  0.00    +0.000 C 
BRANCH  28  33
ATOM     29  C   UNL     1       6.415   3.707  12.214  0.00  0.00    +0.000 C 
ATOM     30  N   UNL     1       6.449   3.781  13.676  0.00  0.00    +0.000 NA
ATOM     31  C   UNL     1       7.303   4.894  14.111  0.00  0.00    +0.000 C 
ATOM     32  C   UNL     1       7.393   4.954  15.637  0.00  0.00    +0.000 C 
ATOM     33  C   UNL     1       6.001   5.073  16.274  0.00  0.00    +0.000 C 
ATOM     34  C   UNL     1       5.091   3.960  15.735  0.00  0.00    +0.000 C 
ATOM     35  C   UNL     1       5.087   3.921  14.207  0.00  0.00    +0.000 C 
ENDBRANCH  28  33
ENDBRANCH   1  28
TORSDOF 7
ENDMDL
MODEL 2
REMARK VINA RESULT:      -8.2      5.055     10.265
REMARK  Name = 
REMARK  8 active torsions:
REMARK  status: ('A' for Active; 'I' for Inactive)
REMARK    1  A    between atoms: C_1  and  N_2
REMARK    2  A    between atoms: C_5  and  C_6
REMARK    3  A    between atoms: C_6  and  N_7
REMARK    4  A    between atoms: C_9  and  C_10
REMARK    5  A    between atoms: C_15  and  O_16
REMARK    6  A    between atoms: O_16  and  C_17
REMARK    7  A    between atoms: C_17  and  C_18
REMARK    8  A    between atoms: C_18  and  O_19
REMARK                            x       y       z     vdW  Elec       q    Type
REMARK                         _______ _______ _______ _____ _____    ______ ____
ROOT
ATOM      1  N   UNL     1      -0.160  11.819  21.621  0.00  0.00    +0.000 N 
ATOM      2  N   UNL     1      -0.106  10.553  21.160  0.00  0.00    +0.000 NA
ATOM      3  C   UNL     1       0.760  10.620  20.141  0.00  0.00    +0.000 A 
ATOM      4  C   UNL     1       1.166  11.970  19.881  0.00  0.00    +0.000 A 
ATOM      5  C   UNL     1       1.940  12.685  18.947  0.00  0.00    +0.000 A 
ATOM      6  N   UNL     1       2.519  12.152  17.806  0.00  0.00    +0.000 N 
ATOM      7  N   UNL     1       2.113  14.007  19.138  0.00  0.00    +0.000 NA
ATOM      8  C   UNL     1       1.528  14.586  20.201  0.00  0.00    +0.000 A 
ATOM      9  N   UNL     1       0.739  14.025  21.123  0.00  0.00    +0.000 NA
ATOM     10  C   UNL     1       0.590  12.703  20.900  0.00  0.00    +0.000 A 
ATOM     11  H   UNL     1       2.027  11.349  17.413  0.00  0.00    +0.000 HD
ATOM     12  H   UNL     1       2.749  12.888  17.161  0.00  0.00    +0.000 HD
ENDROOT
BRANCH   3  13
ATOM     13  C   UNL     1       1.204   9.421  19.451  0.00  0.00    +0.000 A 
ATOM     14  C   UNL     1       1.527   9.442  18.086  0.00  0.00    +0.000 A 
ATOM     15  C   UNL     1       2.255   8.384  17.540  0.00  0.00    +0.000 A 
ATOM     16  C   UNL     1       2.637   7.315  18.363  0.00  0.00    +0.000 A 
ATOM     17  C   UNL     1       3.688   6.454  18.040  0.00  0.00    +0.000 A 
ATOM     18  C   UNL     1       4.103   5.522  18.992  0.00  0.00    +0.000 A 
ATOM     19  C   UNL     1       3.254   5.142  20.017  0.00  0.00    +0.000 A 
ATOM     20  C   UNL     1       2.254   6.018  20.385  0.00  0.00    +0.000 A 
ATOM     21  C   UNL     1       2.059   7.177  19.635  0.00  0.00    +0.000 A 
ATOM     22  C   UNL     1       1.381   8.255  20.188  0.00  0.00    +0.000 A 
BRANCH  18  23
ATOM     23  O   UNL     1       5.418   5.182  18.918  0.00  0.00    +0.000 OA
BRANCH  23  24
ATOM     24  C   UNL     1       5.922   4.707  17.658  0.00  0.00    +0.000 C 
BRANCH  24  25
ATOM     25  C   UNL     1       7.348   5.210  17.650  0.00  0.00    +0.000 C 
BRANCH  25  26
ATOM     26  O   UNL     1       8.206   4.099  17.375  0.00  0.00    +0.000 OA
ATOM     27  H   UNL     1       7.796   3.629  16.625  0.00  0.00    +0.000 HD
ENDBRANCH  25  26
ENDBRANCH  24  25
ENDBRANCH  23  24
ENDBRANCH  18  23
ENDBRANCH   3  13
BRANCH   1  28
ATOM     28  C   UNL     1      -1.000  12.131  22.766  0.00  0.00    +0.000 C 
BRANCH  28  33
ATOM     29  C   UNL     1      -6.539  13.047  21.515  0.00  0.00    +0.000 C 
ATOM     30  N   UNL     1      -5.201  12.537  21.819  0.00  0.00    +0.000 NA
ATOM     31  C   UNL     1      -4.256  12.917  20.760  0.00  0.00    +0.000 C 
ATOM     32  C   UNL     1      -2.863  12.347  21.035  0.00  0.00    +0.000 C 
ATOM     33  C   UNL     1      -2.335  12.799  22.404  0.00  0.00    +0.000 C 
ATOM     34  C   UNL     1      -3.376  12.483  23.487  0.00  0.00    +0.000 C 
ATOM     35  C   UNL     1      -4.756  13.034  23.128  0.00  0.00    +0.000 C 
ENDBRANCH  28  33
ENDBRANCH   1  28
TORSDOF 7
ENDMDL
MODEL 3
REMARK VINA RESULT:      -8.2      5.083      9.549
REMARK  Name = 
REMARK  8 active torsions:
REMARK  status: ('A' for Active; 'I' for Inactive)
REMARK    1  A    between atoms: C_1  and  N_2
REMARK    2  A    between atoms: C_5  and  C_6
REMARK    3  A    between atoms: C_6  and  N_7
REMARK    4  A    between atoms: C_9  and  C_10
REMARK    5  A    between atoms: C_15  and  O_16
REMARK    6  A    between atoms: O_16  and  C_17
REMARK    7  A    between atoms: C_17  and  C_18
REMARK    8  A    between atoms: C_18  and  O_19
REMARK                            x       y       z     vdW  Elec       q    Type
REMARK                         _______ _______ _______ _____ _____    ______ ____
ROOT
ATOM      1  N   UNL     1      -0.831  11.225  19.561  0.00  0.00    +0.000 N 
ATOM      2  N   UNL     1      -0.072  10.527  18.690  0.00  0.00    +0.000 NA
ATOM      3  C   UNL     1       0.607   9.676  19.469  0.00  0.00    +0.000 A 
ATOM      4  C   UNL     1       0.364   9.922  20.859  0.00  0.00    +0.000 A 
ATOM      5  C   UNL     1       0.814   9.466  22.113  0.00  0.00    +0.000 A 
ATOM      6  N   UNL     1       1.850   8.570  22.319  0.00  0.00    +0.000 N 
ATOM      7  N   UNL     1       0.227   9.958  23.221  0.00  0.00    +0.000 NA
ATOM      8  C   UNL     1      -0.749  10.873  23.081  0.00  0.00    +0.000 A 
ATOM      9  N   UNL     1      -1.226  11.413  21.955  0.00  0.00    +0.000 NA
ATOM     10  C   UNL     1      -0.616  10.895  20.869  0.00  0.00    +0.000 A 
ATOM     11  H   UNL     1       2.569   8.576  21.594  0.00  0.00    +0.000 HD
ATOM     12  H   UNL     1       2.179   8.634  23.267  0.00  0.00    +0.000 HD
ENDROOT
BRANCH   3  13
ATOM     13  C   UNL     1       1.450   8.640  18.894  0.00  0.00    +0.000 A 
ATOM     14  C   UNL     1       2.217   8.879  17.744  0.00  0.00    +0.000 A 
ATOM     15  C   UNL     1       3.249   7.998  17.417  0.00  0.00    +0.000 A 
ATOM     16  C   UNL     1       3.489   6.886  18.236  0.00  0.00    +0.000 A 
ATOM     17  C   UNL     1       4.710   6.210  18.249  0.00  0.00    +0.000 A 
ATOM     18  C   UNL     1       4.915   5.218  19.210  0.00  0.00    +0.000 A 
ATOM     19  C   UNL     1       3.836   4.607  19.826  0.00  0.00    +0.000 A 
ATOM     20  C   UNL     1       2.644   5.299  19.875  0.00  0.00    +0.000 A 
ATOM     21  C   UNL     1       2.536   6.513  19.198  0.00  0.00    +0.000 A 
ATOM     22  C   UNL     1       1.545   7.419  19.551  0.00  0.00    +0.000 A 
BRANCH  18  23
ATOM     23  O   UNL     1       6.210   5.054  19.590  0.00  0.00    +0.000 OA
BRANCH  23  24
ATOM     24  C   UNL     1       7.232   5.675  18.791  0.00  0.00    +0.000 C 
BRANCH  24  25
ATOM     25  C   UNL     1       7.388   4.716  17.632  0.00  0.00    +0.000 C 
BRANCH  25  26
ATOM     26  O   UNL     1       8.551   3.919  17.873  0.00  0.00    +0.000 OA
ATOM     27  H   UNL     1       8.432   3.543  18.766  0.00  0.00    +0.000 HD
ENDBRANCH  25  26
ENDBRANCH  24  25
ENDBRANCH  23  24
ENDBRANCH  18  23
ENDBRANCH   3  13
BRANCH   1  28
ATOM     28  C   UNL     1      -1.738  12.247  19.065  0.00  0.00    +0.000 C 
BRANCH  28  33
ATOM     29  C   UNL     1      -7.463  12.222  18.508  0.00  0.00    +0.000 C 
ATOM     30  N   UNL     1      -6.023  12.484  18.521  0.00  0.00    +0.000 NA
ATOM     31  C   UNL     1      -5.536  12.595  19.903  0.00  0.00    +0.000 C 
ATOM     32  C   UNL     1      -4.042  12.921  19.935  0.00  0.00    +0.000 C 
ATOM     33  C   UNL     1      -3.224  11.872  19.167  0.00  0.00    +0.000 C 
ATOM     34  C   UNL     1      -3.806  11.697  17.757  0.00  0.00    +0.000 C 
ATOM     35  C   UNL     1      -5.310  11.426  17.793  0.00  0.00    +0.000 C 
ENDBRANCH  28  33
ENDBRANCH   1  28
TORSDOF 7
ENDMDL
MODEL 4
REMARK VINA RESULT:      -8.1      0.826      1.172
REMARK  Name = 
REMARK  8 active torsions:
REMARK  status: ('A' for Active; 'I' for Inactive)
REMARK    1  A    between atoms: C_1  and  N_2
REMARK    2  A    between atoms: C_5  and  C_6
REMARK    3  A    between atoms: C_6  and  N_7
REMARK    4  A    between atoms: C_9  and  C_10
REMARK    5  A    between atoms: C_15  and  O_16
REMARK    6  A    between atoms: O_16  and  C_17
REMARK    7  A    between atoms: C_17  and  C_18
REMARK    8  A    between atoms: C_18  and  O_19
REMARK                            x       y       z     vdW  Elec       q    Type
REMARK                         _______ _______ _______ _____ _____    ______ ____
ROOT
ATOM      1  N   UNL     1       4.839   5.235  18.530  0.00  0.00    +0.000 N 
ATOM      2  N   UNL     1       4.187   6.415  18.574  0.00  0.00    +0.000 NA
ATOM      3  C   UNL     1       3.064   6.135  19.247  0.00  0.00    +0.000 A 
ATOM      4  C   UNL     1       2.950   4.734  19.525  0.00  0.00    +0.000 A 
ATOM      5  C   UNL     1       2.023   3.834  20.085  0.00  0.00    +0.000 A 
ATOM      6  N   UNL     1       0.736   4.151  20.489  0.00  0.00    +0.000 N 
ATOM      7  N   UNL     1       2.382   2.542  20.214  0.00  0.00    +0.000 NA
ATOM      8  C   UNL     1       3.602   2.167  19.789  0.00  0.00    +0.000 A 
ATOM      9  N   UNL     1       4.543   2.915  19.203  0.00  0.00    +0.000 NA
ATOM     10  C   UNL     1       4.148   4.200  19.093  0.00  0.00    +0.000 A 
ATOM     11  H   UNL     1       0.310   4.929  19.982  0.00  0.00    +0.000 HD
ATOM     12  H   UNL     1       0.181   3.316  20.562  0.00  0.00    +0.000 HD
ENDROOT
BRANCH   3  13
ATOM     13  C   UNL     1       2.136   7.185  19.632  0.00  0.00    +0.000 A 
ATOM     14  C   UNL     1       1.550   7.209  20.907  0.00  0.00    +0.000 A 
ATOM     15  C   UNL     1       0.942   8.382  21.357  0.00  0.00    +0.000 A 
ATOM     16  C   UNL     1       0.917   9.508  20.521  0.00  0.00    +0.000 A 
ATOM     17  C   UNL     1       0.729  10.802  21.009  0.00  0.00    +0.000 A 
ATOM     18  C   UNL     1       0.881  11.875  20.129  0.00  0.00    +0.000 A 
ATOM     19  C   UNL     1       0.772  11.682  18.763  0.00  0.00    +0.000 A 
ATOM     20  C   UNL     1       1.022  10.418  18.268  0.00  0.00    +0.000 A 
ATOM     21  C   UNL     1       1.243   9.371  19.162  0.00  0.00    +0.000 A 
ATOM     22  C   UNL     1       1.893   8.221  18.737  0.00  0.00    +0.000 A 
BRANCH  18  23
ATOM     23  O   UNL     1       1.305  13.030  20.709  0.00  0.00    +0.000 OA
BRANCH  23  24
ATOM     24  C   UNL     1       1.099  14.259  19.992  0.00  0.00    +0.000 C 
BRANCH  24  25
ATOM     25  C   UNL     1      -0.241  14.734  20.508  0.00  0.00    +0.000 C 
BRANCH  25  26
ATOM     26  O   UNL     1      -1.156  14.749  19.409  0.00  0.00    +0.000 OA
ATOM     27  H   UNL     1      -0.827  14.076  18.783  0.00  0.00    +0.000 HD
ENDBRANCH  25  26
ENDBRANCH  24  25
ENDBRANCH  23  24
ENDBRANCH  18  23
ENDBRANCH   3  13
BRANCH   1  28
ATOM     28  C   UNL     1       6.139   5.156  17.883  0.00  0.00    +0.000 C 
BRANCH  28  33
ATOM     29  C   UNL     1       6.397   3.737  12.315  0.00  0.00    +0.000 C 
ATOM     30  N   UNL     1       6.445   3.839  13.774  0.00  0.00    +0.000 NA
ATOM     31  C   UNL     1       7.357   4.916  14.181  0.00  0.00    +0.000 C 
ATOM     32  C   UNL     1       7.461   5.003  15.705  0.00  0.00    +0.000 C 
ATOM     33  C   UNL     1       6.082   5.204  16.349  0.00  0.00    +0.000 C 
ATOM     34  C   UNL     1       5.114   4.128  15.839  0.00  0.00    +0.000 C 
ATOM     35  C   UNL     1       5.096   4.058  14.311  0.00  0.00    +0.000 C 
ENDBRANCH  28  33
ENDBRANCH   1  28
TORSDOF 7
ENDMDL
MODEL 5
REMARK VINA RESULT:      -8.0      4.066      8.756
REMARK  Name = 
REMARK  8 active torsions:
REMARK  status: ('A' for Active; 'I' for Inactive)
REMARK    1  A    between atoms: C_1  and  N_2
REMARK    2  A    between atoms: C_5  and  C_6
REMARK    3  A    between atoms: C_6  and  N_7
REMARK    4  A    between atoms: C_9  and  C_10
REMARK    5  A    between atoms: C_15  and  O_16
REMARK    6  A    between atoms: O_16  and  C_17
REMARK    7  A    between atoms: C_17  and  C_18
REMARK    8  A    between atoms: C_18  and  O_19
REMARK                            x       y       z     vdW  Elec       q    Type
REMARK                         _______ _______ _______ _____ _____    ______ ____
ROOT
ATOM      1  N   UNL     1       1.070  10.800  18.792  0.00  0.00    +0.000 N 
ATOM      2  N   UNL     1       1.780   9.974  17.997  0.00  0.00    +0.000 NA
ATOM      3  C   UNL     1       1.850   8.836  18.699  0.00  0.00    +0.000 A 
ATOM      4  C   UNL     1       1.281   8.985  20.005  0.00  0.00    +0.000 A 
ATOM      5  C   UNL     1       1.130   8.239  21.190  0.00  0.00    +0.000 A 
ATOM      6  N   UNL     1       1.681   6.991  21.430  0.00  0.00    +0.000 N 
ATOM      7  N   UNL     1       0.428   8.781  22.203  0.00  0.00    +0.000 NA
ATOM      8  C   UNL     1      -0.085  10.015  22.044  0.00  0.00    +0.000 A 
ATOM      9  N   UNL     1       0.030  10.832  20.992  0.00  0.00    +0.000 NA
ATOM     10  C   UNL     1       0.737  10.255  19.999  0.00  0.00    +0.000 A 
ATOM     11  H   UNL     1       2.549   6.804  20.925  0.00  0.00    +0.000 HD
ATOM     12  H   UNL     1       1.697   6.805  22.418  0.00  0.00    +0.000 HD
ENDROOT
BRANCH   3  13
ATOM     13  C   UNL     1       2.428   7.632  18.124  0.00  0.00    +0.000 A 
ATOM     14  C   UNL     1       3.776   7.582  17.741  0.00  0.00    +0.000 A 
ATOM     15  C   UNL     1       4.375   6.342  17.512  0.00  0.00    +0.000 A 
ATOM     16  C   UNL     1       3.613   5.173  17.657  0.00  0.00    +0.000 A 
ATOM     17  C   UNL     1       4.190   3.919  17.867  0.00  0.00    +0.000 A 
ATOM     18  C   UNL     1       3.356   2.841  18.162  0.00  0.00    +0.000 A 
ATOM     19  C   UNL     1       2.013   2.881  17.824  0.00  0.00    +0.000 A 
ATOM     20  C   UNL     1       1.421   4.119  17.680  0.00  0.00    +0.000 A 
ATOM     21  C   UNL     1       2.215   5.263  17.751  0.00  0.00    +0.000 A 
ATOM     22  C   UNL     1       1.635   6.493  18.030  0.00  0.00    +0.000 A 
BRANCH  18  23
ATOM     23  O   UNL     1       3.923   1.878  18.936  0.00  0.00    +0.000 OA
BRANCH  23  24
ATOM     24  C   UNL     1       4.398   2.254  20.240  0.00  0.00    +0.000 C 
BRANCH  24  25
ATOM     25  C   UNL     1       3.140   2.237  21.079  0.00  0.00    +0.000 C 
BRANCH  25  26
ATOM     26  O   UNL     1       2.701   3.589  21.241  0.00  0.00    +0.000 OA
ATOM     27  H   UNL     1       2.375   3.867  20.364  0.00  0.00    +0.000 HD
ENDBRANCH  25  26
ENDBRANCH  24  25
ENDBRANCH  23  24
ENDBRANCH  18  23
ENDBRANCH   3  13
BRANCH   1  28
ATOM     28  C   UNL     1       0.767  12.148  18.339  0.00  0.00    +0.000 C 
BRANCH  28  33
ATOM     29  C   UNL     1       3.785  16.972  19.182  0.00  0.00    +0.000 C 
ATOM     30  N   UNL     1       2.982  15.845  18.702  0.00  0.00    +0.000 NA
ATOM     31  C   UNL     1       3.774  14.609  18.720  0.00  0.00    +0.000 C 
ATOM     32  C   UNL     1       2.967  13.430  18.171  0.00  0.00    +0.000 C 
ATOM     33  C   UNL     1       1.661  13.235  18.954  0.00  0.00    +0.000 C 
ATOM     34  C   UNL     1       0.891  14.561  19.009  0.00  0.00    +0.000 C 
ATOM     35  C   UNL     1       1.767  15.707  19.516  0.00  0.00    +0.000 C 
ENDBRANCH  28  33
ENDBRANCH   1  28
TORSDOF 7
ENDMDL
MODEL 6
REMARK VINA RESULT:      -7.9      5.195     10.563
REMARK  Name = 
REMARK  8 active torsions:
REMARK  status: ('A' for Active; 'I' for Inactive)
REMARK    1  A    between atoms: C_1  and  N_2
REMARK    2  A    between atoms: C_5  and  C_6
REMARK    3  A    between atoms: C_6  and  N_7
REMARK    4  A    between atoms: C_9  and  C_10
REMARK    5  A    between atoms: C_15  and  O_16
REMARK    6  A    between atoms: O_16  and  C_17
REMARK    7  A    between atoms: C_17  and  C_18
REMARK    8  A    between atoms: C_18  and  O_19
REMARK                            x       y       z     vdW  Elec       q    Type
REMARK                         _______ _______ _______ _____ _____    ______ ____
ROOT
ATOM      1  N   UNL     1      -0.183  11.891  21.747  0.00  0.00    +0.000 N 
ATOM      2  N   UNL     1      -0.171  10.646  21.227  0.00  0.00    +0.000 NA
ATOM      3  C   UNL     1       0.693  10.734  20.208  0.00  0.00    +0.000 A 
ATOM      4  C   UNL     1       1.140  12.080  20.008  0.00  0.00    +0.000 A 
ATOM      5  C   UNL     1       1.932  12.814  19.104  0.00  0.00    +0.000 A 
ATOM      6  N   UNL     1       2.490  12.317  17.937  0.00  0.00    +0.000 N 
ATOM      7  N   UNL     1       2.147  14.120  19.354  0.00  0.00    +0.000 NA
ATOM      8  C   UNL     1       1.584  14.667  20.445  0.00  0.00    +0.000 A 
ATOM      9  N   UNL     1       0.782  14.089  21.345  0.00  0.00    +0.000 NA
ATOM     10  C   UNL     1       0.591  12.784  21.062  0.00  0.00    +0.000 A 
ATOM     11  H   UNL     1       1.971  11.548  17.510  0.00  0.00    +0.000 HD
ATOM     12  H   UNL     1       2.740  13.074  17.324  0.00  0.00    +0.000 HD
ENDROOT
BRANCH   3  13
ATOM     13  C   UNL     1       1.097   9.554  19.461  0.00  0.00    +0.000 A 
ATOM     14  C   UNL     1       1.197   9.576  18.062  0.00  0.00    +0.000 A 
ATOM     15  C   UNL     1       1.895   8.557  17.412  0.00  0.00    +0.000 A 
ATOM     16  C   UNL     1       2.470   7.526  18.168  0.00  0.00    +0.000 A 
ATOM     17  C   UNL     1       3.508   6.727  17.686  0.00  0.00    +0.000 A 
ATOM     18  C   UNL     1       4.128   5.836  18.563  0.00  0.00    +0.000 A 
ATOM     19  C   UNL     1       3.478   5.419  19.712  0.00  0.00    +0.000 A 
ATOM     20  C   UNL     1       2.496   6.237  20.231  0.00  0.00    +0.000 A 
ATOM     21  C   UNL     1       2.111   7.371  19.517  0.00  0.00    +0.000 A 
ATOM     22  C   UNL     1       1.462   8.412  20.166  0.00  0.00    +0.000 A 
BRANCH  18  23
ATOM     23  O   UNL     1       5.433   5.576  18.282  0.00  0.00    +0.000 OA
BRANCH  23  24
ATOM     24  C   UNL     1       6.218   4.907  19.284  0.00  0.00    +0.000 C 
BRANCH  24  25
ATOM     25  C   UNL     1       7.461   5.764  19.371  0.00  0.00    +0.000 C 
BRANCH  25  26
ATOM     26  O   UNL     1       8.165   5.399  20.562  0.00  0.00    +0.000 OA
ATOM     27  H   UNL     1       9.104   5.596  20.383  0.00  0.00    +0.000 HD
ENDBRANCH  25  26
ENDBRANCH  24  25
ENDBRANCH  23  24
ENDBRANCH  18  23
ENDBRANCH   3  13
BRANCH   1  28
ATOM     28  C   UNL     1      -1.009  12.176  22.909  0.00  0.00    +0.000 C 
BRANCH  28  33
ATOM     29  C   UNL     1      -5.676  15.487  23.496  0.00  0.00    +0.000 C 
ATOM     30  N   UNL     1      -4.536  14.577  23.620  0.00  0.00    +0.000 NA
ATOM     31  C   UNL     1      -4.705  13.421  22.729  0.00  0.00    +0.000 C 
ATOM     32  C   UNL     1      -3.549  12.432  22.885  0.00  0.00    +0.000 C 
ATOM     33  C   UNL     1      -2.195  13.109  22.625  0.00  0.00    +0.000 C 
ATOM     34  C   UNL     1      -2.075  14.369  23.493  0.00  0.00    +0.000 C 
ATOM     35  C   UNL     1      -3.285  15.289  23.331  0.00  0.00    +0.000 C 
ENDBRANCH  28  33
ENDBRANCH   1  28
TORSDOF 7
ENDMDL
MODEL 7
REMARK VINA RESULT:      -7.8      5.029     10.267
REMARK  Name = 
REMARK  8 active torsions:
REMARK  status: ('A' for Active; 'I' for Inactive)
REMARK    1  A    between atoms: C_1  and  N_2
REMARK    2  A    between atoms: C_5  and  C_6
REMARK    3  A    between atoms: C_6  and  N_7
REMARK    4  A    between atoms: C_9  and  C_10
REMARK    5  A    between atoms: C_15  and  O_16
REMARK    6  A    between atoms: O_16  and  C_17
REMARK    7  A    between atoms: C_17  and  C_18
REMARK    8  A    between atoms: C_18  and  O_19
REMARK                            x       y       z     vdW  Elec       q    Type
REMARK                         _______ _______ _______ _____ _____    ______ ____
ROOT
ATOM      1  N   UNL     1      -0.032  12.167  21.610  0.00  0.00    +0.000 N 
ATOM      2  N   UNL     1      -0.100  10.904  21.141  0.00  0.00    +0.000 NA
ATOM      3  C   UNL     1       0.771  10.893  20.124  0.00  0.00    +0.000 A 
ATOM      4  C   UNL     1       1.306  12.198  19.872  0.00  0.00    +0.000 A 
ATOM      5  C   UNL     1       2.147  12.840  18.943  0.00  0.00    +0.000 A 
ATOM      6  N   UNL     1       2.675  12.260  17.800  0.00  0.00    +0.000 N 
ATOM      7  N   UNL     1       2.447  14.138  19.141  0.00  0.00    +0.000 NA
ATOM      8  C   UNL     1       1.918  14.766  20.206  0.00  0.00    +0.000 A 
ATOM      9  N   UNL     1       1.077  14.279  21.124  0.00  0.00    +0.000 NA
ATOM     10  C   UNL     1       0.802  12.978  20.894  0.00  0.00    +0.000 A 
ATOM     11  H   UNL     1       2.107  11.510  17.402  0.00  0.00    +0.000 HD
ATOM     12  H   UNL     1       2.976  12.973  17.159  0.00  0.00    +0.000 HD
ENDROOT
BRANCH   3  13
ATOM     13  C   UNL     1       1.098   9.660  19.428  0.00  0.00    +0.000 A 
ATOM     14  C   UNL     1       1.157   9.606  18.028  0.00  0.00    +0.000 A 
ATOM     15  C   UNL     1       1.788   8.524  17.412  0.00  0.00    +0.000 A 
ATOM     16  C   UNL     1       2.338   7.507  18.204  0.00  0.00    +0.000 A 
ATOM     17  C   UNL     1       3.324   6.637  17.735  0.00  0.00    +0.000 A 
ATOM     18  C   UNL     1       3.929   5.763  18.639  0.00  0.00    +0.000 A 
ATOM     19  C   UNL     1       3.296   5.435  19.826  0.00  0.00    +0.000 A 
ATOM     20  C   UNL     1       2.368   6.323  20.329  0.00  0.00    +0.000 A 
ATOM     21  C   UNL     1       2.013   7.436  19.568  0.00  0.00    +0.000 A 
ATOM     22  C   UNL     1       1.432   8.538  20.181  0.00  0.00    +0.000 A 
BRANCH  18  23
ATOM     23  O   UNL     1       5.212   5.429  18.336  0.00  0.00    +0.000 OA
BRANCH  23  24
ATOM     24  C   UNL     1       6.148   5.299  19.420  0.00  0.00    +0.000 C 
BRANCH  24  25
ATOM     25  C   UNL     1       7.472   5.626  18.766  0.00  0.00    +0.000 C 
BRANCH  25  26
ATOM     26  O   UNL     1       8.412   5.931  19.801  0.00  0.00    +0.000 OA
ATOM     27  H   UNL     1       7.918   5.841  20.639  0.00  0.00    +0.000 HD
ENDBRANCH  25  26
ENDBRANCH  24  25
ENDBRANCH  23  24
ENDBRANCH  18  23
ENDBRANCH   3  13
BRANCH   1  28
ATOM     28  C   UNL     1      -0.840  12.553  22.755  0.00  0.00    +0.000 C 
BRANCH  28  33
ATOM     29  C   UNL     1      -6.515  13.257  22.127  0.00  0.00    +0.000 C 
ATOM     30  N   UNL     1      -5.068  13.361  22.329  0.00  0.00    +0.000 NA
ATOM     31  C   UNL     1      -4.666  12.621  23.533  0.00  0.00    +0.000 C 
ATOM     32  C   UNL     1      -3.164  12.763  23.790  0.00  0.00    +0.000 C 
ATOM     33  C   UNL     1      -2.344  12.294  22.580  0.00  0.00    +0.000 C 
ATOM     34  C   UNL     1      -2.841  13.004  21.314  0.00  0.00    +0.000 C 
ATOM     35  C   UNL     1      -4.355  12.869  21.144  0.00  0.00    +0.000 C 
ENDBRANCH  28  33
ENDBRANCH   1  28
TORSDOF 7
ENDMDL
MODEL 8
REMARK VINA RESULT:      -7.8      0.737      1.131
REMARK  Name = 
REMARK  8 active torsions:
REMARK  status: ('A' for Active; 'I' for Inactive)
REMARK    1  A    between atoms: C_1  and  N_2
REMARK    2  A    between atoms: C_5  and  C_6
REMARK    3  A    between atoms: C_6  and  N_7
REMARK    4  A    between atoms: C_9  and  C_10
REMARK    5  A    between atoms: C_15  and  O_16
REMARK    6  A    between atoms: O_16  and  C_17
REMARK    7  A    between atoms: C_17  and  C_18
REMARK    8  A    between atoms: C_18  and  O_19
REMARK                            x       y       z     vdW  Elec       q    Type
REMARK                         _______ _______ _______ _____ _____    ______ ____
ROOT
ATOM      1  N   UNL     1       5.139   5.165  18.922  0.00  0.00    +0.000 N 
ATOM      2  N   UNL     1       4.445   6.320  18.861  0.00  0.00    +0.000 NA
ATOM      3  C   UNL     1       3.276   6.021  19.440  0.00  0.00    +0.000 A 
ATOM      4  C   UNL     1       3.186   4.627  19.761  0.00  0.00    +0.000 A 
ATOM      5  C   UNL     1       2.243   3.713  20.270  0.00  0.00    +0.000 A 
ATOM      6  N   UNL     1       0.915   3.995  20.543  0.00  0.00    +0.000 N 
ATOM      7  N   UNL     1       2.634   2.441  20.480  0.00  0.00    +0.000 NA
ATOM      8  C   UNL     1       3.900   2.099  20.181  0.00  0.00    +0.000 A 
ATOM      9  N   UNL     1       4.864   2.860  19.655  0.00  0.00    +0.000 NA
ATOM     10  C   UNL     1       4.437   4.125  19.460  0.00  0.00    +0.000 A 
ATOM     11  H   UNL     1       0.510   4.737  19.970  0.00  0.00    +0.000 HD
ATOM     12  H   UNL     1       0.385   3.142  20.598  0.00  0.00    +0.000 HD
ENDROOT
BRANCH   3  13
ATOM     13  C   UNL     1       2.281   7.048  19.700  0.00  0.00    +0.000 A 
ATOM     14  C   UNL     1       1.520   7.045  20.879  0.00  0.00    +0.000 A 
ATOM     15  C   UNL     1       0.829   8.200  21.248  0.00  0.00    +0.000 A 
ATOM     16  C   UNL     1       0.899   9.335  20.428  0.00  0.00    +0.000 A 
ATOM     17  C   UNL     1       0.617  10.620  20.895  0.00  0.00    +0.000 A 
ATOM     18  C   UNL     1       0.868  11.706  20.055  0.00  0.00    +0.000 A 
ATOM     19  C   UNL     1       0.958  11.526  18.685  0.00  0.00    +0.000 A 
ATOM     20  C   UNL     1       1.302  10.274  18.220  0.00  0.00    +0.000 A 
ATOM     21  C   UNL     1       1.416   9.221  19.127  0.00  0.00    +0.000 A 
ATOM     22  C   UNL     1       2.145   8.089  18.788  0.00  0.00    +0.000 A 
BRANCH  18  23
ATOM     23  O   UNL     1       1.182  12.862  20.699  0.00  0.00    +0.000 OA
BRANCH  23  24
ATOM     24  C   UNL     1       1.110  14.090  19.954  0.00  0.00    +0.000 C 
BRANCH  24  25
ATOM     25  C   UNL     1       1.656  15.111  20.927  0.00  0.00    +0.000 C 
BRANCH  25  26
ATOM     26  O   UNL     1       1.558  14.561  22.244  0.00  0.00    +0.000 OA
ATOM     27  H   UNL     1       1.844  15.272  22.848  0.00  0.00    +0.000 HD
ENDBRANCH  25  26
ENDBRANCH  24  25
ENDBRANCH  23  24
ENDBRANCH  18  23
ENDBRANCH   3  13
BRANCH   1  28
ATOM     28  C   UNL     1       6.495   5.113  18.398  0.00  0.00    +0.000 C 
BRANCH  28  33
ATOM     29  C   UNL     1       6.060   3.846  12.804  0.00  0.00    +0.000 C 
ATOM     30  N   UNL     1       5.989   4.381  14.165  0.00  0.00    +0.000 NA
ATOM     31  C   UNL     1       5.389   3.393  15.072  0.00  0.00    +0.000 C 
ATOM     32  C   UNL     1       5.258   3.955  16.489  0.00  0.00    +0.000 C 
ATOM     33  C   UNL     1       6.617   4.418  17.034  0.00  0.00    +0.000 C 
ATOM     34  C   UNL     1       7.275   5.375  16.030  0.00  0.00    +0.000 C 
ATOM     35  C   UNL     1       7.327   4.775  14.624  0.00  0.00    +0.000 C 
ENDBRANCH  28  33
ENDBRANCH   1  28
TORSDOF 7
ENDMDL
MODEL 9
REMARK VINA RESULT:      -7.8      5.437     10.630
REMARK  Name = 
REMARK  8 active torsions:
REMARK  status: ('A' for Active; 'I' for Inactive)
REMARK    1  A    between atoms: C_1  and  N_2
REMARK    2  A    between atoms: C_5  and  C_6
REMARK    3  A    between atoms: C_6  and  N_7
REMARK    4  A    between atoms: C_9  and  C_10
REMARK    5  A    between atoms: C_15  and  O_16
REMARK    6  A    between atoms: O_16  and  C_17
REMARK    7  A    between atoms: C_17  and  C_18
REMARK    8  A    between atoms: C_18  and  O_19
REMARK                            x       y       z     vdW  Elec       q    Type
REMARK                         _______ _______ _______ _____ _____    ______ ____
ROOT
ATOM      1  N   UNL     1      -1.880  11.757  19.002  0.00  0.00    +0.000 N 
ATOM      2  N   UNL     1      -1.352  10.521  19.117  0.00  0.00    +0.000 NA
ATOM      3  C   UNL     1      -0.034  10.743  19.198  0.00  0.00    +0.000 A 
ATOM      4  C   UNL     1       0.281  12.128  19.010  0.00  0.00    +0.000 A 
ATOM      5  C   UNL     1       1.417  12.953  18.896  0.00  0.00    +0.000 A 
ATOM      6  N   UNL     1       2.729  12.512  18.842  0.00  0.00    +0.000 N 
ATOM      7  N   UNL     1       1.233  14.283  18.789  0.00  0.00    +0.000 NA
ATOM      8  C   UNL     1      -0.024  14.762  18.782  0.00  0.00    +0.000 A 
ATOM      9  N   UNL     1      -1.172  14.080  18.837  0.00  0.00    +0.000 NA
ATOM     10  C   UNL     1      -0.949  12.754  18.945  0.00  0.00    +0.000 A 
ATOM     11  H   UNL     1       2.849  11.579  18.447  0.00  0.00    +0.000 HD
ATOM     12  H   UNL     1       3.319  13.232  18.461  0.00  0.00    +0.000 HD
ENDROOT
BRANCH   3  13
ATOM     13  C   UNL     1       0.895   9.659  19.470  0.00  0.00    +0.000 A 
ATOM     14  C   UNL     1       0.917   9.013  20.715  0.00  0.00    +0.000 A 
ATOM     15  C   UNL     1       1.569   7.784  20.835  0.00  0.00    +0.000 A 
ATOM     16  C   UNL     1       2.200   7.229  19.713  0.00  0.00    +0.000 A 
ATOM     17  C   UNL     1       2.496   5.868  19.613  0.00  0.00    +0.000 A 
ATOM     18  C   UNL     1       2.976   5.377  18.398  0.00  0.00    +0.000 A 
ATOM     19  C   UNL     1       3.564   6.231  17.480  0.00  0.00    +0.000 A 
ATOM     20  C   UNL     1       3.224   7.567  17.533  0.00  0.00    +0.000 A 
ATOM     21  C   UNL     1       2.415   8.021  18.574  0.00  0.00    +0.000 A 
ATOM     22  C   UNL     1       1.721   9.216  18.443  0.00  0.00    +0.000 A 
BRANCH  18  23
ATOM     23  O   UNL     1       2.659   4.079  18.145  0.00  0.00    +0.000 OA
BRANCH  23  24
ATOM     24  C   UNL     1       3.736   3.134  18.019  0.00  0.00    +0.000 C 
BRANCH  24  25
ATOM     25  C   UNL     1       3.223   1.931  18.778  0.00  0.00    +0.000 C 
BRANCH  25  26
ATOM     26  O   UNL     1       3.928   0.779  18.305  0.00  0.00    +0.000 OA
ATOM     27  H   UNL     1       3.741   0.730  17.348  0.00  0.00    +0.000 HD
ENDBRANCH  25  26
ENDBRANCH  24  25
ENDBRANCH  23  24
ENDBRANCH  18  23
ENDBRANCH   3  13
BRANCH   1  28
ATOM     28  C   UNL     1      -3.323  11.916  18.913  0.00  0.00    +0.000 C 
BRANCH  28  33
ATOM     29  C   UNL     1      -5.842  13.019  23.965  0.00  0.00    +0.000 C 
ATOM     30  N   UNL     1      -5.255  12.464  22.744  0.00  0.00    +0.000 NA
ATOM     31  C   UNL     1      -6.010  12.911  21.565  0.00  0.00    +0.000 C 
ATOM     32  C   UNL     1      -5.442  12.298  20.283  0.00  0.00    +0.000 C 
ATOM     33  C   UNL     1      -3.953  12.632  20.117  0.00  0.00    +0.000 C 
ATOM     34  C   UNL     1      -3.194  12.248  21.394  0.00  0.00    +0.000 C 
ATOM     35  C   UNL     1      -3.841  12.849  22.643  0.00  0.00    +0.000 C 
ENDBRANCH  28  33
ENDBRANCH   1  28
TORSDOF 7
ENDMDL
