MODEL 1
REMARK VINA RESULT:      -9.0      0.000      0.000
REMARK  Name = 
REMARK  4 active torsions:
REMARK  status: ('A' for Active; 'I' for Inactive)
REMARK    1  A    between atoms: C_1  and  C_2
REMARK    2  A    between atoms: C_5  and  C_6
REMARK    3  A    between atoms: C_11  and  C_12
REMARK    4  A    between atoms: C_26  and  C_27
REMARK                            x       y       z     vdW  Elec       q    Type
REMARK                         _______ _______ _______ _____ _____    ______ ____
ROOT
ATOM      1  C   UNL     1       2.716   6.664  18.838  0.00  0.00    +0.000 A 
ATOM      2  N   UNL     1       2.293   7.898  18.537  0.00  0.00    +0.000 NA
ATOM      3  N   UNL     1       1.613   8.337  19.627  0.00  0.00    +0.000 N 
ATOM      4  C   UNL     1       1.037   9.615  19.639  0.00  0.00    +0.000 A 
ATOM      5  N   UNL     1       0.452  10.159  20.692  0.00  0.00    +0.000 NA
ATOM      6  C   UNL     1       0.033  11.446  20.356  0.00  0.00    +0.000 A 
ATOM      7  C   UNL     1       0.205  11.781  19.026  0.00  0.00    +0.000 A 
ATOM      8  S   UNL     1       1.045  10.540  18.204  0.00  0.00    +0.000 S 
ATOM      9  C   UNL     1       1.590   7.386  20.615  0.00  0.00    +0.000 A 
ATOM     10  C   UNL     1       2.216   6.262  20.110  0.00  0.00    +0.000 A 
ENDROOT
BRANCH   6  11
ATOM     11  C   UNL     1      -0.512  12.311  21.375  0.00  0.00    +0.000 A 
ATOM     12  C   UNL     1      -1.726  12.107  21.921  0.00  0.00    +0.000 A 
ATOM     13  C   UNL     1      -2.233  12.946  22.999  0.00  0.00    +0.000 A 
ATOM     14  C   UNL     1      -3.484  12.750  23.589  0.00  0.00    +0.000 A 
ATOM     15  C   UNL     1      -3.891  13.559  24.659  0.00  0.00    +0.000 A 
ATOM     16  C   UNL     1      -3.054  14.566  25.143  0.00  0.00    +0.000 A 
ATOM     17  C   UNL     1      -1.812  14.775  24.552  0.00  0.00    +0.000 A 
ATOM     18  C   UNL     1      -1.425  13.964  23.487  0.00  0.00    +0.000 A 
ATOM     19  O   UNL     1      -0.170  14.215  22.921  0.00  0.00    +0.000 OA
ATOM     20  C   UNL     1       0.329  13.452  21.872  0.00  0.00    +0.000 A 
ATOM     21  O   UNL     1       1.429  13.726  21.401  0.00  0.00    +0.000 OA
ENDBRANCH   6  11
BRANCH   1  26
ATOM     22  C   UNL     1       6.027   3.754  15.069  0.00  0.00    +0.000 C 
ATOM     23  C   UNL     1       5.188   4.510  16.056  0.00  0.00    +0.000 A 
ATOM     24  C   UNL     1       5.401   5.872  16.283  0.00  0.00    +0.000 A 
ATOM     25  C   UNL     1       4.598   6.578  17.185  0.00  0.00    +0.000 A 
ATOM     26  C   UNL     1       3.583   5.931  17.902  0.00  0.00    +0.000 A 
ATOM     27  C   UNL     1       3.367   4.565  17.662  0.00  0.00    +0.000 A 
ATOM     28  C   UNL     1       4.160   3.862  16.748  0.00  0.00    +0.000 A 
ENDBRANCH   1  26
BRANCH  10  29
ATOM     29  C   UNL     1       2.303   4.980  20.770  0.00  0.00    +0.000 C 
ATOM     30  O   UNL     1       1.393   4.158  20.780  0.00  0.00    +0.000 OA
ENDBRANCH  10  29
TORSDOF 3
ENDMDL
MODEL 2
REMARK VINA RESULT:      -8.3      1.582     10.552
REMARK  Name = 
REMARK  4 active torsions:
REMARK  status: ('A' for Active; 'I' for Inactive)
REMARK    1  A    between atoms: C_1  and  C_2
REMARK    2  A    between atoms: C_5  and  C_6
REMARK    3  A    between atoms: C_11  and  C_12
REMARK    4  A    between atoms: C_26  and  C_27
REMARK                            x       y       z     vdW  Elec       q    Type
REMARK                         _______ _______ _______ _____ _____    ______ ____
ROOT
ATOM      1  C   UNL     1      -0.149  11.879  20.653  0.00  0.00    +0.000 A 
ATOM      2  N   UNL     1       0.305  10.666  20.988  0.00  0.00    +0.000 NA
ATOM      3  N   UNL     1       0.757  10.104  19.838  0.00  0.00    +0.000 N 
ATOM      4  C   UNL     1       1.308   8.814  19.846  0.00  0.00    +0.000 A 
ATOM      5  N   UNL     1       1.865   8.236  18.796  0.00  0.00    +0.000 NA
ATOM      6  C   UNL     1       2.341   6.981  19.176  0.00  0.00    +0.000 A 
ATOM      7  C   UNL     1       2.014   6.605  20.466  0.00  0.00    +0.000 A 
ATOM      8  S   UNL     1       1.239   7.893  21.282  0.00  0.00    +0.000 S 
ATOM      9  C   UNL     1       0.583  10.946  18.771  0.00  0.00    +0.000 A 
ATOM     10  C   UNL     1      -0.077  12.065  19.242  0.00  0.00    +0.000 A 
ENDROOT
BRANCH   6  11
ATOM     11  C   UNL     1       3.121   6.199  18.247  0.00  0.00    +0.000 A 
ATOM     12  C   UNL     1       4.314   6.615  17.778  0.00  0.00    +0.000 A 
ATOM     13  C   UNL     1       5.123   5.783  16.897  0.00  0.00    +0.000 A 
ATOM     14  C   UNL     1       6.367   6.186  16.404  0.00  0.00    +0.000 A 
ATOM     15  C   UNL     1       7.121   5.318  15.604  0.00  0.00    +0.000 A 
ATOM     16  C   UNL     1       6.638   4.045  15.291  0.00  0.00    +0.000 A 
ATOM     17  C   UNL     1       5.394   3.643  15.767  0.00  0.00    +0.000 A 
ATOM     18  C   UNL     1       4.656   4.520  16.559  0.00  0.00    +0.000 A 
ATOM     19  O   UNL     1       3.410   4.074  17.010  0.00  0.00    +0.000 OA
ATOM     20  C   UNL     1       2.601   4.854  17.827  0.00  0.00    +0.000 A 
ATOM     21  O   UNL     1       1.508   4.421  18.180  0.00  0.00    +0.000 OA
ENDBRANCH   6  11
BRANCH   1  26
ATOM     22  C   UNL     1      -1.984  15.441  24.846  0.00  0.00    +0.000 C 
ATOM     23  C   UNL     1      -1.513  14.535  23.747  0.00  0.00    +0.000 A 
ATOM     24  C   UNL     1      -0.382  14.853  22.990  0.00  0.00    +0.000 A 
ATOM     25  C   UNL     1       0.067  13.991  21.985  0.00  0.00    +0.000 A 
ATOM     26  C   UNL     1      -0.622  12.806  21.693  0.00  0.00    +0.000 A 
ATOM     27  C   UNL     1      -1.750  12.487  22.463  0.00  0.00    +0.000 A 
ATOM     28  C   UNL     1      -2.192  13.342  23.479  0.00  0.00    +0.000 A 
ENDBRANCH   1  26
BRANCH  10  29
ATOM     29  C   UNL     1      -0.574  13.152  18.430  0.00  0.00    +0.000 C 
ATOM     30  O   UNL     1      -0.223  14.319  18.568  0.00  0.00    +0.000 OA
ENDBRANCH  10  29
TORSDOF 3
ENDMDL
MODEL 3
REMARK VINA RESULT:      -8.2      1.522      1.818
REMARK  Name = 
REMARK  4 active torsions:
REMARK  status: ('A' for Active; 'I' for Inactive)
REMARK    1  A    between atoms: C_1  and  C_2
REMARK    2  A    between atoms: C_5  and  C_6
REMARK    3  A    between atoms: C_11  and  C_12
REMARK    4  A    between atoms: C_26  and  C_27
REMARK                            x       y       z     vdW  Elec       q    Type
REMARK                         _______ _______ _______ _____ _____    ______ ____
ROOT
ATOM      1  C   UNL     1       2.862   6.467  19.334  0.00  0.00    +0.000 A 
ATOM      2  N   UNL     1       2.454   7.711  19.062  0.00  0.00    +0.000 NA
ATOM      3  N   UNL     1       1.458   7.981  19.944  0.00  0.00    +0.000 N 
ATOM      4  C   UNL     1       0.810   9.225  19.927  0.00  0.00    +0.000 A 
ATOM      5  N   UNL     1      -0.092   9.606  20.814  0.00  0.00    +0.000 NA
ATOM      6  C   UNL     1      -0.491  10.909  20.515  0.00  0.00    +0.000 A 
ATOM      7  C   UNL     1       0.031  11.418  19.340  0.00  0.00    +0.000 A 
ATOM      8  S   UNL     1       1.163  10.325  18.671  0.00  0.00    +0.000 S 
ATOM      9  C   UNL     1       1.222   6.912  20.769  0.00  0.00    +0.000 A 
ATOM     10  C   UNL     1       2.048   5.887  20.349  0.00  0.00    +0.000 A 
ENDROOT
BRANCH   6  11
ATOM     11  C   UNL     1      -1.369  11.615  21.418  0.00  0.00    +0.000 A 
ATOM     12  C   UNL     1      -2.359  12.417  20.980  0.00  0.00    +0.000 A 
ATOM     13  C   UNL     1      -3.282  13.066  21.902  0.00  0.00    +0.000 A 
ATOM     14  C   UNL     1      -4.323  13.894  21.475  0.00  0.00    +0.000 A 
ATOM     15  C   UNL     1      -5.211  14.447  22.409  0.00  0.00    +0.000 A 
ATOM     16  C   UNL     1      -5.062  14.177  23.771  0.00  0.00    +0.000 A 
ATOM     17  C   UNL     1      -4.019  13.364  24.204  0.00  0.00    +0.000 A 
ATOM     18  C   UNL     1      -3.145  12.826  23.263  0.00  0.00    +0.000 A 
ATOM     19  O   UNL     1      -2.109  12.019  23.745  0.00  0.00    +0.000 OA
ATOM     20  C   UNL     1      -1.195  11.409  22.895  0.00  0.00    +0.000 A 
ATOM     21  O   UNL     1      -0.294  10.726  23.373  0.00  0.00    +0.000 OA
ENDBRANCH   6  11
BRANCH   1  26
ATOM     22  C   UNL     1       7.422   4.323  16.461  0.00  0.00    +0.000 C 
ATOM     23  C   UNL     1       6.240   4.858  17.215  0.00  0.00    +0.000 A 
ATOM     24  C   UNL     1       6.271   4.979  18.606  0.00  0.00    +0.000 A 
ATOM     25  C   UNL     1       5.176   5.504  19.300  0.00  0.00    +0.000 A 
ATOM     26  C   UNL     1       4.014   5.893  18.620  0.00  0.00    +0.000 A 
ATOM     27  C   UNL     1       3.992   5.779  17.222  0.00  0.00    +0.000 A 
ATOM     28  C   UNL     1       5.093   5.268  16.526  0.00  0.00    +0.000 A 
ENDBRANCH   1  26
BRANCH  10  29
ATOM     29  C   UNL     1       2.036   4.534  20.859  0.00  0.00    +0.000 C 
ATOM     30  O   UNL     1       1.843   3.546  20.159  0.00  0.00    +0.000 OA
ENDBRANCH  10  29
TORSDOF 3
ENDMDL
MODEL 4
REMARK VINA RESULT:      -8.2      1.167      1.971
REMARK  Name = 
REMARK  4 active torsions:
REMARK  status: ('A' for Active; 'I' for Inactive)
REMARK    1  A    between atoms: C_1  and  C_2
REMARK    2  A    between atoms: C_5  and  C_6
REMARK    3  A    between atoms: C_11  and  C_12
REMARK    4  A    between atoms: C_26  and  C_27
REMARK                            x       y       z     vdW  Elec       q    Type
REMARK                         _______ _______ _______ _____ _____    ______ ____
ROOT
ATOM      1  C   UNL     1       2.574   6.792  18.944  0.00  0.00    +0.000 A 
ATOM      2  N   UNL     1       2.250   8.067  18.700  0.00  0.00    +0.000 NA
ATOM      3  N   UNL     1       1.611   8.511  19.812  0.00  0.00    +0.000 N 
ATOM      4  C   UNL     1       1.138   9.829  19.882  0.00  0.00    +0.000 A 
ATOM      5  N   UNL     1       0.602  10.371  20.961  0.00  0.00    +0.000 NA
ATOM      6  C   UNL     1       0.285  11.701  20.684  0.00  0.00    +0.000 A 
ATOM      7  C   UNL     1       0.479  12.079  19.368  0.00  0.00    +0.000 A 
ATOM      8  S   UNL     1       1.216  10.811  18.488  0.00  0.00    +0.000 S 
ATOM      9  C   UNL     1       1.516   7.523  20.758  0.00  0.00    +0.000 A 
ATOM     10  C   UNL     1       2.048   6.376  20.200  0.00  0.00    +0.000 A 
ENDROOT
BRANCH   6  11
ATOM     11  C   UNL     1      -0.186  12.562  21.743  0.00  0.00    +0.000 A 
ATOM     12  C   UNL     1       0.106  13.876  21.786  0.00  0.00    +0.000 A 
ATOM     13  C   UNL     1      -0.436  14.747  22.822  0.00  0.00    +0.000 A 
ATOM     14  C   UNL     1      -0.158  16.115  22.885  0.00  0.00    +0.000 A 
ATOM     15  C   UNL     1      -0.753  16.908  23.875  0.00  0.00    +0.000 A 
ATOM     16  C   UNL     1      -1.625  16.341  24.806  0.00  0.00    +0.000 A 
ATOM     17  C   UNL     1      -1.896  14.977  24.758  0.00  0.00    +0.000 A 
ATOM     18  C   UNL     1      -1.293  14.203  23.769  0.00  0.00    +0.000 A 
ATOM     19  O   UNL     1      -1.591  12.836  23.762  0.00  0.00    +0.000 OA
ATOM     20  C   UNL     1      -1.068  11.974  22.806  0.00  0.00    +0.000 A 
ATOM     21  O   UNL     1      -1.348  10.780  22.858  0.00  0.00    +0.000 OA
ENDBRANCH   6  11
BRANCH   1  26
ATOM     22  C   UNL     1       5.846   3.819  15.189  0.00  0.00    +0.000 C 
ATOM     23  C   UNL     1       4.982   4.584  16.148  0.00  0.00    +0.000 A 
ATOM     24  C   UNL     1       3.959   3.948  16.855  0.00  0.00    +0.000 A 
ATOM     25  C   UNL     1       3.175   4.661  17.768  0.00  0.00    +0.000 A 
ATOM     26  C   UNL     1       3.377   6.033  17.972  0.00  0.00    +0.000 A 
ATOM     27  C   UNL     1       4.412   6.664  17.265  0.00  0.00    +0.000 A 
ATOM     28  C   UNL     1       5.207   5.948  16.364  0.00  0.00    +0.000 A 
ENDBRANCH   1  26
BRANCH  10  29
ATOM     29  C   UNL     1       2.035   5.063  20.805  0.00  0.00    +0.000 C 
ATOM     30  O   UNL     1       1.128   4.253  20.648  0.00  0.00    +0.000 OA
ENDBRANCH  10  29
TORSDOF 3
ENDMDL
MODEL 5
REMARK VINA RESULT:      -8.0      1.195      1.580
REMARK  Name = 
REMARK  4 active torsions:
REMARK  status: ('A' for Active; 'I' for Inactive)
REMARK    1  A    between atoms: C_1  and  C_2
REMARK    2  A    between atoms: C_5  and  C_6
REMARK    3  A    between atoms: C_11  and  C_12
REMARK    4  A    between atoms: C_26  and  C_27
REMARK                            x       y       z     vdW  Elec       q    Type
REMARK                         _______ _______ _______ _____ _____    ______ ____
ROOT
ATOM      1  C   UNL     1       2.757   6.572  18.787  0.00  0.00    +0.000 A 
ATOM      2  N   UNL     1       2.229   7.762  18.480  0.00  0.00    +0.000 NA
ATOM      3  N   UNL     1       1.476   8.125  19.550  0.00  0.00    +0.000 N 
ATOM      4  C   UNL     1       0.781   9.343  19.550  0.00  0.00    +0.000 A 
ATOM      5  N   UNL     1       0.114   9.820  20.586  0.00  0.00    +0.000 NA
ATOM      6  C   UNL     1      -0.415  11.065  20.244  0.00  0.00    +0.000 A 
ATOM      7  C   UNL     1      -0.234  11.426  18.922  0.00  0.00    +0.000 A 
ATOM      8  S   UNL     1       0.747  10.277  18.121  0.00  0.00    +0.000 S 
ATOM      9  C   UNL     1       1.512   7.169  20.531  0.00  0.00    +0.000 A 
ATOM     10  C   UNL     1       2.258   6.113  20.040  0.00  0.00    +0.000 A 
ENDROOT
BRANCH   6  11
ATOM     11  C   UNL     1      -1.071  11.866  21.250  0.00  0.00    +0.000 A 
ATOM     12  C   UNL     1      -1.955  12.833  20.937  0.00  0.00    +0.000 A 
ATOM     13  C   UNL     1      -2.664  13.585  21.965  0.00  0.00    +0.000 A 
ATOM     14  C   UNL     1      -3.592  14.585  21.669  0.00  0.00    +0.000 A 
ATOM     15  C   UNL     1      -4.280  15.235  22.703  0.00  0.00    +0.000 A 
ATOM     16  C   UNL     1      -4.044  14.891  24.035  0.00  0.00    +0.000 A 
ATOM     17  C   UNL     1      -3.110  13.904  24.338  0.00  0.00    +0.000 A 
ATOM     18  C   UNL     1      -2.433  13.271  23.298  0.00  0.00    +0.000 A 
ATOM     19  O   UNL     1      -1.501  12.290  23.650  0.00  0.00    +0.000 OA
ATOM     20  C   UNL     1      -0.788  11.575  22.695  0.00  0.00    +0.000 A 
ATOM     21  O   UNL     1       0.032  10.737  23.061  0.00  0.00    +0.000 OA
ENDBRANCH   6  11
BRANCH   1  26
ATOM     22  C   UNL     1       6.644   4.066  15.286  0.00  0.00    +0.000 C 
ATOM     23  C   UNL     1       5.623   4.711  16.177  0.00  0.00    +0.000 A 
ATOM     24  C   UNL     1       4.559   3.971  16.701  0.00  0.00    +0.000 A 
ATOM     25  C   UNL     1       3.626   4.571  17.553  0.00  0.00    +0.000 A 
ATOM     26  C   UNL     1       3.719   5.932  17.876  0.00  0.00    +0.000 A 
ATOM     27  C   UNL     1       4.795   6.667  17.355  0.00  0.00    +0.000 A 
ATOM     28  C   UNL     1       5.737   6.063  16.515  0.00  0.00    +0.000 A 
ENDBRANCH   1  26
BRANCH  10  29
ATOM     29  C   UNL     1       2.445   4.839  20.696  0.00  0.00    +0.000 C 
ATOM     30  O   UNL     1       1.568   3.987  20.787  0.00  0.00    +0.000 OA
ENDBRANCH  10  29
TORSDOF 3
ENDMDL
MODEL 6
REMARK VINA RESULT:      -8.0      0.771      1.013
REMARK  Name = 
REMARK  4 active torsions:
REMARK  status: ('A' for Active; 'I' for Inactive)
REMARK    1  A    between atoms: C_1  and  C_2
REMARK    2  A    between atoms: C_5  and  C_6
REMARK    3  A    between atoms: C_11  and  C_12
REMARK    4  A    between atoms: C_26  and  C_27
REMARK                            x       y       z     vdW  Elec       q    Type
REMARK                         _______ _______ _______ _____ _____    ______ ____
ROOT
ATOM      1  C   UNL     1       2.893   6.703  19.078  0.00  0.00    +0.000 A 
ATOM      2  N   UNL     1       2.528   7.951  18.763  0.00  0.00    +0.000 NA
ATOM      3  N   UNL     1       1.656   8.342  19.727  0.00  0.00    +0.000 N 
ATOM      4  C   UNL     1       1.082   9.622  19.690  0.00  0.00    +0.000 A 
ATOM      5  N   UNL     1       0.310  10.118  20.640  0.00  0.00    +0.000 NA
ATOM      6  C   UNL     1      -0.044  11.422  20.293  0.00  0.00    +0.000 A 
ATOM      7  C   UNL     1       0.370  11.818  19.035  0.00  0.00    +0.000 A 
ATOM      8  S   UNL     1       1.354  10.612  18.326  0.00  0.00    +0.000 S 
ATOM      9  C   UNL     1       1.454   7.347  20.647  0.00  0.00    +0.000 A 
ATOM     10  C   UNL     1       2.166   6.245  20.215  0.00  0.00    +0.000 A 
ENDROOT
BRANCH   6  11
ATOM     11  C   UNL     1      -0.772  12.241  21.232  0.00  0.00    +0.000 A 
ATOM     12  C   UNL     1      -2.076  12.041  21.505  0.00  0.00    +0.000 A 
ATOM     13  C   UNL     1      -2.780  12.830  22.508  0.00  0.00    +0.000 A 
ATOM     14  C   UNL     1      -4.128  12.636  22.817  0.00  0.00    +0.000 A 
ATOM     15  C   UNL     1      -4.733  13.392  23.831  0.00  0.00    +0.000 A 
ATOM     16  C   UNL     1      -3.996  14.344  24.538  0.00  0.00    +0.000 A 
ATOM     17  C   UNL     1      -2.656  14.551  24.227  0.00  0.00    +0.000 A 
ATOM     18  C   UNL     1      -2.072  13.794  23.214  0.00  0.00    +0.000 A 
ATOM     19  O   UNL     1      -0.724  14.041  22.932  0.00  0.00    +0.000 OA
ATOM     20  C   UNL     1      -0.032  13.326  21.962  0.00  0.00    +0.000 A 
ATOM     21  O   UNL     1       1.145  13.596  21.743  0.00  0.00    +0.000 OA
ENDBRANCH   6  11
BRANCH   1  26
ATOM     22  C   UNL     1       7.015   4.084  15.951  0.00  0.00    +0.000 C 
ATOM     23  C   UNL     1       5.938   4.743  16.762  0.00  0.00    +0.000 A 
ATOM     24  C   UNL     1       5.716   4.376  18.091  0.00  0.00    +0.000 A 
ATOM     25  C   UNL     1       4.729   5.013  18.850  0.00  0.00    +0.000 A 
ATOM     26  C   UNL     1       3.921   6.010  18.287  0.00  0.00    +0.000 A 
ATOM     27  C   UNL     1       4.155   6.381  16.954  0.00  0.00    +0.000 A 
ATOM     28  C   UNL     1       5.154   5.755  16.199  0.00  0.00    +0.000 A 
ENDBRANCH   1  26
BRANCH  10  29
ATOM     29  C   UNL     1       2.134   4.932  20.820  0.00  0.00    +0.000 C 
ATOM     30  O   UNL     1       1.400   4.027  20.439  0.00  0.00    +0.000 OA
ENDBRANCH  10  29
TORSDOF 3
ENDMDL
MODEL 7
REMARK VINA RESULT:      -7.8      1.697     10.521
REMARK  Name = 
REMARK  4 active torsions:
REMARK  status: ('A' for Active; 'I' for Inactive)
REMARK    1  A    between atoms: C_1  and  C_2
REMARK    2  A    between atoms: C_5  and  C_6
REMARK    3  A    between atoms: C_11  and  C_12
REMARK    4  A    between atoms: C_26  and  C_27
REMARK                            x       y       z     vdW  Elec       q    Type
REMARK                         _______ _______ _______ _____ _____    ______ ____
ROOT
ATOM      1  C   UNL     1       0.083  12.799  21.103  0.00  0.00    +0.000 A 
ATOM      2  N   UNL     1       0.427  11.565  21.488  0.00  0.00    +0.000 NA
ATOM      3  N   UNL     1       0.747  10.894  20.352  0.00  0.00    +0.000 N 
ATOM      4  C   UNL     1       1.160   9.555  20.411  0.00  0.00    +0.000 A 
ATOM      5  N   UNL     1       1.589   8.862  19.370  0.00  0.00    +0.000 NA
ATOM      6  C   UNL     1       1.953   7.586  19.801  0.00  0.00    +0.000 A 
ATOM      7  C   UNL     1       1.669   7.321  21.128  0.00  0.00    +0.000 A 
ATOM      8  S   UNL     1       1.083   8.729  21.903  0.00  0.00    +0.000 S 
ATOM      9  C   UNL     1       0.596  11.688  19.246  0.00  0.00    +0.000 A 
ATOM     10  C   UNL     1       0.087  12.897  19.682  0.00  0.00    +0.000 A 
ENDROOT
BRANCH   6  11
ATOM     11  C   UNL     1       2.589   6.673  18.882  0.00  0.00    +0.000 A 
ATOM     12  C   UNL     1       3.479   7.084  17.957  0.00  0.00    +0.000 A 
ATOM     13  C   UNL     1       4.167   6.143  17.084  0.00  0.00    +0.000 A 
ATOM     14  C   UNL     1       5.100   6.541  16.124  0.00  0.00    +0.000 A 
ATOM     15  C   UNL     1       5.767   5.581  15.351  0.00  0.00    +0.000 A 
ATOM     16  C   UNL     1       5.505   4.221  15.531  0.00  0.00    +0.000 A 
ATOM     17  C   UNL     1       4.567   3.818  16.476  0.00  0.00    +0.000 A 
ATOM     18  C   UNL     1       3.911   4.786  17.233  0.00  0.00    +0.000 A 
ATOM     19  O   UNL     1       2.971   4.334  18.167  0.00  0.00    +0.000 OA
ATOM     20  C   UNL     1       2.278   5.209  18.995  0.00  0.00    +0.000 A 
ATOM     21  O   UNL     1       1.452   4.760  19.784  0.00  0.00    +0.000 OA
ENDBRANCH   6  11
BRANCH   1  26
ATOM     22  C   UNL     1      -1.175  16.940  24.964  0.00  0.00    +0.000 C 
ATOM     23  C   UNL     1      -0.844  15.856  23.981  0.00  0.00    +0.000 A 
ATOM     24  C   UNL     1      -1.562  14.657  23.968  0.00  0.00    +0.000 A 
ATOM     25  C   UNL     1      -1.266  13.661  23.031  0.00  0.00    +0.000 A 
ATOM     26  C   UNL     1      -0.226  13.829  22.107  0.00  0.00    +0.000 A 
ATOM     27  C   UNL     1       0.484  15.039  22.120  0.00  0.00    +0.000 A 
ATOM     28  C   UNL     1       0.179  16.042  23.046  0.00  0.00    +0.000 A 
ENDBRANCH   1  26
BRANCH  10  29
ATOM     29  C   UNL     1      -0.344  13.983  18.831  0.00  0.00    +0.000 C 
ATOM     30  O   UNL     1       0.290  15.023  18.686  0.00  0.00    +0.000 OA
ENDBRANCH  10  29
TORSDOF 3
ENDMDL
MODEL 8
REMARK VINA RESULT:      -7.8      2.916     10.817
REMARK  Name = 
REMARK  4 active torsions:
REMARK  status: ('A' for Active; 'I' for Inactive)
REMARK    1  A    between atoms: C_1  and  C_2
REMARK    2  A    between atoms: C_5  and  C_6
REMARK    3  A    between atoms: C_11  and  C_12
REMARK    4  A    between atoms: C_26  and  C_27
REMARK                            x       y       z     vdW  Elec       q    Type
REMARK                         _______ _______ _______ _____ _____    ______ ____
ROOT
ATOM      1  C   UNL     1       0.312   9.646  19.600  0.00  0.00    +0.000 A 
ATOM      2  N   UNL     1       1.242   8.708  19.813  0.00  0.00    +0.000 NA
ATOM      3  N   UNL     1       1.708   8.356  18.587  0.00  0.00    +0.000 N 
ATOM      4  C   UNL     1       2.709   7.383  18.458  0.00  0.00    +0.000 A 
ATOM      5  N   UNL     1       3.291   7.059  17.317  0.00  0.00    +0.000 NA
ATOM      6  C   UNL     1       4.263   6.091  17.568  0.00  0.00    +0.000 A 
ATOM      7  C   UNL     1       4.294   5.629  18.871  0.00  0.00    +0.000 A 
ATOM      8  S   UNL     1       3.206   6.520  19.845  0.00  0.00    +0.000 S 
ATOM      9  C   UNL     1       1.071   9.056  17.594  0.00  0.00    +0.000 A 
ATOM     10  C   UNL     1       0.105   9.834  18.203  0.00  0.00    +0.000 A 
ENDROOT
BRANCH   6  11
ATOM     11  C   UNL     1       5.144   5.667  16.507  0.00  0.00    +0.000 A 
ATOM     12  C   UNL     1       4.731   4.867  15.504  0.00  0.00    +0.000 A 
ATOM     13  C   UNL     1       5.612   4.505  14.401  0.00  0.00    +0.000 A 
ATOM     14  C   UNL     1       5.207   3.686  13.344  0.00  0.00    +0.000 A 
ATOM     15  C   UNL     1       6.086   3.419  12.285  0.00  0.00    +0.000 A 
ATOM     16  C   UNL     1       7.371   3.966  12.277  0.00  0.00    +0.000 A 
ATOM     17  C   UNL     1       7.785   4.772  13.333  0.00  0.00    +0.000 A 
ATOM     18  C   UNL     1       6.900   5.024  14.379  0.00  0.00    +0.000 A 
ATOM     19  O   UNL     1       7.362   5.835  15.421  0.00  0.00    +0.000 OA
ATOM     20  C   UNL     1       6.557   6.175  16.501  0.00  0.00    +0.000 A 
ATOM     21  O   UNL     1       7.019   6.875  17.397  0.00  0.00    +0.000 OA
ENDBRANCH   6  11
BRANCH   1  26
ATOM     22  C   UNL     1      -2.332  12.303  24.026  0.00  0.00    +0.000 C 
ATOM     23  C   UNL     1      -1.629  11.617  22.891  0.00  0.00    +0.000 A 
ATOM     24  C   UNL     1      -0.977  10.397  23.084  0.00  0.00    +0.000 A 
ATOM     25  C   UNL     1      -0.347   9.750  22.016  0.00  0.00    +0.000 A 
ATOM     26  C   UNL     1      -0.328  10.324  20.738  0.00  0.00    +0.000 A 
ATOM     27  C   UNL     1      -0.993  11.545  20.548  0.00  0.00    +0.000 A 
ATOM     28  C   UNL     1      -1.637  12.185  21.613  0.00  0.00    +0.000 A 
ENDBRANCH   1  26
BRANCH  10  29
ATOM     29  C   UNL     1      -0.884  10.635  17.518  0.00  0.00    +0.000 C 
ATOM     30  O   UNL     1      -1.812  10.161  16.871  0.00  0.00    +0.000 OA
ENDBRANCH  10  29
TORSDOF 3
ENDMDL
MODEL 9
REMARK VINA RESULT:      -7.7      1.554      1.970
REMARK  Name = 
REMARK  4 active torsions:
REMARK  status: ('A' for Active; 'I' for Inactive)
REMARK    1  A    between atoms: C_1  and  C_2
REMARK    2  A    between atoms: C_5  and  C_6
REMARK    3  A    between atoms: C_11  and  C_12
REMARK    4  A    between atoms: C_26  and  C_27
REMARK                            x       y       z     vdW  Elec       q    Type
REMARK                         _______ _______ _______ _____ _____    ______ ____
ROOT
ATOM      1  C   UNL     1       2.632   7.014  19.349  0.00  0.00    +0.000 A 
ATOM      2  N   UNL     1       2.292   8.267  19.026  0.00  0.00    +0.000 NA
ATOM      3  N   UNL     1       1.310   8.624  19.892  0.00  0.00    +0.000 N 
ATOM      4  C   UNL     1       0.730   9.899  19.823  0.00  0.00    +0.000 A 
ATOM      5  N   UNL     1      -0.153  10.363  20.690  0.00  0.00    +0.000 NA
ATOM      6  C   UNL     1      -0.480  11.673  20.338  0.00  0.00    +0.000 A 
ATOM      7  C   UNL     1       0.073  12.107  19.147  0.00  0.00    +0.000 A 
ATOM      8  S   UNL     1       1.146  10.928  18.526  0.00  0.00    +0.000 S 
ATOM      9  C   UNL     1       1.014   7.602  20.757  0.00  0.00    +0.000 A 
ATOM     10  C   UNL     1       1.785   6.519  20.382  0.00  0.00    +0.000 A 
ENDROOT
BRANCH   6  11
ATOM     11  C   UNL     1      -1.321  12.460  21.208  0.00  0.00    +0.000 A 
ATOM     12  C   UNL     1      -0.852  13.047  22.326  0.00  0.00    +0.000 A 
ATOM     13  C   UNL     1      -1.695  13.898  23.156  0.00  0.00    +0.000 A 
ATOM     14  C   UNL     1      -1.233  14.525  24.315  0.00  0.00    +0.000 A 
ATOM     15  C   UNL     1      -2.079  15.375  25.041  0.00  0.00    +0.000 A 
ATOM     16  C   UNL     1      -3.389  15.600  24.614  0.00  0.00    +0.000 A 
ATOM     17  C   UNL     1      -3.861  14.968  23.468  0.00  0.00    +0.000 A 
ATOM     18  C   UNL     1      -3.007  14.124  22.761  0.00  0.00    +0.000 A 
ATOM     19  O   UNL     1      -3.527  13.506  21.619  0.00  0.00    +0.000 OA
ATOM     20  C   UNL     1      -2.757  12.666  20.822  0.00  0.00    +0.000 A 
ATOM     21  O   UNL     1      -3.269  12.136  19.840  0.00  0.00    +0.000 OA
ENDBRANCH   6  11
BRANCH   1  26
ATOM     22  C   UNL     1       7.116   4.518  16.646  0.00  0.00    +0.000 C 
ATOM     23  C   UNL     1       5.946   5.144  17.347  0.00  0.00    +0.000 A 
ATOM     24  C   UNL     1       5.622   4.790  18.659  0.00  0.00    +0.000 A 
ATOM     25  C   UNL     1       4.547   5.397  19.316  0.00  0.00    +0.000 A 
ATOM     26  C   UNL     1       3.753   6.351  18.664  0.00  0.00    +0.000 A 
ATOM     27  C   UNL     1       4.089   6.710  17.350  0.00  0.00    +0.000 A 
ATOM     28  C   UNL     1       5.174   6.114  16.698  0.00  0.00    +0.000 A 
ENDBRANCH   1  26
BRANCH  10  29
ATOM     29  C   UNL     1       1.698   5.190  20.944  0.00  0.00    +0.000 C 
ATOM     30  O   UNL     1       1.036   4.285  20.448  0.00  0.00    +0.000 OA
ENDBRANCH  10  29
TORSDOF 3
ENDMDL
