MODEL 1
REMARK VINA RESULT:      -8.3      0.000      0.000
REMARK  Name = 
REMARK  7 active torsions:
REMARK  status: ('A' for Active; 'I' for Inactive)
REMARK    1  A    between atoms: C_1  and  C_2
REMARK    2  A    between atoms: C_2  and  C_9
REMARK    3  A    between atoms: N_3  and  N_4
REMARK    4  A    between atoms: N_4  and  S_5
REMARK    5  A    between atoms: S_5  and  C_6
REMARK    6  A    between atoms: C_15  and  C_16
REMARK    7  A    between atoms: C_16  and  C_17
REMARK                            x       y       z     vdW  Elec       q    Type
REMARK                         _______ _______ _______ _____ _____    ______ ____
ROOT
ATOM      1  C   UNL     1       2.951   6.052  18.733  0.00  0.00    +0.000 A 
ATOM      2  C   UNL     1       2.611   5.109  19.833  0.00  0.00    +0.000 A 
ATOM      3  C   UNL     1       1.885   5.575  20.853  0.00  0.00    +0.000 A 
ATOM      4  C   UNL     1       1.480   6.929  20.858  0.00  0.00    +0.000 A 
ATOM      5  N   UNL     1       0.791   7.596  21.750  0.00  0.00    +0.000 NA
ATOM      6  C   UNL     1       0.655   8.849  21.224  0.00  0.00    +0.000 A 
ATOM      7  C   UNL     1       1.273   8.960  19.995  0.00  0.00    +0.000 A 
ATOM      8  N   UNL     1       1.840   7.713  19.767  0.00  0.00    +0.000 N 
ATOM      9  N   UNL     1       2.596   7.315  18.680  0.00  0.00    +0.000 NA
ENDROOT
BRANCH   1  11
ATOM     10  C   UNL     1       3.529   4.032  17.222  0.00  0.00    +0.000 C 
ATOM     11  C   UNL     1       3.764   5.484  17.559  0.00  0.00    +0.000 C 
ATOM     12  N   UNL     1       4.614   6.279  16.966  0.00  0.00    +0.000 NA
BRANCH  12  13
ATOM     13  N   UNL     1       5.425   5.727  15.909  0.00  0.00    +0.000 N 
ATOM     14  H   UNL     1       5.141   5.669  14.931  0.00  0.00    +0.000 HD
BRANCH  13  15
ATOM     15  S   UNL     1       7.101   5.542  16.095  0.00  0.00    +0.000 S 
ATOM     16  C   UNL     1       7.162   4.557  17.564  0.00  0.00    +0.000 C 
ATOM     17  O   UNL     1       7.628   4.768  14.991  0.00  0.00    +0.000 OA
ATOM     18  O   UNL     1       7.613   6.854  16.425  0.00  0.00    +0.000 OA
ENDBRANCH  13  15
ENDBRANCH  12  13
ENDBRANCH   1  11
BRANCH   7  19
ATOM     19  C   UNL     1       1.250  10.119  19.062  0.00  0.00    +0.000 C 
BRANCH  19  20
ATOM     20  C   UNL     1      -0.121  10.594  18.642  0.00  0.00    +0.000 A 
ATOM     21  C   UNL     1      -0.724  10.063  17.496  0.00  0.00    +0.000 A 
ATOM     22  C   UNL     1      -2.019  10.453  17.123  0.00  0.00    +0.000 A 
ATOM     23  C   UNL     1      -2.642   9.903  15.998  0.00  0.00    +0.000 A 
ATOM     24  C   UNL     1      -3.924  10.306  15.656  0.00  0.00    +0.000 A 
ATOM     25  C   UNL     1      -4.532  11.268  16.441  0.00  0.00    +0.000 A 
ATOM     26  N   UNL     1      -3.967  11.811  17.544  0.00  0.00    +0.000 NA
ATOM     27  C   UNL     1      -2.737  11.399  17.891  0.00  0.00    +0.000 A 
ATOM     28  C   UNL     1      -2.142  11.896  19.040  0.00  0.00    +0.000 A 
ATOM     29  C   UNL     1      -0.853  11.510  19.402  0.00  0.00    +0.000 A 
ATOM     30  F   UNL     1      -0.322  12.022  20.522  0.00  0.00    +0.000 F 
ENDBRANCH  19  20
ENDBRANCH   7  19
TORSDOF 5
ENDMDL
MODEL 2
REMARK VINA RESULT:      -8.0      1.141      1.204
REMARK  Name = 
REMARK  7 active torsions:
REMARK  status: ('A' for Active; 'I' for Inactive)
REMARK    1  A    between atoms: C_1  and  C_2
REMARK    2  A    between atoms: C_2  and  C_9
REMARK    3  A    between atoms: N_3  and  N_4
REMARK    4  A    between atoms: N_4  and  S_5
REMARK    5  A    between atoms: S_5  and  C_6
REMARK    6  A    between atoms: C_15  and  C_16
REMARK    7  A    between atoms: C_16  and  C_17
REMARK                            x       y       z     vdW  Elec       q    Type
REMARK                         _______ _______ _______ _____ _____    ______ ____
ROOT
ATOM      1  C   UNL     1       3.353   5.408  18.786  0.00  0.00    +0.000 A 
ATOM      2  C   UNL     1       2.976   4.551  19.943  0.00  0.00    +0.000 A 
ATOM      3  C   UNL     1       2.188   5.082  20.882  0.00  0.00    +0.000 A 
ATOM      4  C   UNL     1       1.755   6.421  20.753  0.00  0.00    +0.000 A 
ATOM      5  N   UNL     1       1.007   7.142  21.550  0.00  0.00    +0.000 NA
ATOM      6  C   UNL     1       0.872   8.343  20.914  0.00  0.00    +0.000 A 
ATOM      7  C   UNL     1       1.552   8.367  19.713  0.00  0.00    +0.000 A 
ATOM      8  N   UNL     1       2.155   7.121  19.619  0.00  0.00    +0.000 N 
ATOM      9  N   UNL     1       2.975   6.652  18.609  0.00  0.00    +0.000 NA
ENDROOT
BRANCH   1  11
ATOM     10  C   UNL     1       3.661   3.566  16.995  0.00  0.00    +0.000 C 
ATOM     11  C   UNL     1       4.238   4.765  17.706  0.00  0.00    +0.000 C 
ATOM     12  N   UNL     1       5.423   5.275  17.508  0.00  0.00    +0.000 NA
BRANCH  12  13
ATOM     13  N   UNL     1       6.279   4.630  16.542  0.00  0.00    +0.000 N 
ATOM     14  H   UNL     1       6.619   3.671  16.618  0.00  0.00    +0.000 HD
BRANCH  13  15
ATOM     15  S   UNL     1       6.433   5.235  14.965  0.00  0.00    +0.000 S 
ATOM     16  C   UNL     1       5.948   3.819  14.020  0.00  0.00    +0.000 C 
ATOM     17  O   UNL     1       5.466   6.292  14.755  0.00  0.00    +0.000 OA
ATOM     18  O   UNL     1       7.850   5.440  14.753  0.00  0.00    +0.000 OA
ENDBRANCH  13  15
ENDBRANCH  12  13
ENDBRANCH   1  11
BRANCH   7  19
ATOM     19  C   UNL     1       1.552   9.444  18.685  0.00  0.00    +0.000 C 
BRANCH  19  20
ATOM     20  C   UNL     1       0.228  10.131  18.456  0.00  0.00    +0.000 A 
ATOM     21  C   UNL     1      -0.618   9.695  17.430  0.00  0.00    +0.000 A 
ATOM     22  C   UNL     1      -1.875  10.288  17.239  0.00  0.00    +0.000 A 
ATOM     23  C   UNL     1      -2.741   9.836  16.237  0.00  0.00    +0.000 A 
ATOM     24  C   UNL     1      -3.979  10.440  16.075  0.00  0.00    +0.000 A 
ATOM     25  C   UNL     1      -4.300  11.495  16.908  0.00  0.00    +0.000 A 
ATOM     26  N   UNL     1      -3.496  11.949  17.897  0.00  0.00    +0.000 NA
ATOM     27  C   UNL     1      -2.309  11.346  18.072  0.00  0.00    +0.000 A 
ATOM     28  C   UNL     1      -1.475  11.750  19.103  0.00  0.00    +0.000 A 
ATOM     29  C   UNL     1      -0.225  11.162  19.284  0.00  0.00    +0.000 A 
ATOM     30  F   UNL     1       0.544  11.592  20.296  0.00  0.00    +0.000 F 
ENDBRANCH  19  20
ENDBRANCH   7  19
TORSDOF 5
ENDMDL
MODEL 3
REMARK VINA RESULT:      -7.8      5.211      8.462
REMARK  Name = 
REMARK  7 active torsions:
REMARK  status: ('A' for Active; 'I' for Inactive)
REMARK    1  A    between atoms: C_1  and  C_2
REMARK    2  A    between atoms: C_2  and  C_9
REMARK    3  A    between atoms: N_3  and  N_4
REMARK    4  A    between atoms: N_4  and  S_5
REMARK    5  A    between atoms: S_5  and  C_6
REMARK    6  A    between atoms: C_15  and  C_16
REMARK    7  A    between atoms: C_16  and  C_17
REMARK                            x       y       z     vdW  Elec       q    Type
REMARK                         _______ _______ _______ _____ _____    ______ ____
ROOT
ATOM      1  C   UNL     1       2.185   5.704  19.420  0.00  0.00    +0.000 A 
ATOM      2  C   UNL     1       1.463   5.074  20.559  0.00  0.00    +0.000 A 
ATOM      3  C   UNL     1       1.534   3.746  20.684  0.00  0.00    +0.000 A 
ATOM      4  C   UNL     1       2.272   2.995  19.742  0.00  0.00    +0.000 A 
ATOM      5  N   UNL     1       2.459   1.701  19.660  0.00  0.00    +0.000 NA
ATOM      6  C   UNL     1       3.287   1.533  18.587  0.00  0.00    +0.000 A 
ATOM      7  C   UNL     1       3.610   2.737  17.993  0.00  0.00    +0.000 A 
ATOM      8  N   UNL     1       2.923   3.693  18.729  0.00  0.00    +0.000 N 
ATOM      9  N   UNL     1       2.892   5.059  18.520  0.00  0.00    +0.000 NA
ENDROOT
BRANCH   1  11
ATOM     10  C   UNL     1       2.715   7.850  18.075  0.00  0.00    +0.000 C 
ATOM     11  C   UNL     1       2.110   7.235  19.312  0.00  0.00    +0.000 C 
ATOM     12  N   UNL     1       1.564   7.888  20.303  0.00  0.00    +0.000 NA
BRANCH  12  13
ATOM     13  N   UNL     1       1.554   9.329  20.233  0.00  0.00    +0.000 N 
ATOM     14  H   UNL     1       2.094   9.881  19.566  0.00  0.00    +0.000 HD
BRANCH  13  15
ATOM     15  S   UNL     1       0.304  10.232  20.939  0.00  0.00    +0.000 S 
ATOM     16  C   UNL     1      -0.237   9.115  22.201  0.00  0.00    +0.000 C 
ATOM     17  O   UNL     1       0.855  11.415  21.566  0.00  0.00    +0.000 OA
ATOM     18  O   UNL     1      -0.743  10.310  19.944  0.00  0.00    +0.000 OA
ENDBRANCH  13  15
ENDBRANCH  12  13
ENDBRANCH   1  11
BRANCH   7  19
ATOM     19  C   UNL     1       4.569   2.979  16.881  0.00  0.00    +0.000 C 
BRANCH  19  20
ATOM     20  C   UNL     1       5.308   4.295  16.930  0.00  0.00    +0.000 A 
ATOM     21  C   UNL     1       6.140   4.590  18.016  0.00  0.00    +0.000 A 
ATOM     22  C   UNL     1       6.875   5.784  18.050  0.00  0.00    +0.000 A 
ATOM     23  C   UNL     1       7.735   6.072  19.116  0.00  0.00    +0.000 A 
ATOM     24  C   UNL     1       8.452   7.259  19.120  0.00  0.00    +0.000 A 
ATOM     25  C   UNL     1       8.266   8.131  18.064  0.00  0.00    +0.000 A 
ATOM     26  N   UNL     1       7.457   7.880  17.009  0.00  0.00    +0.000 NA
ATOM     27  C   UNL     1       6.784   6.718  16.992  0.00  0.00    +0.000 A 
ATOM     28  C   UNL     1       5.981   6.402  15.907  0.00  0.00    +0.000 A 
ATOM     29  C   UNL     1       5.247   5.218  15.882  0.00  0.00    +0.000 A 
ATOM     30  F   UNL     1       4.484   4.961  14.810  0.00  0.00    +0.000 F 
ENDBRANCH  19  20
ENDBRANCH   7  19
TORSDOF 5
ENDMDL
MODEL 4
REMARK VINA RESULT:      -7.8      1.669      2.128
REMARK  Name = 
REMARK  7 active torsions:
REMARK  status: ('A' for Active; 'I' for Inactive)
REMARK    1  A    between atoms: C_1  and  C_2
REMARK    2  A    between atoms: C_2  and  C_9
REMARK    3  A    between atoms: N_3  and  N_4
REMARK    4  A    between atoms: N_4  and  S_5
REMARK    5  A    between atoms: S_5  and  C_6
REMARK    6  A    between atoms: C_15  and  C_16
REMARK    7  A    between atoms: C_16  and  C_17
REMARK                            x       y       z     vdW  Elec       q    Type
REMARK                         _______ _______ _______ _____ _____    ______ ____
ROOT
ATOM      1  C   UNL     1       4.479   4.950  18.694  0.00  0.00    +0.000 A 
ATOM      2  C   UNL     1       4.011   3.839  19.567  0.00  0.00    +0.000 A 
ATOM      3  C   UNL     1       2.991   4.083  20.395  0.00  0.00    +0.000 A 
ATOM      4  C   UNL     1       2.407   5.369  20.421  0.00  0.00    +0.000 A 
ATOM      5  N   UNL     1       1.427   5.831  21.156  0.00  0.00    +0.000 NA
ATOM      6  C   UNL     1       1.249   7.118  20.736  0.00  0.00    +0.000 A 
ATOM      7  C   UNL     1       2.136   7.459  19.734  0.00  0.00    +0.000 A 
ATOM      8  N   UNL     1       2.915   6.325  19.547  0.00  0.00    +0.000 N 
ATOM      9  N   UNL     1       3.971   6.160  18.670  0.00  0.00    +0.000 NA
ENDROOT
BRANCH   1  11
ATOM     10  C   UNL     1       7.003   5.115  18.151  0.00  0.00    +0.000 C 
ATOM     11  C   UNL     1       5.635   4.636  17.732  0.00  0.00    +0.000 C 
ATOM     12  N   UNL     1       5.350   4.015  16.620  0.00  0.00    +0.000 NA
BRANCH  12  13
ATOM     13  N   UNL     1       6.424   3.780  15.686  0.00  0.00    +0.000 N 
ATOM     14  H   UNL     1       6.920   2.894  15.583  0.00  0.00    +0.000 HD
BRANCH  13  15
ATOM     15  S   UNL     1       6.665   4.801  14.353  0.00  0.00    +0.000 S 
ATOM     16  C   UNL     1       6.416   3.665  13.019  0.00  0.00    +0.000 C 
ATOM     17  O   UNL     1       5.621   5.803  14.315  0.00  0.00    +0.000 OA
ATOM     18  O   UNL     1       8.068   5.156  14.371  0.00  0.00    +0.000 OA
ENDBRANCH  13  15
ENDBRANCH  12  13
ENDBRANCH   1  11
BRANCH   7  19
ATOM     19  C   UNL     1       2.182   8.719  18.944  0.00  0.00    +0.000 C 
BRANCH  19  20
ATOM     20  C   UNL     1       0.907   9.527  18.924  0.00  0.00    +0.000 A 
ATOM     21  C   UNL     1       0.016   9.401  17.853  0.00  0.00    +0.000 A 
ATOM     22  C   UNL     1      -1.198  10.104  17.844  0.00  0.00    +0.000 A 
ATOM     23  C   UNL     1      -2.109   9.959  16.793  0.00  0.00    +0.000 A 
ATOM     24  C   UNL     1      -3.303  10.664  16.815  0.00  0.00    +0.000 A 
ATOM     25  C   UNL     1      -3.535  11.511  17.882  0.00  0.00    +0.000 A 
ATOM     26  N   UNL     1      -2.686  11.666  18.924  0.00  0.00    +0.000 NA
ATOM     27  C   UNL     1      -1.542  10.961  18.916  0.00  0.00    +0.000 A 
ATOM     28  C   UNL     1      -0.667  11.055  19.986  0.00  0.00    +0.000 A 
ATOM     29  C   UNL     1       0.541  10.361  19.985  0.00  0.00    +0.000 A 
ATOM     30  F   UNL     1       1.354  10.488  21.044  0.00  0.00    +0.000 F 
ENDBRANCH  19  20
ENDBRANCH   7  19
TORSDOF 5
ENDMDL
MODEL 5
REMARK VINA RESULT:      -7.7      2.969      4.107
REMARK  Name = 
REMARK  7 active torsions:
REMARK  status: ('A' for Active; 'I' for Inactive)
REMARK    1  A    between atoms: C_1  and  C_2
REMARK    2  A    between atoms: C_2  and  C_9
REMARK    3  A    between atoms: N_3  and  N_4
REMARK    4  A    between atoms: N_4  and  S_5
REMARK    5  A    between atoms: S_5  and  C_6
REMARK    6  A    between atoms: C_15  and  C_16
REMARK    7  A    between atoms: C_16  and  C_17
REMARK                            x       y       z     vdW  Elec       q    Type
REMARK                         _______ _______ _______ _____ _____    ______ ____
ROOT
ATOM      1  C   UNL     1       1.461   8.599  20.172  0.00  0.00    +0.000 A 
ATOM      2  C   UNL     1       1.605   8.214  21.603  0.00  0.00    +0.000 A 
ATOM      3  C   UNL     1       1.047   9.007  22.521  0.00  0.00    +0.000 A 
ATOM      4  C   UNL     1       0.358  10.170  22.113  0.00  0.00    +0.000 A 
ATOM      5  N   UNL     1      -0.239  11.089  22.830  0.00  0.00    +0.000 NA
ATOM      6  C   UNL     1      -0.772  11.955  21.919  0.00  0.00    +0.000 A 
ATOM      7  C   UNL     1      -0.495  11.572  20.622  0.00  0.00    +0.000 A 
ATOM      8  N   UNL     1       0.271  10.421  20.746  0.00  0.00    +0.000 N 
ATOM      9  N   UNL     1       0.827   9.662  19.733  0.00  0.00    +0.000 NA
ENDROOT
BRANCH   1  11
ATOM     10  C   UNL     1       2.204   8.191  17.727  0.00  0.00    +0.000 C 
ATOM     11  C   UNL     1       2.089   7.656  19.134  0.00  0.00    +0.000 C 
ATOM     12  N   UNL     1       2.442   6.463  19.529  0.00  0.00    +0.000 NA
BRANCH  12  13
ATOM     13  N   UNL     1       2.969   5.556  18.540  0.00  0.00    +0.000 N 
ATOM     14  H   UNL     1       3.927   5.573  18.189  0.00  0.00    +0.000 HD
BRANCH  13  15
ATOM     15  S   UNL     1       2.194   4.086  18.198  0.00  0.00    +0.000 S 
ATOM     16  C   UNL     1       1.521   3.691  19.787  0.00  0.00    +0.000 C 
ATOM     17  O   UNL     1       1.105   4.317  17.273  0.00  0.00    +0.000 OA
ATOM     18  O   UNL     1       3.248   3.135  17.919  0.00  0.00    +0.000 OA
ENDBRANCH  13  15
ENDBRANCH  12  13
ENDBRANCH   1  11
BRANCH   7  19
ATOM     19  C   UNL     1      -0.993  12.185  19.361  0.00  0.00    +0.000 C 
BRANCH  19  20
ATOM     20  C   UNL     1      -2.431  11.886  19.011  0.00  0.00    +0.000 A 
ATOM     21  C   UNL     1      -3.467  12.517  19.709  0.00  0.00    +0.000 A 
ATOM     22  C   UNL     1      -4.807  12.291  19.361  0.00  0.00    +0.000 A 
ATOM     23  C   UNL     1      -5.847  12.944  20.031  0.00  0.00    +0.000 A 
ATOM     24  C   UNL     1      -7.162  12.702  19.661  0.00  0.00    +0.000 A 
ATOM     25  C   UNL     1      -7.392  11.795  18.644  0.00  0.00    +0.000 A 
ATOM     26  N   UNL     1      -6.413  11.157  17.963  0.00  0.00    +0.000 NA
ATOM     27  C   UNL     1      -5.139  11.412  18.303  0.00  0.00    +0.000 A 
ATOM     28  C   UNL     1      -4.104  10.816  17.599  0.00  0.00    +0.000 A 
ATOM     29  C   UNL     1      -2.776  11.038  17.955  0.00  0.00    +0.000 A 
ATOM     30  F   UNL     1      -1.813  10.435  17.242  0.00  0.00    +0.000 F 
ENDBRANCH  19  20
ENDBRANCH   7  19
TORSDOF 5
ENDMDL
MODEL 6
REMARK VINA RESULT:      -7.7      2.313      3.274
REMARK  Name = 
REMARK  7 active torsions:
REMARK  status: ('A' for Active; 'I' for Inactive)
REMARK    1  A    between atoms: C_1  and  C_2
REMARK    2  A    between atoms: C_2  and  C_9
REMARK    3  A    between atoms: N_3  and  N_4
REMARK    4  A    between atoms: N_4  and  S_5
REMARK    5  A    between atoms: S_5  and  C_6
REMARK    6  A    between atoms: C_15  and  C_16
REMARK    7  A    between atoms: C_16  and  C_17
REMARK                            x       y       z     vdW  Elec       q    Type
REMARK                         _______ _______ _______ _____ _____    ______ ____
ROOT
ATOM      1  C   UNL     1       3.138   5.898  18.896  0.00  0.00    +0.000 A 
ATOM      2  C   UNL     1       2.666   5.212  20.130  0.00  0.00    +0.000 A 
ATOM      3  C   UNL     1       1.867   5.893  20.955  0.00  0.00    +0.000 A 
ATOM      4  C   UNL     1       1.510   7.223  20.640  0.00  0.00    +0.000 A 
ATOM      5  N   UNL     1       0.766   8.073  21.304  0.00  0.00    +0.000 NA
ATOM      6  C   UNL     1       0.723   9.189  20.519  0.00  0.00    +0.000 A 
ATOM      7  C   UNL     1       1.454   9.031  19.359  0.00  0.00    +0.000 A 
ATOM      8  N   UNL     1       1.996   7.756  19.450  0.00  0.00    +0.000 N 
ATOM      9  N   UNL     1       2.833   7.127  18.548  0.00  0.00    +0.000 NA
ENDROOT
BRANCH   1  11
ATOM     10  C   UNL     1       4.177   3.615  18.260  0.00  0.00    +0.000 C 
ATOM     11  C   UNL     1       4.035   5.085  17.949  0.00  0.00    +0.000 C 
ATOM     12  N   UNL     1       4.628   5.721  16.976  0.00  0.00    +0.000 NA
BRANCH  12  13
ATOM     13  N   UNL     1       5.522   4.971  16.129  0.00  0.00    +0.000 N 
ATOM     14  H   UNL     1       5.235   4.453  15.298  0.00  0.00    +0.000 HD
BRANCH  13  15
ATOM     15  S   UNL     1       7.196   5.246  16.158  0.00  0.00    +0.000 S 
ATOM     16  C   UNL     1       7.274   6.694  17.174  0.00  0.00    +0.000 C 
ATOM     17  O   UNL     1       7.854   4.156  16.847  0.00  0.00    +0.000 OA
ATOM     18  O   UNL     1       7.560   5.633  14.813  0.00  0.00    +0.000 OA
ENDBRANCH  13  15
ENDBRANCH  12  13
ENDBRANCH   1  11
BRANCH   7  19
ATOM     19  C   UNL     1       1.556   9.969  18.208  0.00  0.00    +0.000 C 
BRANCH  19  20
ATOM     20  C   UNL     1       1.044  11.367  18.454  0.00  0.00    +0.000 A 
ATOM     21  C   UNL     1       1.947  12.422  18.629  0.00  0.00    +0.000 A 
ATOM     22  C   UNL     1       1.488  13.736  18.806  0.00  0.00    +0.000 A 
ATOM     23  C   UNL     1       2.384  14.800  18.948  0.00  0.00    +0.000 A 
ATOM     24  C   UNL     1       1.900  16.089  19.118  0.00  0.00    +0.000 A 
ATOM     25  C   UNL     1       0.530  16.265  19.162  0.00  0.00    +0.000 A 
ATOM     26  N   UNL     1      -0.367  15.263  19.012  0.00  0.00    +0.000 NA
ATOM     27  C   UNL     1       0.102  14.020  18.820  0.00  0.00    +0.000 A 
ATOM     28  C   UNL     1      -0.783  12.973  18.616  0.00  0.00    +0.000 A 
ATOM     29  C   UNL     1      -0.321  11.669  18.449  0.00  0.00    +0.000 A 
ATOM     30  F   UNL     1      -1.219  10.691  18.256  0.00  0.00    +0.000 F 
ENDBRANCH  19  20
ENDBRANCH   7  19
TORSDOF 5
ENDMDL
MODEL 7
REMARK VINA RESULT:      -7.7      2.644      3.886
REMARK  Name = 
REMARK  7 active torsions:
REMARK  status: ('A' for Active; 'I' for Inactive)
REMARK    1  A    between atoms: C_1  and  C_2
REMARK    2  A    between atoms: C_2  and  C_9
REMARK    3  A    between atoms: N_3  and  N_4
REMARK    4  A    between atoms: N_4  and  S_5
REMARK    5  A    between atoms: S_5  and  C_6
REMARK    6  A    between atoms: C_15  and  C_16
REMARK    7  A    between atoms: C_16  and  C_17
REMARK                            x       y       z     vdW  Elec       q    Type
REMARK                         _______ _______ _______ _____ _____    ______ ____
ROOT
ATOM      1  C   UNL     1       1.249   9.004  20.207  0.00  0.00    +0.000 A 
ATOM      2  C   UNL     1       1.353   8.302  21.515  0.00  0.00    +0.000 A 
ATOM      3  C   UNL     1       0.771   8.870  22.575  0.00  0.00    +0.000 A 
ATOM      4  C   UNL     1       0.097  10.102  22.424  0.00  0.00    +0.000 A 
ATOM      5  N   UNL     1      -0.518  10.838  23.316  0.00  0.00    +0.000 NA
ATOM      6  C   UNL     1      -1.024  11.894  22.612  0.00  0.00    +0.000 A 
ATOM      7  C   UNL     1      -0.711  11.813  21.270  0.00  0.00    +0.000 A 
ATOM      8  N   UNL     1       0.048  10.657  21.149  0.00  0.00    +0.000 N 
ATOM      9  N   UNL     1       0.630  10.144  20.005  0.00  0.00    +0.000 NA
ENDROOT
BRANCH   1  11
ATOM     10  C   UNL     1       1.910   9.098  17.706  0.00  0.00    +0.000 C 
ATOM     11  C   UNL     1       1.904   8.317  18.998  0.00  0.00    +0.000 C 
ATOM     12  N   UNL     1       2.372   7.110  19.163  0.00  0.00    +0.000 NA
BRANCH  12  13
ATOM     13  N   UNL     1       2.925   6.439  18.012  0.00  0.00    +0.000 N 
ATOM     14  H   UNL     1       2.883   6.797  17.058  0.00  0.00    +0.000 HD
BRANCH  13  15
ATOM     15  S   UNL     1       4.095   5.224  18.184  0.00  0.00    +0.000 S 
ATOM     16  C   UNL     1       5.119   5.551  16.777  0.00  0.00    +0.000 C 
ATOM     17  O   UNL     1       4.865   5.459  19.388  0.00  0.00    +0.000 OA
ATOM     18  O   UNL     1       3.409   3.973  17.945  0.00  0.00    +0.000 OA
ENDBRANCH  13  15
ENDBRANCH  12  13
ENDBRANCH   1  11
BRANCH   7  19
ATOM     19  C   UNL     1      -1.174  12.702  20.169  0.00  0.00    +0.000 C 
BRANCH  19  20
ATOM     20  C   UNL     1      -2.486  12.320  19.527  0.00  0.00    +0.000 A 
ATOM     21  C   UNL     1      -3.693  12.707  20.119  0.00  0.00    +0.000 A 
ATOM     22  C   UNL     1      -4.919  12.406  19.507  0.00  0.00    +0.000 A 
ATOM     23  C   UNL     1      -6.129  12.818  20.075  0.00  0.00    +0.000 A 
ATOM     24  C   UNL     1      -7.325  12.510  19.444  0.00  0.00    +0.000 A 
ATOM     25  C   UNL     1      -7.270  11.776  18.274  0.00  0.00    +0.000 A 
ATOM     26  N   UNL     1      -6.119  11.375  17.687  0.00  0.00    +0.000 NA
ATOM     27  C   UNL     1      -4.960  11.698  18.283  0.00  0.00    +0.000 A 
ATOM     28  C   UNL     1      -3.758  11.346  17.690  0.00  0.00    +0.000 A 
ATOM     29  C   UNL     1      -2.543  11.640  18.307  0.00  0.00    +0.000 A 
ATOM     30  F   UNL     1      -1.409  11.276  17.692  0.00  0.00    +0.000 F 
ENDBRANCH  19  20
ENDBRANCH   7  19
TORSDOF 5
ENDMDL
MODEL 8
REMARK VINA RESULT:      -7.7      2.506      3.525
REMARK  Name = 
REMARK  7 active torsions:
REMARK  status: ('A' for Active; 'I' for Inactive)
REMARK    1  A    between atoms: C_1  and  C_2
REMARK    2  A    between atoms: C_2  and  C_9
REMARK    3  A    between atoms: N_3  and  N_4
REMARK    4  A    between atoms: N_4  and  S_5
REMARK    5  A    between atoms: S_5  and  C_6
REMARK    6  A    between atoms: C_15  and  C_16
REMARK    7  A    between atoms: C_16  and  C_17
REMARK                            x       y       z     vdW  Elec       q    Type
REMARK                         _______ _______ _______ _____ _____    ______ ____
ROOT
ATOM      1  C   UNL     1       2.899   5.505  18.840  0.00  0.00    +0.000 A 
ATOM      2  C   UNL     1       2.492   4.920  20.147  0.00  0.00    +0.000 A 
ATOM      3  C   UNL     1       1.851   5.711  21.011  0.00  0.00    +0.000 A 
ATOM      4  C   UNL     1       1.593   7.056  20.667  0.00  0.00    +0.000 A 
ATOM      5  N   UNL     1       1.006   8.002  21.357  0.00  0.00    +0.000 NA
ATOM      6  C   UNL     1       0.989   9.085  20.525  0.00  0.00    +0.000 A 
ATOM      7  C   UNL     1       1.580   8.808  19.309  0.00  0.00    +0.000 A 
ATOM      8  N   UNL     1       2.003   7.489  19.410  0.00  0.00    +0.000 N 
ATOM      9  N   UNL     1       2.679   6.743  18.462  0.00  0.00    +0.000 NA
ENDROOT
BRANCH   1  11
ATOM     10  C   UNL     1       2.746   3.550  17.152  0.00  0.00    +0.000 C 
ATOM     11  C   UNL     1       3.611   4.568  17.852  0.00  0.00    +0.000 C 
ATOM     12  N   UNL     1       4.904   4.696  17.716  0.00  0.00    +0.000 NA
BRANCH  12  13
ATOM     13  N   UNL     1       5.582   3.773  16.840  0.00  0.00    +0.000 N 
ATOM     14  H   UNL     1       5.379   2.775  16.780  0.00  0.00    +0.000 HD
BRANCH  13  15
ATOM     15  S   UNL     1       6.460   4.323  15.497  0.00  0.00    +0.000 S 
ATOM     16  C   UNL     1       5.639   5.857  15.171  0.00  0.00    +0.000 C 
ATOM     17  O   UNL     1       7.826   4.598  15.891  0.00  0.00    +0.000 OA
ATOM     18  O   UNL     1       6.143   3.417  14.414  0.00  0.00    +0.000 OA
ENDBRANCH  13  15
ENDBRANCH  12  13
ENDBRANCH   1  11
BRANCH   7  19
ATOM     19  C   UNL     1       1.653   9.683  18.108  0.00  0.00    +0.000 C 
BRANCH  19  20
ATOM     20  C   UNL     1       1.338  11.141  18.340  0.00  0.00    +0.000 A 
ATOM     21  C   UNL     1       2.363  12.093  18.307  0.00  0.00    +0.000 A 
ATOM     22  C   UNL     1       2.080  13.457  18.468  0.00  0.00    +0.000 A 
ATOM     23  C   UNL     1       3.095  14.418  18.403  0.00  0.00    +0.000 A 
ATOM     24  C   UNL     1       2.783  15.760  18.562  0.00  0.00    +0.000 A 
ATOM     25  C   UNL     1       1.464  16.093  18.803  0.00  0.00    +0.000 A 
ATOM     26  N   UNL     1       0.454  15.195  18.856  0.00  0.00    +0.000 NA
ATOM     27  C   UNL     1       0.752  13.898  18.675  0.00  0.00    +0.000 A 
ATOM     28  C   UNL     1      -0.260  12.951  18.675  0.00  0.00    +0.000 A 
ATOM     29  C   UNL     1       0.029  11.597  18.523  0.00  0.00    +0.000 A 
ATOM     30  F   UNL     1      -0.987  10.721  18.533  0.00  0.00    +0.000 F 
ENDBRANCH  19  20
ENDBRANCH   7  19
TORSDOF 5
ENDMDL
MODEL 9
REMARK VINA RESULT:      -7.7      0.864      1.034
REMARK  Name = 
REMARK  7 active torsions:
REMARK  status: ('A' for Active; 'I' for Inactive)
REMARK    1  A    between atoms: C_1  and  C_2
REMARK    2  A    between atoms: C_2  and  C_9
REMARK    3  A    between atoms: N_3  and  N_4
REMARK    4  A    between atoms: N_4  and  S_5
REMARK    5  A    between atoms: S_5  and  C_6
REMARK    6  A    between atoms: C_15  and  C_16
REMARK    7  A    between atoms: C_16  and  C_17
REMARK                            x       y       z     vdW  Elec       q    Type
REMARK                         _______ _______ _______ _____ _____    ______ ____
ROOT
ATOM      1  C   UNL     1       3.159   6.530  18.690  0.00  0.00    +0.000 A 
ATOM      2  C   UNL     1       2.815   5.411  19.609  0.00  0.00    +0.000 A 
ATOM      3  C   UNL     1       1.962   5.662  20.606  0.00  0.00    +0.000 A 
ATOM      4  C   UNL     1       1.430   6.962  20.757  0.00  0.00    +0.000 A 
ATOM      5  N   UNL     1       0.606   7.433  21.659  0.00  0.00    +0.000 NA
ATOM      6  C   UNL     1       0.397   8.734  21.300  0.00  0.00    +0.000 A 
ATOM      7  C   UNL     1       1.107   9.074  20.167  0.00  0.00    +0.000 A 
ATOM      8  N   UNL     1       1.808   7.925  19.826  0.00  0.00    +0.000 N 
ATOM      9  N   UNL     1       2.691   7.753  18.776  0.00  0.00    +0.000 NA
ENDROOT
BRANCH   1  11
ATOM     10  C   UNL     1       4.103   7.158  16.364  0.00  0.00    +0.000 C 
ATOM     11  C   UNL     1       4.122   6.209  17.536  0.00  0.00    +0.000 C 
ATOM     12  N   UNL     1       4.854   5.132  17.636  0.00  0.00    +0.000 NA
BRANCH  12  13
ATOM     13  N   UNL     1       5.708   4.794  16.524  0.00  0.00    +0.000 N 
ATOM     14  H   UNL     1       5.377   4.580  15.583  0.00  0.00    +0.000 HD
BRANCH  13  15
ATOM     15  S   UNL     1       7.363   5.165  16.545  0.00  0.00    +0.000 S 
ATOM     16  C   UNL     1       7.351   6.673  17.472  0.00  0.00    +0.000 C 
ATOM     17  O   UNL     1       8.076   4.156  17.302  0.00  0.00    +0.000 OA
ATOM     18  O   UNL     1       7.717   5.490  15.181  0.00  0.00    +0.000 OA
ENDBRANCH  13  15
ENDBRANCH  12  13
ENDBRANCH   1  11
BRANCH   7  19
ATOM     19  C   UNL     1       1.055  10.352  19.405  0.00  0.00    +0.000 C 
BRANCH  19  20
ATOM     20  C   UNL     1      -0.310  10.761  18.906  0.00  0.00    +0.000 A 
ATOM     21  C   UNL     1      -0.806  10.231  17.710  0.00  0.00    +0.000 A 
ATOM     22  C   UNL     1      -2.093  10.560  17.260  0.00  0.00    +0.000 A 
ATOM     23  C   UNL     1      -2.609  10.008  16.082  0.00  0.00    +0.000 A 
ATOM     24  C   UNL     1      -3.887  10.350  15.666  0.00  0.00    +0.000 A 
ATOM     25  C   UNL     1      -4.599  11.252  16.433  0.00  0.00    +0.000 A 
ATOM     26  N   UNL     1      -4.140  11.793  17.585  0.00  0.00    +0.000 NA
ATOM     27  C   UNL     1      -2.913  11.441  18.003  0.00  0.00    +0.000 A 
ATOM     28  C   UNL     1      -2.425  11.936  19.201  0.00  0.00    +0.000 A 
ATOM     29  C   UNL     1      -1.142  11.613  19.639  0.00  0.00    +0.000 A 
ATOM     30  F   UNL     1      -0.716  12.120  20.805  0.00  0.00    +0.000 F 
ENDBRANCH  19  20
ENDBRANCH   7  19
TORSDOF 5
ENDMDL
