MODEL 1
REMARK VINA RESULT:      -6.9      0.000      0.000
REMARK  Name = 
REMARK  5 active torsions:
REMARK  status: ('A' for Active; 'I' for Inactive)
REMARK    1  A    between atoms: C_1  and  O_2
REMARK    2  A    between atoms: O_2  and  C_3
REMARK    3  A    between atoms: C_9  and  C_10
REMARK    4  A    between atoms: C_14  and  S_15
REMARK    5  A    between atoms: S_15  and  C_16
REMARK                            x       y       z     vdW  Elec       q    Type
REMARK                         _______ _______ _______ _____ _____    ______ ____
ROOT
ATOM      1  C   UNL     1       5.579   6.026  16.598  0.00  0.00    +0.000 A 
ATOM      2  C   UNL     1       5.824   4.751  16.064  0.00  0.00    +0.000 A 
ATOM      3  C   UNL     1       4.944   3.684  16.277  0.00  0.00    +0.000 A 
ATOM      4  C   UNL     1       3.786   3.844  17.046  0.00  0.00    +0.000 A 
ATOM      5  C   UNL     1       3.510   5.109  17.591  0.00  0.00    +0.000 A 
ATOM      6  C   UNL     1       2.485   5.652  18.409  0.00  0.00    +0.000 A 
ATOM      7  C   UNL     1       2.769   6.991  18.570  0.00  0.00    +0.000 A 
ATOM      8  O   UNL     1       3.930   7.299  17.919  0.00  0.00    +0.000 OA
ATOM      9  C   UNL     1       4.394   6.153  17.336  0.00  0.00    +0.000 A 
ENDROOT
BRANCH   7  10
ATOM     10  C   UNL     1       1.943   7.964  19.333  0.00  0.00    +0.000 A 
ATOM     11  C   UNL     1       1.555   7.777  20.649  0.00  0.00    +0.000 A 
ATOM     12  N   UNL     1       0.831   8.886  20.938  0.00  0.00    +0.000 N 
ATOM     13  N   UNL     1       0.201   9.285  22.065  0.00  0.00    +0.000 NA
ATOM     14  C   UNL     1      -0.333  10.435  21.769  0.00  0.00    +0.000 A 
ATOM     15  S   UNL     1      -0.102  11.077  20.127  0.00  0.00    +0.000 S 
ATOM     16  C   UNL     1       0.808   9.660  19.824  0.00  0.00    +0.000 A 
ATOM     17  N   UNL     1       1.474   9.165  18.819  0.00  0.00    +0.000 NA
BRANCH  14  18
ATOM     18  S   UNL     1      -1.255  11.387  22.888  0.00  0.00    +0.000 S 
ATOM     19  C   UNL     1      -0.744  13.050  22.400  0.00  0.00    +0.000 C 
ENDBRANCH  14  18
ENDBRANCH   7  10
BRANCH   1  21
ATOM     20  C   UNL     1       7.434   7.265  17.409  0.00  0.00    +0.000 C 
ATOM     21  O   UNL     1       6.388   7.119  16.456  0.00  0.00    +0.000 OA
ENDBRANCH   1  21
TORSDOF 3
ENDMDL
MODEL 2
REMARK VINA RESULT:      -6.9      1.790      2.670
REMARK  Name = 
REMARK  5 active torsions:
REMARK  status: ('A' for Active; 'I' for Inactive)
REMARK    1  A    between atoms: C_1  and  O_2
REMARK    2  A    between atoms: O_2  and  C_3
REMARK    3  A    between atoms: C_9  and  C_10
REMARK    4  A    between atoms: C_14  and  S_15
REMARK    5  A    between atoms: S_15  and  C_16
REMARK                            x       y       z     vdW  Elec       q    Type
REMARK                         _______ _______ _______ _____ _____    ______ ____
ROOT
ATOM      1  C   UNL     1       3.709   4.189  17.822  0.00  0.00    +0.000 A 
ATOM      2  C   UNL     1       4.637   3.978  16.791  0.00  0.00    +0.000 A 
ATOM      3  C   UNL     1       5.192   5.043  16.073  0.00  0.00    +0.000 A 
ATOM      4  C   UNL     1       4.830   6.367  16.348  0.00  0.00    +0.000 A 
ATOM      5  C   UNL     1       3.905   6.611  17.377  0.00  0.00    +0.000 A 
ATOM      6  C   UNL     1       3.294   7.767  17.928  0.00  0.00    +0.000 A 
ATOM      7  C   UNL     1       2.488   7.339  18.962  0.00  0.00    +0.000 A 
ATOM      8  O   UNL     1       2.548   5.978  19.060  0.00  0.00    +0.000 OA
ATOM      9  C   UNL     1       3.394   5.529  18.086  0.00  0.00    +0.000 A 
ENDROOT
BRANCH   7  10
ATOM     10  C   UNL     1       1.676   8.218  19.844  0.00  0.00    +0.000 A 
ATOM     11  C   UNL     1       1.149   9.434  19.443  0.00  0.00    +0.000 A 
ATOM     12  N   UNL     1       0.494   9.885  20.540  0.00  0.00    +0.000 N 
ATOM     13  N   UNL     1      -0.224  11.007  20.765  0.00  0.00    +0.000 NA
ATOM     14  C   UNL     1      -0.624  10.915  22.002  0.00  0.00    +0.000 A 
ATOM     15  S   UNL     1      -0.148   9.481  22.939  0.00  0.00    +0.000 S 
ATOM     16  C   UNL     1       0.654   8.960  21.521  0.00  0.00    +0.000 A 
ATOM     17  N   UNL     1       1.350   7.920  21.160  0.00  0.00    +0.000 NA
BRANCH  14  18
ATOM     18  S   UNL     1      -1.603  12.110  22.791  0.00  0.00    +0.000 S 
ATOM     19  C   UNL     1      -2.660  12.624  21.419  0.00  0.00    +0.000 C 
ENDBRANCH  14  18
ENDBRANCH   7  10
BRANCH   1  21
ATOM     20  C   UNL     1       3.444   1.867  18.245  0.00  0.00    +0.000 C 
ATOM     21  O   UNL     1       3.104   3.211  18.564  0.00  0.00    +0.000 OA
ENDBRANCH   1  21
TORSDOF 3
ENDMDL
MODEL 3
REMARK VINA RESULT:      -6.8      1.474      1.811
REMARK  Name = 
REMARK  5 active torsions:
REMARK  status: ('A' for Active; 'I' for Inactive)
REMARK    1  A    between atoms: C_1  and  O_2
REMARK    2  A    between atoms: O_2  and  C_3
REMARK    3  A    between atoms: C_9  and  C_10
REMARK    4  A    between atoms: C_14  and  S_15
REMARK    5  A    between atoms: S_15  and  C_16
REMARK                            x       y       z     vdW  Elec       q    Type
REMARK                         _______ _______ _______ _____ _____    ______ ____
ROOT
ATOM      1  C   UNL     1       6.313   6.036  16.669  0.00  0.00    +0.000 A 
ATOM      2  C   UNL     1       6.651   4.757  16.200  0.00  0.00    +0.000 A 
ATOM      3  C   UNL     1       5.740   3.696  16.239  0.00  0.00    +0.000 A 
ATOM      4  C   UNL     1       4.453   3.866  16.762  0.00  0.00    +0.000 A 
ATOM      5  C   UNL     1       4.082   5.136  17.236  0.00  0.00    +0.000 A 
ATOM      6  C   UNL     1       2.920   5.688  17.832  0.00  0.00    +0.000 A 
ATOM      7  C   UNL     1       3.174   7.027  18.041  0.00  0.00    +0.000 A 
ATOM      8  O   UNL     1       4.443   7.325  17.631  0.00  0.00    +0.000 OA
ATOM      9  C   UNL     1       5.006   6.174  17.157  0.00  0.00    +0.000 A 
ENDROOT
BRANCH   7  10
ATOM     10  C   UNL     1       2.219   8.009  18.620  0.00  0.00    +0.000 A 
ATOM     11  C   UNL     1       1.603   9.007  17.885  0.00  0.00    +0.000 A 
ATOM     12  N   UNL     1       0.832   9.653  18.792  0.00  0.00    +0.000 N 
ATOM     13  N   UNL     1      -0.009  10.705  18.677  0.00  0.00    +0.000 NA
ATOM     14  C   UNL     1      -0.483  10.897  19.875  0.00  0.00    +0.000 A 
ATOM     15  S   UNL     1       0.067   9.825  21.183  0.00  0.00    +0.000 S 
ATOM     16  C   UNL     1       1.014   9.044  19.991  0.00  0.00    +0.000 A 
ATOM     17  N   UNL     1       1.833   8.032  19.953  0.00  0.00    +0.000 NA
BRANCH  14  18
ATOM     18  S   UNL     1      -1.629  12.137  20.272  0.00  0.00    +0.000 S 
ATOM     19  C   UNL     1      -2.836  11.902  18.950  0.00  0.00    +0.000 C 
ENDBRANCH  14  18
ENDBRANCH   7  10
BRANCH   1  21
ATOM     20  C   UNL     1       7.831   7.382  17.902  0.00  0.00    +0.000 C 
ATOM     21  O   UNL     1       7.141   7.125  16.685  0.00  0.00    +0.000 OA
ENDBRANCH   1  21
TORSDOF 3
ENDMDL
MODEL 4
REMARK VINA RESULT:      -6.8      1.306      1.630
REMARK  Name = 
REMARK  5 active torsions:
REMARK  status: ('A' for Active; 'I' for Inactive)
REMARK    1  A    between atoms: C_1  and  O_2
REMARK    2  A    between atoms: O_2  and  C_3
REMARK    3  A    between atoms: C_9  and  C_10
REMARK    4  A    between atoms: C_14  and  S_15
REMARK    5  A    between atoms: S_15  and  C_16
REMARK                            x       y       z     vdW  Elec       q    Type
REMARK                         _______ _______ _______ _____ _____    ______ ____
ROOT
ATOM      1  C   UNL     1       6.632   5.867  16.501  0.00  0.00    +0.000 A 
ATOM      2  C   UNL     1       6.937   4.668  15.840  0.00  0.00    +0.000 A 
ATOM      3  C   UNL     1       6.000   3.636  15.717  0.00  0.00    +0.000 A 
ATOM      4  C   UNL     1       4.717   3.757  16.265  0.00  0.00    +0.000 A 
ATOM      5  C   UNL     1       4.379   4.947  16.930  0.00  0.00    +0.000 A 
ATOM      6  C   UNL     1       3.230   5.430  17.608  0.00  0.00    +0.000 A 
ATOM      7  C   UNL     1       3.518   6.714  18.020  0.00  0.00    +0.000 A 
ATOM      8  O   UNL     1       4.795   7.039  17.657  0.00  0.00    +0.000 OA
ATOM      9  C   UNL     1       5.329   5.961  17.009  0.00  0.00    +0.000 A 
ENDROOT
BRANCH   7  10
ATOM     10  C   UNL     1       2.588   7.618  18.746  0.00  0.00    +0.000 A 
ATOM     11  C   UNL     1       2.014   8.745  18.182  0.00  0.00    +0.000 A 
ATOM     12  N   UNL     1       1.253   9.259  19.178  0.00  0.00    +0.000 N 
ATOM     13  N   UNL     1       0.448  10.343  19.232  0.00  0.00    +0.000 NA
ATOM     14  C   UNL     1      -0.035  10.350  20.442  0.00  0.00    +0.000 A 
ATOM     15  S   UNL     1       0.463   9.059  21.559  0.00  0.00    +0.000 S 
ATOM     16  C   UNL     1       1.399   8.454  20.261  0.00  0.00    +0.000 A 
ATOM     17  N   UNL     1       2.186   7.434  20.062  0.00  0.00    +0.000 NA
BRANCH  14  18
ATOM     18  S   UNL     1      -1.145  11.546  21.030  0.00  0.00    +0.000 S 
ATOM     19  C   UNL     1      -1.100  11.190  22.801  0.00  0.00    +0.000 C 
ENDBRANCH  14  18
ENDBRANCH   7  10
BRANCH   1  21
ATOM     20  C   UNL     1       7.839   7.229  18.026  0.00  0.00    +0.000 C 
ATOM     21  O   UNL     1       7.487   6.919  16.683  0.00  0.00    +0.000 OA
ENDBRANCH   1  21
TORSDOF 3
ENDMDL
MODEL 5
REMARK VINA RESULT:      -6.8      2.193      3.172
REMARK  Name = 
REMARK  5 active torsions:
REMARK  status: ('A' for Active; 'I' for Inactive)
REMARK    1  A    between atoms: C_1  and  O_2
REMARK    2  A    between atoms: O_2  and  C_3
REMARK    3  A    between atoms: C_9  and  C_10
REMARK    4  A    between atoms: C_14  and  S_15
REMARK    5  A    between atoms: S_15  and  C_16
REMARK                            x       y       z     vdW  Elec       q    Type
REMARK                         _______ _______ _______ _____ _____    ______ ____
ROOT
ATOM      1  C   UNL     1       3.122   3.491  20.076  0.00  0.00    +0.000 A 
ATOM      2  C   UNL     1       3.751   2.664  19.132  0.00  0.00    +0.000 A 
ATOM      3  C   UNL     1       4.060   3.120  17.846  0.00  0.00    +0.000 A 
ATOM      4  C   UNL     1       3.740   4.422  17.444  0.00  0.00    +0.000 A 
ATOM      5  C   UNL     1       3.114   5.276  18.367  0.00  0.00    +0.000 A 
ATOM      6  C   UNL     1       2.633   6.611  18.339  0.00  0.00    +0.000 A 
ATOM      7  C   UNL     1       2.145   6.887  19.598  0.00  0.00    +0.000 A 
ATOM      8  O   UNL     1       2.273   5.785  20.395  0.00  0.00    +0.000 OA
ATOM      9  C   UNL     1       2.846   4.796  19.645  0.00  0.00    +0.000 A 
ENDROOT
BRANCH   7  10
ATOM     10  C   UNL     1       1.568   8.186  20.035  0.00  0.00    +0.000 A 
ATOM     11  C   UNL     1       1.229   8.473  21.347  0.00  0.00    +0.000 A 
ATOM     12  N   UNL     1       0.751   9.740  21.291  0.00  0.00    +0.000 N 
ATOM     13  N   UNL     1       0.276  10.568  22.248  0.00  0.00    +0.000 NA
ATOM     14  C   UNL     1      -0.041  11.666  21.622  0.00  0.00    +0.000 A 
ATOM     15  S   UNL     1       0.214  11.741  19.864  0.00  0.00    +0.000 S 
ATOM     16  C   UNL     1       0.814  10.144  19.998  0.00  0.00    +0.000 A 
ATOM     17  N   UNL     1       1.312   9.254  19.187  0.00  0.00    +0.000 NA
BRANCH  14  18
ATOM     18  S   UNL     1      -0.695  13.069  22.405  0.00  0.00    +0.000 S 
ATOM     19  C   UNL     1      -2.260  12.403  23.014  0.00  0.00    +0.000 C 
ENDBRANCH  14  18
ENDBRANCH   7  10
BRANCH   1  21
ATOM     20  C   UNL     1       1.458   2.599  21.516  0.00  0.00    +0.000 C 
ATOM     21  O   UNL     1       2.768   3.127  21.346  0.00  0.00    +0.000 OA
ENDBRANCH   1  21
TORSDOF 3
ENDMDL
MODEL 6
REMARK VINA RESULT:      -6.7      3.820      7.983
REMARK  Name = 
REMARK  5 active torsions:
REMARK  status: ('A' for Active; 'I' for Inactive)
REMARK    1  A    between atoms: C_1  and  O_2
REMARK    2  A    between atoms: O_2  and  C_3
REMARK    3  A    between atoms: C_9  and  C_10
REMARK    4  A    between atoms: C_14  and  S_15
REMARK    5  A    between atoms: S_15  and  C_16
REMARK                            x       y       z     vdW  Elec       q    Type
REMARK                         _______ _______ _______ _____ _____    ______ ____
ROOT
ATOM      1  C   UNL     1      -0.672  11.140  20.650  0.00  0.00    +0.000 A 
ATOM      2  C   UNL     1      -1.232  11.608  21.849  0.00  0.00    +0.000 A 
ATOM      3  C   UNL     1      -1.020  10.949  23.065  0.00  0.00    +0.000 A 
ATOM      4  C   UNL     1      -0.247   9.784  23.130  0.00  0.00    +0.000 A 
ATOM      5  C   UNL     1       0.331   9.292  21.948  0.00  0.00    +0.000 A 
ATOM      6  C   UNL     1       1.136   8.174  21.609  0.00  0.00    +0.000 A 
ATOM      7  C   UNL     1       1.409   8.270  20.261  0.00  0.00    +0.000 A 
ATOM      8  O   UNL     1       0.791   9.373  19.743  0.00  0.00    +0.000 OA
ATOM      9  C   UNL     1       0.119   9.989  20.762  0.00  0.00    +0.000 A 
ENDROOT
BRANCH   7  10
ATOM     10  C   UNL     1       2.249   7.325  19.480  0.00  0.00    +0.000 A 
ATOM     11  C   UNL     1       2.905   7.667  18.309  0.00  0.00    +0.000 A 
ATOM     12  N   UNL     1       3.538   6.526  17.944  0.00  0.00    +0.000 N 
ATOM     13  N   UNL     1       4.343   6.236  16.897  0.00  0.00    +0.000 NA
ATOM     14  C   UNL     1       4.665   4.983  17.052  0.00  0.00    +0.000 A 
ATOM     15  S   UNL     1       4.011   4.108  18.454  0.00  0.00    +0.000 S 
ATOM     16  C   UNL     1       3.242   5.580  18.870  0.00  0.00    +0.000 A 
ATOM     17  N   UNL     1       2.475   6.002  19.834  0.00  0.00    +0.000 NA
BRANCH  14  18
ATOM     18  S   UNL     1       5.706   4.115  15.969  0.00  0.00    +0.000 S 
ATOM     19  C   UNL     1       7.320   4.526  16.666  0.00  0.00    +0.000 C 
ENDBRANCH  14  18
ENDBRANCH   7  10
BRANCH   1  21
ATOM     20  C   UNL     1      -1.914  11.212  18.627  0.00  0.00    +0.000 C 
ATOM     21  O   UNL     1      -0.839  11.708  19.416  0.00  0.00    +0.000 OA
ENDBRANCH   1  21
TORSDOF 3
ENDMDL
MODEL 7
REMARK VINA RESULT:      -6.7      1.315      2.312
REMARK  Name = 
REMARK  5 active torsions:
REMARK  status: ('A' for Active; 'I' for Inactive)
REMARK    1  A    between atoms: C_1  and  O_2
REMARK    2  A    between atoms: O_2  and  C_3
REMARK    3  A    between atoms: C_9  and  C_10
REMARK    4  A    between atoms: C_14  and  S_15
REMARK    5  A    between atoms: S_15  and  C_16
REMARK                            x       y       z     vdW  Elec       q    Type
REMARK                         _______ _______ _______ _____ _____    ______ ____
ROOT
ATOM      1  C   UNL     1       4.281   3.889  17.337  0.00  0.00    +0.000 A 
ATOM      2  C   UNL     1       5.234   3.673  16.329  0.00  0.00    +0.000 A 
ATOM      3  C   UNL     1       5.767   4.730  15.584  0.00  0.00    +0.000 A 
ATOM      4  C   UNL     1       5.360   6.051  15.807  0.00  0.00    +0.000 A 
ATOM      5  C   UNL     1       4.411   6.301  16.813  0.00  0.00    +0.000 A 
ATOM      6  C   UNL     1       3.755   7.455  17.314  0.00  0.00    +0.000 A 
ATOM      7  C   UNL     1       2.946   7.037  18.349  0.00  0.00    +0.000 A 
ATOM      8  O   UNL     1       3.045   5.682  18.495  0.00  0.00    +0.000 OA
ATOM      9  C   UNL     1       3.922   5.227  17.551  0.00  0.00    +0.000 A 
ENDROOT
BRANCH   7  10
ATOM     10  C   UNL     1       2.092   7.919  19.189  0.00  0.00    +0.000 A 
ATOM     11  C   UNL     1       1.768   7.646  20.507  0.00  0.00    +0.000 A 
ATOM     12  N   UNL     1       0.990   8.692  20.876  0.00  0.00    +0.000 N 
ATOM     13  N   UNL     1       0.381   8.996  22.043  0.00  0.00    +0.000 NA
ATOM     14  C   UNL     1      -0.232  10.124  21.825  0.00  0.00    +0.000 A 
ATOM     15  S   UNL     1      -0.104  10.857  20.210  0.00  0.00    +0.000 S 
ATOM     16  C   UNL     1       0.878   9.516  19.804  0.00  0.00    +0.000 A 
ATOM     17  N   UNL     1       1.532   9.111  18.753  0.00  0.00    +0.000 NA
BRANCH  14  18
ATOM     18  S   UNL     1      -1.166  10.963  23.022  0.00  0.00    +0.000 S 
ATOM     19  C   UNL     1      -1.892  12.273  22.013  0.00  0.00    +0.000 C 
ENDBRANCH  14  18
ENDBRANCH   7  10
BRANCH   1  21
ATOM     20  C   UNL     1       2.456   2.399  17.633  0.00  0.00    +0.000 C 
ATOM     21  O   UNL     1       3.695   2.919  18.102  0.00  0.00    +0.000 OA
ENDBRANCH   1  21
TORSDOF 3
ENDMDL
MODEL 8
REMARK VINA RESULT:      -6.6      1.448      2.380
REMARK  Name = 
REMARK  5 active torsions:
REMARK  status: ('A' for Active; 'I' for Inactive)
REMARK    1  A    between atoms: C_1  and  O_2
REMARK    2  A    between atoms: O_2  and  C_3
REMARK    3  A    between atoms: C_9  and  C_10
REMARK    4  A    between atoms: C_14  and  S_15
REMARK    5  A    between atoms: S_15  and  C_16
REMARK                            x       y       z     vdW  Elec       q    Type
REMARK                         _______ _______ _______ _____ _____    ______ ____
ROOT
ATOM      1  C   UNL     1       3.441   3.912  17.913  0.00  0.00    +0.000 A 
ATOM      2  C   UNL     1       4.428   3.517  16.997  0.00  0.00    +0.000 A 
ATOM      3  C   UNL     1       5.168   4.453  16.266  0.00  0.00    +0.000 A 
ATOM      4  C   UNL     1       4.942   5.827  16.412  0.00  0.00    +0.000 A 
ATOM      5  C   UNL     1       3.964   6.254  17.324  0.00  0.00    +0.000 A 
ATOM      6  C   UNL     1       3.446   7.511  17.731  0.00  0.00    +0.000 A 
ATOM      7  C   UNL     1       2.505   7.260  18.706  0.00  0.00    +0.000 A 
ATOM      8  O   UNL     1       2.393   5.913  18.904  0.00  0.00    +0.000 OA
ATOM      9  C   UNL     1       3.265   5.296  18.052  0.00  0.00    +0.000 A 
ENDROOT
BRANCH   7  10
ATOM     10  C   UNL     1       1.726   8.292  19.441  0.00  0.00    +0.000 A 
ATOM     11  C   UNL     1       1.408   8.201  20.786  0.00  0.00    +0.000 A 
ATOM     12  N   UNL     1       0.707   9.333  21.034  0.00  0.00    +0.000 N 
ATOM     13  N   UNL     1       0.140   9.816  22.162  0.00  0.00    +0.000 NA
ATOM     14  C   UNL     1      -0.402  10.948  21.815  0.00  0.00    +0.000 A 
ATOM     15  S   UNL     1      -0.255  11.472  20.122  0.00  0.00    +0.000 S 
ATOM     16  C   UNL     1       0.629  10.029  19.871  0.00  0.00    +0.000 A 
ATOM     17  N   UNL     1       1.237   9.458  18.870  0.00  0.00    +0.000 NA
BRANCH  14  18
ATOM     18  S   UNL     1      -1.257  11.985  22.911  0.00  0.00    +0.000 S 
ATOM     19  C   UNL     1      -0.570  13.590  22.447  0.00  0.00    +0.000 C 
ENDBRANCH  14  18
ENDBRANCH   7  10
BRANCH   1  21
ATOM     20  C   UNL     1       3.198   2.630  19.897  0.00  0.00    +0.000 C 
ATOM     21  O   UNL     1       2.659   3.071  18.656  0.00  0.00    +0.000 OA
ENDBRANCH   1  21
TORSDOF 3
ENDMDL
MODEL 9
REMARK VINA RESULT:      -6.6      2.407      3.546
REMARK  Name = 
REMARK  5 active torsions:
REMARK  status: ('A' for Active; 'I' for Inactive)
REMARK    1  A    between atoms: C_1  and  O_2
REMARK    2  A    between atoms: O_2  and  C_3
REMARK    3  A    between atoms: C_9  and  C_10
REMARK    4  A    between atoms: C_14  and  S_15
REMARK    5  A    between atoms: S_15  and  C_16
REMARK                            x       y       z     vdW  Elec       q    Type
REMARK                         _______ _______ _______ _____ _____    ______ ____
ROOT
ATOM      1  C   UNL     1       2.554   4.579  20.293  0.00  0.00    +0.000 A 
ATOM      2  C   UNL     1       3.260   3.866  19.313  0.00  0.00    +0.000 A 
ATOM      3  C   UNL     1       3.666   4.466  18.116  0.00  0.00    +0.000 A 
ATOM      4  C   UNL     1       3.370   5.807  17.843  0.00  0.00    +0.000 A 
ATOM      5  C   UNL     1       2.668   6.550  18.806  0.00  0.00    +0.000 A 
ATOM      6  C   UNL     1       2.181   7.880  18.895  0.00  0.00    +0.000 A 
ATOM      7  C   UNL     1       1.594   8.010  20.135  0.00  0.00    +0.000 A 
ATOM      8  O   UNL     1       1.667   6.822  20.807  0.00  0.00    +0.000 OA
ATOM      9  C   UNL     1       2.303   5.926  19.996  0.00  0.00    +0.000 A 
ENDROOT
BRANCH   7  10
ATOM     10  C   UNL     1       0.976   9.251  20.673  0.00  0.00    +0.000 A 
ATOM     11  C   UNL     1       0.444   9.354  21.947  0.00  0.00    +0.000 A 
ATOM     12  N   UNL     1      -0.002  10.632  22.013  0.00  0.00    +0.000 N 
ATOM     13  N   UNL     1      -0.605  11.328  23.002  0.00  0.00    +0.000 NA
ATOM     14  C   UNL     1      -0.808  12.517  22.509  0.00  0.00    +0.000 A 
ATOM     15  S   UNL     1      -0.286  12.840  20.840  0.00  0.00    +0.000 S 
ATOM     16  C   UNL     1       0.264  11.220  20.819  0.00  0.00    +0.000 A 
ATOM     17  N   UNL     1       0.867  10.440  19.967  0.00  0.00    +0.000 NA
BRANCH  14  18
ATOM     18  S   UNL     1      -1.553  13.812  23.389  0.00  0.00    +0.000 S 
ATOM     19  C   UNL     1      -3.155  13.069  23.771  0.00  0.00    +0.000 C 
ENDBRANCH  14  18
ENDBRANCH   7  10
BRANCH   1  21
ATOM     20  C   UNL     1       1.963   2.658  21.557  0.00  0.00    +0.000 C 
ATOM     21  O   UNL     1       2.104   4.072  21.481  0.00  0.00    +0.000 OA
ENDBRANCH   1  21
TORSDOF 3
ENDMDL
