MODEL 1
REMARK VINA RESULT:      -6.2      0.000      0.000
REMARK  Name = 
REMARK  22 active torsions:
REMARK  status: ('A' for Active; 'I' for Inactive)
REMARK    1  A    between atoms: C_1  and  C_2
REMARK    2  A    between atoms: C_2  and  C_3
REMARK    3  A    between atoms: C_3  and  C_4
REMARK    4  A    between atoms: C_4  and  C_5
REMARK    5  A    between atoms: C_5  and  C_6
REMARK    6  A    between atoms: C_6  and  C_7
REMARK    7  A    between atoms: C_7  and  C_8
REMARK    8  A    between atoms: C_8  and  C_9
REMARK    9  A    between atoms: C_9  and  C_10
REMARK   10  A    between atoms: C_10  and  C_11
REMARK   11  A    between atoms: C_11  and  C_12
REMARK   12  A    between atoms: C_12  and  C_13
REMARK   13  A    between atoms: C_13  and  C_14
REMARK   14  A    between atoms: C_14  and  C_15
REMARK   15  A    between atoms: C_15  and  C_16
REMARK   16  A    between atoms: N_18  and  CA_19
REMARK   17  A    between atoms: CA_19  and  CB_20
REMARK   18  A    between atoms: CA_19  and  C_24
REMARK   19  A    between atoms: CB_20  and  CG_21
REMARK   20  A    between atoms: CG_21  and  CD1_22
REMARK   21  A    between atoms: CG_21  and  CD2_23
REMARK   22  A    between atoms: C_24  and  OXT_26
REMARK                            x       y       z     vdW  Elec       q    Type
REMARK                         _______ _______ _______ _____ _____    ______ ____
ROOT
ATOM      1  C   UNK A   0       2.255   2.349  18.570  0.00  0.00    +0.000 C 
ENDROOT
BRANCH   1   2
ATOM      2  C   UNK A   0       3.778   2.313  18.639  0.00  0.00    +0.000 C 
BRANCH   2   3
ATOM      3  C   UNK A   0       4.399   3.448  17.855  0.00  0.00    +0.000 C 
ATOM      4  O   UNK A   0       3.813   3.957  16.890  0.00  0.00    +0.000 OA
ATOM      5  N   LEU A   1       5.607   3.912  18.333  0.00  0.00    +0.000 N 
ATOM      6  H   LEU A   1       6.130   3.193  18.815  0.00  0.00    +0.000 HD
BRANCH   5   7
ATOM      7  CA  LEU A   1       6.399   5.006  17.728  0.00  0.00    +0.000 C 
BRANCH   7   8
ATOM      8  C   LEU A   1       7.355   5.639  18.738  0.00  0.00    +0.000 C 
ATOM      9  O   LEU A   1       7.666   5.119  19.818  0.00  0.00    +0.000 OA
BRANCH   8  10
ATOM     10  OXT LEU A   1       7.938   6.795  18.389  0.00  0.00    +0.000 OA
ATOM     11  HXT LEU A   1       8.427   7.332  19.041  0.00  0.00    +0.000 HD
ENDBRANCH   8  10
ENDBRANCH   7   8
BRANCH   7  12
ATOM     12  CB  LEU A   1       7.247   4.525  16.508  0.00  0.00    +0.000 C 
BRANCH  12  13
ATOM     13  CG  LEU A   1       6.733   5.015  15.141  0.00  0.00    +0.000 C 
ATOM     14  CD1 LEU A   1       6.142   3.893  14.290  0.00  0.00    +0.000 C 
ATOM     15  CD2 LEU A   1       5.657   6.079  15.328  0.00  0.00    +0.000 C 
ENDBRANCH  12  13
ENDBRANCH   7  12
ENDBRANCH   5   7
ENDBRANCH   2   3
ENDBRANCH   1   2
BRANCH   1  16
ATOM     16  C   UNK A   0       1.651   1.874  19.881  0.00  0.00    +0.000 C 
BRANCH  16  17
ATOM     17  C   UNK A   0       0.952   3.030  20.573  0.00  0.00    +0.000 C 
BRANCH  17  18
ATOM     18  C   UNK A   0       1.157   4.310  19.786  0.00  0.00    +0.000 C 
BRANCH  18  19
ATOM     19  C   UNK A   0       1.879   5.333  20.642  0.00  0.00    +0.000 C 
BRANCH  19  20
ATOM     20  C   UNK A   0       3.035   5.934  19.864  0.00  0.00    +0.000 C 
BRANCH  20  21
ATOM     21  C   UNK A   0       2.508   6.692  18.661  0.00  0.00    +0.000 C 
BRANCH  21  22
ATOM     22  C   UNK A   0       2.111   8.097  19.071  0.00  0.00    +0.000 C 
BRANCH  22  23
ATOM     23  C   UNK A   0       2.139   9.013  17.863  0.00  0.00    +0.000 C 
BRANCH  23  24
ATOM     24  C   UNK A   0       1.446  10.322  18.191  0.00  0.00    +0.000 C 
BRANCH  24  25
ATOM     25  C   UNK A   0       0.040  10.050  18.696  0.00  0.00    +0.000 C 
BRANCH  25  26
ATOM     26  C   UNK A   0      -0.769  11.335  18.695  0.00  0.00    +0.000 C 
BRANCH  26  28
ATOM     27  C   UNK A   0      -2.139   9.824  17.269  0.00  0.00    +0.000 C 
ATOM     28  C   UNK A   0      -1.864  11.267  17.642  0.00  0.00    +0.000 C 
ENDBRANCH  26  28
ENDBRANCH  25  26
ENDBRANCH  24  25
ENDBRANCH  23  24
ENDBRANCH  22  23
ENDBRANCH  21  22
ENDBRANCH  20  21
ENDBRANCH  19  20
ENDBRANCH  18  19
ENDBRANCH  17  18
ENDBRANCH  16  17
ENDBRANCH   1  16
TORSDOF 19
ENDMDL
MODEL 2
REMARK VINA RESULT:      -6.1      0.963      1.462
REMARK  Name = 
REMARK  22 active torsions:
REMARK  status: ('A' for Active; 'I' for Inactive)
REMARK    1  A    between atoms: C_1  and  C_2
REMARK    2  A    between atoms: C_2  and  C_3
REMARK    3  A    between atoms: C_3  and  C_4
REMARK    4  A    between atoms: C_4  and  C_5
REMARK    5  A    between atoms: C_5  and  C_6
REMARK    6  A    between atoms: C_6  and  C_7
REMARK    7  A    between atoms: C_7  and  C_8
REMARK    8  A    between atoms: C_8  and  C_9
REMARK    9  A    between atoms: C_9  and  C_10
REMARK   10  A    between atoms: C_10  and  C_11
REMARK   11  A    between atoms: C_11  and  C_12
REMARK   12  A    between atoms: C_12  and  C_13
REMARK   13  A    between atoms: C_13  and  C_14
REMARK   14  A    between atoms: C_14  and  C_15
REMARK   15  A    between atoms: C_15  and  C_16
REMARK   16  A    between atoms: N_18  and  CA_19
REMARK   17  A    between atoms: CA_19  and  CB_20
REMARK   18  A    between atoms: CA_19  and  C_24
REMARK   19  A    between atoms: CB_20  and  CG_21
REMARK   20  A    between atoms: CG_21  and  CD1_22
REMARK   21  A    between atoms: CG_21  and  CD2_23
REMARK   22  A    between atoms: C_24  and  OXT_26
REMARK                            x       y       z     vdW  Elec       q    Type
REMARK                         _______ _______ _______ _____ _____    ______ ____
ROOT
ATOM      1  C   UNK A   0       2.626   2.405  19.846  0.00  0.00    +0.000 C 
ENDROOT
BRANCH   1   2
ATOM      2  C   UNK A   0       4.150   2.461  19.865  0.00  0.00    +0.000 C 
BRANCH   2   3
ATOM      3  C   UNK A   0       4.685   3.421  18.825  0.00  0.00    +0.000 C 
ATOM      4  O   UNK A   0       4.146   3.532  17.717  0.00  0.00    +0.000 OA
ATOM      5  N   LEU A   1       5.752   4.199  19.226  0.00  0.00    +0.000 N 
ATOM      6  H   LEU A   1       6.315   3.744  19.932  0.00  0.00    +0.000 HD
BRANCH   5   7
ATOM      7  CA  LEU A   1       6.441   5.200  18.382  0.00  0.00    +0.000 C 
BRANCH   7   8
ATOM      8  C   LEU A   1       7.585   5.883  19.131  0.00  0.00    +0.000 C 
ATOM      9  O   LEU A   1       8.229   6.841  18.686  0.00  0.00    +0.000 OA
BRANCH   8  10
ATOM     10  OXT LEU A   1       7.849   5.450  20.372  0.00  0.00    +0.000 OA
ATOM     11  HXT LEU A   1       8.336   4.619  20.525  0.00  0.00    +0.000 HD
ENDBRANCH   8  10
ENDBRANCH   7   8
BRANCH   7  12
ATOM     12  CB  LEU A   1       7.033   4.574  17.078  0.00  0.00    +0.000 C 
BRANCH  12  13
ATOM     13  CG  LEU A   1       6.814   5.419  15.809  0.00  0.00    +0.000 C 
ATOM     14  CD1 LEU A   1       6.810   4.583  14.531  0.00  0.00    +0.000 C 
ATOM     15  CD2 LEU A   1       5.486   6.163  15.888  0.00  0.00    +0.000 C 
ENDBRANCH  12  13
ENDBRANCH   7  12
ENDBRANCH   5   7
ENDBRANCH   2   3
ENDBRANCH   1   2
BRANCH   1  16
ATOM     16  C   UNK A   0       2.055   2.996  21.124  0.00  0.00    +0.000 C 
BRANCH  16  17
ATOM     17  C   UNK A   0       2.455   4.456  21.238  0.00  0.00    +0.000 C 
BRANCH  17  18
ATOM     18  C   UNK A   0       1.486   5.324  20.458  0.00  0.00    +0.000 C 
BRANCH  18  19
ATOM     19  C   UNK A   0       2.160   6.625  20.065  0.00  0.00    +0.000 C 
BRANCH  19  20
ATOM     20  C   UNK A   0       2.710   6.516  18.655  0.00  0.00    +0.000 C 
BRANCH  20  21
ATOM     21  C   UNK A   0       2.116   7.605  17.783  0.00  0.00    +0.000 C 
BRANCH  21  22
ATOM     22  C   UNK A   0       2.247   8.948  18.475  0.00  0.00    +0.000 C 
BRANCH  22  23
ATOM     23  C   UNK A   0       0.897   9.388  19.008  0.00  0.00    +0.000 C 
BRANCH  23  24
ATOM     24  C   UNK A   0       0.118  10.099  17.917  0.00  0.00    +0.000 C 
BRANCH  24  25
ATOM     25  C   UNK A   0      -1.146  10.707  18.498  0.00  0.00    +0.000 C 
BRANCH  25  26
ATOM     26  C   UNK A   0      -2.366   9.995  17.942  0.00  0.00    +0.000 C 
BRANCH  26  28
ATOM     27  C   UNK A   0      -3.390  10.807  15.824  0.00  0.00    +0.000 C 
ATOM     28  C   UNK A   0      -2.299   9.943  16.424  0.00  0.00    +0.000 C 
ENDBRANCH  26  28
ENDBRANCH  25  26
ENDBRANCH  24  25
ENDBRANCH  23  24
ENDBRANCH  22  23
ENDBRANCH  21  22
ENDBRANCH  20  21
ENDBRANCH  19  20
ENDBRANCH  18  19
ENDBRANCH  17  18
ENDBRANCH  16  17
ENDBRANCH   1  16
TORSDOF 19
ENDMDL
MODEL 3
REMARK VINA RESULT:      -6.0      2.794      5.856
REMARK  Name = 
REMARK  22 active torsions:
REMARK  status: ('A' for Active; 'I' for Inactive)
REMARK    1  A    between atoms: C_1  and  C_2
REMARK    2  A    between atoms: C_2  and  C_3
REMARK    3  A    between atoms: C_3  and  C_4
REMARK    4  A    between atoms: C_4  and  C_5
REMARK    5  A    between atoms: C_5  and  C_6
REMARK    6  A    between atoms: C_6  and  C_7
REMARK    7  A    between atoms: C_7  and  C_8
REMARK    8  A    between atoms: C_8  and  C_9
REMARK    9  A    between atoms: C_9  and  C_10
REMARK   10  A    between atoms: C_10  and  C_11
REMARK   11  A    between atoms: C_11  and  C_12
REMARK   12  A    between atoms: C_12  and  C_13
REMARK   13  A    between atoms: C_13  and  C_14
REMARK   14  A    between atoms: C_14  and  C_15
REMARK   15  A    between atoms: C_15  and  C_16
REMARK   16  A    between atoms: N_18  and  CA_19
REMARK   17  A    between atoms: CA_19  and  CB_20
REMARK   18  A    between atoms: CA_19  and  C_24
REMARK   19  A    between atoms: CB_20  and  CG_21
REMARK   20  A    between atoms: CG_21  and  CD1_22
REMARK   21  A    between atoms: CG_21  and  CD2_23
REMARK   22  A    between atoms: C_24  and  OXT_26
REMARK                            x       y       z     vdW  Elec       q    Type
REMARK                         _______ _______ _______ _____ _____    ______ ____
ROOT
ATOM      1  C   UNK A   0       6.313   5.550  17.819  0.00  0.00    +0.000 C 
ENDROOT
BRANCH   1   2
ATOM      2  C   UNK A   0       6.324   4.502  16.711  0.00  0.00    +0.000 C 
BRANCH   2   3
ATOM      3  C   UNK A   0       6.278   5.140  15.340  0.00  0.00    +0.000 C 
ATOM      4  O   UNK A   0       5.940   6.322  15.194  0.00  0.00    +0.000 OA
ATOM      5  N   LEU A   1       6.704   4.343  14.297  0.00  0.00    +0.000 N 
ATOM      6  H   LEU A   1       6.552   3.360  14.479  0.00  0.00    +0.000 HD
BRANCH   5   7
ATOM      7  CA  LEU A   1       6.742   4.750  12.875  0.00  0.00    +0.000 C 
BRANCH   7   8
ATOM      8  C   LEU A   1       7.907   5.695  12.586  0.00  0.00    +0.000 C 
ATOM      9  O   LEU A   1       8.003   6.383  11.561  0.00  0.00    +0.000 OA
BRANCH   8  10
ATOM     10  OXT LEU A   1       8.839   5.829  13.541  0.00  0.00    +0.000 OA
ATOM     11  HXT LEU A   1       9.696   5.369  13.478  0.00  0.00    +0.000 HD
ENDBRANCH   8  10
ENDBRANCH   7   8
BRANCH   7  12
ATOM     12  CB  LEU A   1       6.870   3.529  11.909  0.00  0.00    +0.000 C 
BRANCH  12  13
ATOM     13  CG  LEU A   1       5.678   2.554  11.952  0.00  0.00    +0.000 C 
ATOM     14  CD1 LEU A   1       4.408   3.138  11.339  0.00  0.00    +0.000 C 
ATOM     15  CD2 LEU A   1       6.015   1.270  11.201  0.00  0.00    +0.000 C 
ENDBRANCH  12  13
ENDBRANCH   7  12
ENDBRANCH   5   7
ENDBRANCH   2   3
ENDBRANCH   1   2
BRANCH   1  16
ATOM     16  C   UNK A   0       4.958   5.584  18.506  0.00  0.00    +0.000 C 
BRANCH  16  17
ATOM     17  C   UNK A   0       4.106   6.689  17.906  0.00  0.00    +0.000 C 
BRANCH  17  18
ATOM     18  C   UNK A   0       2.654   6.497  18.299  0.00  0.00    +0.000 C 
BRANCH  18  19
ATOM     19  C   UNK A   0       2.273   7.497  19.374  0.00  0.00    +0.000 C 
BRANCH  19  20
ATOM     20  C   UNK A   0       1.716   6.769  20.582  0.00  0.00    +0.000 C 
BRANCH  20  21
ATOM     21  C   UNK A   0       1.681   5.277  20.314  0.00  0.00    +0.000 C 
BRANCH  21  22
ATOM     22  C   UNK A   0       2.348   4.533  21.454  0.00  0.00    +0.000 C 
BRANCH  22  23
ATOM     23  C   UNK A   0       2.410   3.051  21.137  0.00  0.00    +0.000 C 
BRANCH  23  24
ATOM     24  C   UNK A   0       1.129   2.616  20.450  0.00  0.00    +0.000 C 
BRANCH  24  25
ATOM     25  C   UNK A   0       1.436   2.127  19.046  0.00  0.00    +0.000 C 
BRANCH  25  26
ATOM     26  C   UNK A   0       2.894   1.710  18.950  0.00  0.00    +0.000 C 
BRANCH  26  28
ATOM     27  C   UNK A   0       2.609   3.301  17.058  0.00  0.00    +0.000 C 
ATOM     28  C   UNK A   0       3.513   2.251  17.671  0.00  0.00    +0.000 C 
ENDBRANCH  26  28
ENDBRANCH  25  26
ENDBRANCH  24  25
ENDBRANCH  23  24
ENDBRANCH  22  23
ENDBRANCH  21  22
ENDBRANCH  20  21
ENDBRANCH  19  20
ENDBRANCH  18  19
ENDBRANCH  17  18
ENDBRANCH  16  17
ENDBRANCH   1  16
TORSDOF 19
ENDMDL
MODEL 4
REMARK VINA RESULT:      -5.9      1.314      1.975
REMARK  Name = 
REMARK  22 active torsions:
REMARK  status: ('A' for Active; 'I' for Inactive)
REMARK    1  A    between atoms: C_1  and  C_2
REMARK    2  A    between atoms: C_2  and  C_3
REMARK    3  A    between atoms: C_3  and  C_4
REMARK    4  A    between atoms: C_4  and  C_5
REMARK    5  A    between atoms: C_5  and  C_6
REMARK    6  A    between atoms: C_6  and  C_7
REMARK    7  A    between atoms: C_7  and  C_8
REMARK    8  A    between atoms: C_8  and  C_9
REMARK    9  A    between atoms: C_9  and  C_10
REMARK   10  A    between atoms: C_10  and  C_11
REMARK   11  A    between atoms: C_11  and  C_12
REMARK   12  A    between atoms: C_12  and  C_13
REMARK   13  A    between atoms: C_13  and  C_14
REMARK   14  A    between atoms: C_14  and  C_15
REMARK   15  A    between atoms: C_15  and  C_16
REMARK   16  A    between atoms: N_18  and  CA_19
REMARK   17  A    between atoms: CA_19  and  CB_20
REMARK   18  A    between atoms: CA_19  and  C_24
REMARK   19  A    between atoms: CB_20  and  CG_21
REMARK   20  A    between atoms: CG_21  and  CD1_22
REMARK   21  A    between atoms: CG_21  and  CD2_23
REMARK   22  A    between atoms: C_24  and  OXT_26
REMARK                            x       y       z     vdW  Elec       q    Type
REMARK                         _______ _______ _______ _____ _____    ______ ____
ROOT
ATOM      1  C   UNK A   0       2.527   2.265  18.255  0.00  0.00    +0.000 C 
ENDROOT
BRANCH   1   2
ATOM      2  C   UNK A   0       3.969   2.711  18.468  0.00  0.00    +0.000 C 
BRANCH   2   3
ATOM      3  C   UNK A   0       4.409   3.697  17.408  0.00  0.00    +0.000 C 
ATOM      4  O   UNK A   0       3.643   4.049  16.502  0.00  0.00    +0.000 OA
ATOM      5  N   LEU A   1       5.676   4.219  17.570  0.00  0.00    +0.000 N 
ATOM      6  H   LEU A   1       6.294   3.583  18.056  0.00  0.00    +0.000 HD
BRANCH   5   7
ATOM      7  CA  LEU A   1       6.319   5.193  16.660  0.00  0.00    +0.000 C 
BRANCH   7   8
ATOM      8  C   LEU A   1       7.252   6.141  17.411  0.00  0.00    +0.000 C 
ATOM      9  O   LEU A   1       7.595   7.253  16.990  0.00  0.00    +0.000 OA
BRANCH   8  10
ATOM     10  OXT LEU A   1       7.662   5.760  18.630  0.00  0.00    +0.000 OA
ATOM     11  HXT LEU A   1       7.458   4.872  18.977  0.00  0.00    +0.000 HD
ENDBRANCH   8  10
ENDBRANCH   7   8
BRANCH   7  12
ATOM     12  CB  LEU A   1       7.151   4.498  15.536  0.00  0.00    +0.000 C 
BRANCH  12  13
ATOM     13  CG  LEU A   1       6.739   4.887  14.103  0.00  0.00    +0.000 C 
ATOM     14  CD1 LEU A   1       7.929   5.263  13.223  0.00  0.00    +0.000 C 
ATOM     15  CD2 LEU A   1       6.002   3.734  13.431  0.00  0.00    +0.000 C 
ENDBRANCH  12  13
ENDBRANCH   7  12
ENDBRANCH   5   7
ENDBRANCH   2   3
ENDBRANCH   1   2
BRANCH   1  16
ATOM     16  C   UNK A   0       1.725   2.425  19.537  0.00  0.00    +0.000 C 
BRANCH  16  17
ATOM     17  C   UNK A   0       2.667   2.631  20.710  0.00  0.00    +0.000 C 
BRANCH  17  18
ATOM     18  C   UNK A   0       2.385   3.965  21.375  0.00  0.00    +0.000 C 
BRANCH  18  19
ATOM     19  C   UNK A   0       1.270   4.684  20.641  0.00  0.00    +0.000 C 
BRANCH  19  20
ATOM     20  C   UNK A   0       1.656   6.132  20.406  0.00  0.00    +0.000 C 
BRANCH  20  21
ATOM     21  C   UNK A   0       2.855   6.203  19.480  0.00  0.00    +0.000 C 
BRANCH  21  22
ATOM     22  C   UNK A   0       2.487   6.959  18.218  0.00  0.00    +0.000 C 
BRANCH  22  23
ATOM     23  C   UNK A   0       2.459   8.449  18.501  0.00  0.00    +0.000 C 
BRANCH  23  24
ATOM     24  C   UNK A   0       1.355   9.107  17.695  0.00  0.00    +0.000 C 
BRANCH  24  25
ATOM     25  C   UNK A   0       0.299   9.669  18.630  0.00  0.00    +0.000 C 
BRANCH  25  26
ATOM     26  C   UNK A   0       0.869   9.812  20.031  0.00  0.00    +0.000 C 
BRANCH  26  28
ATOM     27  C   UNK A   0      -0.298  10.105  22.209  0.00  0.00    +0.000 C 
ATOM     28  C   UNK A   0      -0.006  10.736  20.863  0.00  0.00    +0.000 C 
ENDBRANCH  26  28
ENDBRANCH  25  26
ENDBRANCH  24  25
ENDBRANCH  23  24
ENDBRANCH  22  23
ENDBRANCH  21  22
ENDBRANCH  20  21
ENDBRANCH  19  20
ENDBRANCH  18  19
ENDBRANCH  17  18
ENDBRANCH  16  17
ENDBRANCH   1  16
TORSDOF 19
ENDMDL
MODEL 5
REMARK VINA RESULT:      -5.8      3.577      7.849
REMARK  Name = 
REMARK  22 active torsions:
REMARK  status: ('A' for Active; 'I' for Inactive)
REMARK    1  A    between atoms: C_1  and  C_2
REMARK    2  A    between atoms: C_2  and  C_3
REMARK    3  A    between atoms: C_3  and  C_4
REMARK    4  A    between atoms: C_4  and  C_5
REMARK    5  A    between atoms: C_5  and  C_6
REMARK    6  A    between atoms: C_6  and  C_7
REMARK    7  A    between atoms: C_7  and  C_8
REMARK    8  A    between atoms: C_8  and  C_9
REMARK    9  A    between atoms: C_9  and  C_10
REMARK   10  A    between atoms: C_10  and  C_11
REMARK   11  A    between atoms: C_11  and  C_12
REMARK   12  A    between atoms: C_12  and  C_13
REMARK   13  A    between atoms: C_13  and  C_14
REMARK   14  A    between atoms: C_14  and  C_15
REMARK   15  A    between atoms: C_15  and  C_16
REMARK   16  A    between atoms: N_18  and  CA_19
REMARK   17  A    between atoms: CA_19  and  CB_20
REMARK   18  A    between atoms: CA_19  and  C_24
REMARK   19  A    between atoms: CB_20  and  CG_21
REMARK   20  A    between atoms: CG_21  and  CD1_22
REMARK   21  A    between atoms: CG_21  and  CD2_23
REMARK   22  A    between atoms: C_24  and  OXT_26
REMARK                            x       y       z     vdW  Elec       q    Type
REMARK                         _______ _______ _______ _____ _____    ______ ____
ROOT
ATOM      1  C   UNK A   0       2.044   7.264  18.192  0.00  0.00    +0.000 C 
ENDROOT
BRANCH   1   2
ATOM      2  C   UNK A   0       2.654   8.510  17.558  0.00  0.00    +0.000 C 
BRANCH   2   3
ATOM      3  C   UNK A   0       1.955   9.770  18.020  0.00  0.00    +0.000 C 
ATOM      4  O   UNK A   0       2.490  10.879  17.904  0.00  0.00    +0.000 OA
ATOM      5  N   LEU A   1       0.673   9.597  18.500  0.00  0.00    +0.000 N 
ATOM      6  H   LEU A   1       0.535   8.681  18.906  0.00  0.00    +0.000 HD
BRANCH   5   7
ATOM      7  CA  LEU A   1      -0.198  10.679  19.009  0.00  0.00    +0.000 C 
BRANCH   7   8
ATOM      8  C   LEU A   1      -1.516  10.756  18.239  0.00  0.00    +0.000 C 
ATOM      9  O   LEU A   1      -2.563  11.227  18.703  0.00  0.00    +0.000 OA
BRANCH   8  10
ATOM     10  OXT LEU A   1      -1.504  10.349  16.962  0.00  0.00    +0.000 OA
ATOM     11  HXT LEU A   1      -2.049   9.596  16.666  0.00  0.00    +0.000 HD
ENDBRANCH   8  10
ENDBRANCH   7   8
BRANCH   7  12
ATOM     12  CB  LEU A   1      -0.542  10.505  20.523  0.00  0.00    +0.000 C 
BRANCH  12  13
ATOM     13  CG  LEU A   1       0.253   9.393  21.234  0.00  0.00    +0.000 C 
ATOM     14  CD1 LEU A   1       0.839   9.842  22.571  0.00  0.00    +0.000 C 
ATOM     15  CD2 LEU A   1      -0.639   8.184  21.494  0.00  0.00    +0.000 C 
ENDBRANCH  12  13
ENDBRANCH   7  12
ENDBRANCH   5   7
ENDBRANCH   2   3
ENDBRANCH   1   2
BRANCH   1  16
ATOM     16  C   UNK A   0       2.728   6.948  19.512  0.00  0.00    +0.000 C 
BRANCH  16  17
ATOM     17  C   UNK A   0       2.105   5.709  20.129  0.00  0.00    +0.000 C 
BRANCH  17  18
ATOM     18  C   UNK A   0       3.046   4.528  19.987  0.00  0.00    +0.000 C 
BRANCH  18  19
ATOM     19  C   UNK A   0       2.547   3.597  18.898  0.00  0.00    +0.000 C 
BRANCH  19  20
ATOM     20  C   UNK A   0       3.704   3.167  18.017  0.00  0.00    +0.000 C 
BRANCH  20  21
ATOM     21  C   UNK A   0       3.950   4.209  16.943  0.00  0.00    +0.000 C 
BRANCH  21  22
ATOM     22  C   UNK A   0       5.202   3.861  16.163  0.00  0.00    +0.000 C 
BRANCH  22  23
ATOM     23  C   UNK A   0       5.879   5.129  15.681  0.00  0.00    +0.000 C 
BRANCH  23  24
ATOM     24  C   UNK A   0       5.117   6.343  16.179  0.00  0.00    +0.000 C 
BRANCH  24  25
ATOM     25  C   UNK A   0       5.978   7.132  17.147  0.00  0.00    +0.000 C 
BRANCH  25  26
ATOM     26  C   UNK A   0       7.362   6.511  17.236  0.00  0.00    +0.000 C 
BRANCH  26  28
ATOM     27  C   UNK A   0       6.649   5.397  19.344  0.00  0.00    +0.000 C 
ATOM     28  C   UNK A   0       7.724   6.238  18.687  0.00  0.00    +0.000 C 
ENDBRANCH  26  28
ENDBRANCH  25  26
ENDBRANCH  24  25
ENDBRANCH  23  24
ENDBRANCH  22  23
ENDBRANCH  21  22
ENDBRANCH  20  21
ENDBRANCH  19  20
ENDBRANCH  18  19
ENDBRANCH  17  18
ENDBRANCH  16  17
ENDBRANCH   1  16
TORSDOF 19
ENDMDL
MODEL 6
REMARK VINA RESULT:      -5.8      1.321      1.805
REMARK  Name = 
REMARK  22 active torsions:
REMARK  status: ('A' for Active; 'I' for Inactive)
REMARK    1  A    between atoms: C_1  and  C_2
REMARK    2  A    between atoms: C_2  and  C_3
REMARK    3  A    between atoms: C_3  and  C_4
REMARK    4  A    between atoms: C_4  and  C_5
REMARK    5  A    between atoms: C_5  and  C_6
REMARK    6  A    between atoms: C_6  and  C_7
REMARK    7  A    between atoms: C_7  and  C_8
REMARK    8  A    between atoms: C_8  and  C_9
REMARK    9  A    between atoms: C_9  and  C_10
REMARK   10  A    between atoms: C_10  and  C_11
REMARK   11  A    between atoms: C_11  and  C_12
REMARK   12  A    between atoms: C_12  and  C_13
REMARK   13  A    between atoms: C_13  and  C_14
REMARK   14  A    between atoms: C_14  and  C_15
REMARK   15  A    between atoms: C_15  and  C_16
REMARK   16  A    between atoms: N_18  and  CA_19
REMARK   17  A    between atoms: CA_19  and  CB_20
REMARK   18  A    between atoms: CA_19  and  C_24
REMARK   19  A    between atoms: CB_20  and  CG_21
REMARK   20  A    between atoms: CG_21  and  CD1_22
REMARK   21  A    between atoms: CG_21  and  CD2_23
REMARK   22  A    between atoms: C_24  and  OXT_26
REMARK                            x       y       z     vdW  Elec       q    Type
REMARK                         _______ _______ _______ _____ _____    ______ ____
ROOT
ATOM      1  C   UNK A   0       2.924   2.250  19.785  0.00  0.00    +0.000 C 
ENDROOT
BRANCH   1   2
ATOM      2  C   UNK A   0       4.414   2.569  19.833  0.00  0.00    +0.000 C 
BRANCH   2   3
ATOM      3  C   UNK A   0       4.752   3.780  18.990  0.00  0.00    +0.000 C 
ATOM      4  O   UNK A   0       3.871   4.409  18.389  0.00  0.00    +0.000 OA
ATOM      5  N   LEU A   1       6.077   4.165  19.004  0.00  0.00    +0.000 N 
ATOM      6  H   LEU A   1       6.701   3.386  19.167  0.00  0.00    +0.000 HD
BRANCH   5   7
ATOM      7  CA  LEU A   1       6.639   5.311  18.256  0.00  0.00    +0.000 C 
BRANCH   7   8
ATOM      8  C   LEU A   1       7.820   5.943  18.990  0.00  0.00    +0.000 C 
ATOM      9  O   LEU A   1       8.293   7.053  18.714  0.00  0.00    +0.000 OA
BRANCH   8  10
ATOM     10  OXT LEU A   1       8.320   5.273  20.038  0.00  0.00    +0.000 OA
ATOM     11  HXT LEU A   1       9.178   5.518  20.433  0.00  0.00    +0.000 HD
ENDBRANCH   8  10
ENDBRANCH   7   8
BRANCH   7  12
ATOM     12  CB  LEU A   1       7.127   4.908  16.828  0.00  0.00    +0.000 C 
BRANCH  12  13
ATOM     13  CG  LEU A   1       5.996   4.686  15.806  0.00  0.00    +0.000 C 
ATOM     14  CD1 LEU A   1       5.247   5.970  15.457  0.00  0.00    +0.000 C 
ATOM     15  CD2 LEU A   1       6.555   4.102  14.513  0.00  0.00    +0.000 C 
ENDBRANCH  12  13
ENDBRANCH   7  12
ENDBRANCH   5   7
ENDBRANCH   2   3
ENDBRANCH   1   2
BRANCH   1  16
ATOM     16  C   UNK A   0       2.259   2.611  21.104  0.00  0.00    +0.000 C 
BRANCH  16  17
ATOM     17  C   UNK A   0       0.950   3.332  20.839  0.00  0.00    +0.000 C 
BRANCH  17  18
ATOM     18  C   UNK A   0       1.204   4.595  20.037  0.00  0.00    +0.000 C 
BRANCH  18  19
ATOM     19  C   UNK A   0       1.705   5.695  20.953  0.00  0.00    +0.000 C 
BRANCH  19  20
ATOM     20  C   UNK A   0       1.463   7.049  20.313  0.00  0.00    +0.000 C 
BRANCH  20  21
ATOM     21  C   UNK A   0       1.890   8.152  21.261  0.00  0.00    +0.000 C 
BRANCH  21  22
ATOM     22  C   UNK A   0       0.670   8.775  21.911  0.00  0.00    +0.000 C 
BRANCH  22  23
ATOM     23  C   UNK A   0      -0.199   9.430  20.854  0.00  0.00    +0.000 C 
BRANCH  23  24
ATOM     24  C   UNK A   0       0.521  10.628  20.263  0.00  0.00    +0.000 C 
BRANCH  24  25
ATOM     25  C   UNK A   0      -0.049  10.949  18.893  0.00  0.00    +0.000 C 
BRANCH  25  26
ATOM     26  C   UNK A   0      -1.185   9.994  18.567  0.00  0.00    +0.000 C 
BRANCH  26  28
ATOM     27  C   UNK A   0      -3.359   9.946  17.358  0.00  0.00    +0.000 C 
ATOM     28  C   UNK A   0      -1.940  10.475  17.338  0.00  0.00    +0.000 C 
ENDBRANCH  26  28
ENDBRANCH  25  26
ENDBRANCH  24  25
ENDBRANCH  23  24
ENDBRANCH  22  23
ENDBRANCH  21  22
ENDBRANCH  20  21
ENDBRANCH  19  20
ENDBRANCH  18  19
ENDBRANCH  17  18
ENDBRANCH  16  17
ENDBRANCH   1  16
TORSDOF 19
ENDMDL
MODEL 7
REMARK VINA RESULT:      -5.8      3.522      8.163
REMARK  Name = 
REMARK  22 active torsions:
REMARK  status: ('A' for Active; 'I' for Inactive)
REMARK    1  A    between atoms: C_1  and  C_2
REMARK    2  A    between atoms: C_2  and  C_3
REMARK    3  A    between atoms: C_3  and  C_4
REMARK    4  A    between atoms: C_4  and  C_5
REMARK    5  A    between atoms: C_5  and  C_6
REMARK    6  A    between atoms: C_6  and  C_7
REMARK    7  A    between atoms: C_7  and  C_8
REMARK    8  A    between atoms: C_8  and  C_9
REMARK    9  A    between atoms: C_9  and  C_10
REMARK   10  A    between atoms: C_10  and  C_11
REMARK   11  A    between atoms: C_11  and  C_12
REMARK   12  A    between atoms: C_12  and  C_13
REMARK   13  A    between atoms: C_13  and  C_14
REMARK   14  A    between atoms: C_14  and  C_15
REMARK   15  A    between atoms: C_15  and  C_16
REMARK   16  A    between atoms: N_18  and  CA_19
REMARK   17  A    between atoms: CA_19  and  CB_20
REMARK   18  A    between atoms: CA_19  and  C_24
REMARK   19  A    between atoms: CB_20  and  CG_21
REMARK   20  A    between atoms: CG_21  and  CD1_22
REMARK   21  A    between atoms: CG_21  and  CD2_23
REMARK   22  A    between atoms: C_24  and  OXT_26
REMARK                            x       y       z     vdW  Elec       q    Type
REMARK                         _______ _______ _______ _____ _____    ______ ____
ROOT
ATOM      1  C   UNK A   0       2.733   7.444  18.785  0.00  0.00    +0.000 C 
ENDROOT
BRANCH   1   2
ATOM      2  C   UNK A   0       2.174   8.148  17.553  0.00  0.00    +0.000 C 
BRANCH   2   3
ATOM      3  C   UNK A   0       1.516   9.462  17.914  0.00  0.00    +0.000 C 
ATOM      4  O   UNK A   0       2.186  10.428  18.302  0.00  0.00    +0.000 OA
ATOM      5  N   LEU A   1       0.153   9.522  17.710  0.00  0.00    +0.000 N 
ATOM      6  H   LEU A   1      -0.288   8.616  17.795  0.00  0.00    +0.000 HD
BRANCH   5   7
ATOM      7  CA  LEU A   1      -0.700  10.697  17.994  0.00  0.00    +0.000 C 
BRANCH   7   8
ATOM      8  C   LEU A   1      -2.052  10.600  17.290  0.00  0.00    +0.000 C 
ATOM      9  O   LEU A   1      -2.959   9.831  17.635  0.00  0.00    +0.000 OA
BRANCH   8  10
ATOM     10  OXT LEU A   1      -2.281  11.454  16.282  0.00  0.00    +0.000 OA
ATOM     11  HXT LEU A   1      -3.015  12.096  16.320  0.00  0.00    +0.000 HD
ENDBRANCH   8  10
ENDBRANCH   7   8
BRANCH   7  12
ATOM     12  CB  LEU A   1      -0.971  10.881  19.521  0.00  0.00    +0.000 C 
BRANCH  12  13
ATOM     13  CG  LEU A   1      -0.905  12.341  20.010  0.00  0.00    +0.000 C 
ATOM     14  CD1 LEU A   1      -0.226  13.274  19.009  0.00  0.00    +0.000 C 
ATOM     15  CD2 LEU A   1      -2.307  12.876  20.276  0.00  0.00    +0.000 C 
ENDBRANCH  12  13
ENDBRANCH   7  12
ENDBRANCH   5   7
ENDBRANCH   2   3
ENDBRANCH   1   2
BRANCH   1  16
ATOM     16  C   UNK A   0       1.863   7.720  19.999  0.00  0.00    +0.000 C 
BRANCH  16  17
ATOM     17  C   UNK A   0       1.474   6.411  20.662  0.00  0.00    +0.000 C 
BRANCH  17  18
ATOM     18  C   UNK A   0       2.469   5.326  20.294  0.00  0.00    +0.000 C 
BRANCH  18  19
ATOM     19  C   UNK A   0       1.904   3.964  20.652  0.00  0.00    +0.000 C 
BRANCH  19  20
ATOM     20  C   UNK A   0       1.013   3.465  19.531  0.00  0.00    +0.000 C 
BRANCH  20  21
ATOM     21  C   UNK A   0       1.617   3.831  18.189  0.00  0.00    +0.000 C 
BRANCH  21  22
ATOM     22  C   UNK A   0       2.421   2.664  17.650  0.00  0.00    +0.000 C 
BRANCH  22  23
ATOM     23  C   UNK A   0       3.898   3.004  17.667  0.00  0.00    +0.000 C 
BRANCH  23  24
ATOM     24  C   UNK A   0       4.112   4.410  17.139  0.00  0.00    +0.000 C 
BRANCH  24  25
ATOM     25  C   UNK A   0       4.922   4.362  15.857  0.00  0.00    +0.000 C 
BRANCH  25  26
ATOM     26  C   UNK A   0       5.834   5.574  15.774  0.00  0.00    +0.000 C 
BRANCH  26  28
ATOM     27  C   UNK A   0       7.108   6.942  17.417  0.00  0.00    +0.000 C 
ATOM     28  C   UNK A   0       5.745   6.388  17.056  0.00  0.00    +0.000 C 
ENDBRANCH  26  28
ENDBRANCH  25  26
ENDBRANCH  24  25
ENDBRANCH  23  24
ENDBRANCH  22  23
ENDBRANCH  21  22
ENDBRANCH  20  21
ENDBRANCH  19  20
ENDBRANCH  18  19
ENDBRANCH  17  18
ENDBRANCH  16  17
ENDBRANCH   1  16
TORSDOF 19
ENDMDL
MODEL 8
REMARK VINA RESULT:      -5.7      3.868      8.539
REMARK  Name = 
REMARK  22 active torsions:
REMARK  status: ('A' for Active; 'I' for Inactive)
REMARK    1  A    between atoms: C_1  and  C_2
REMARK    2  A    between atoms: C_2  and  C_3
REMARK    3  A    between atoms: C_3  and  C_4
REMARK    4  A    between atoms: C_4  and  C_5
REMARK    5  A    between atoms: C_5  and  C_6
REMARK    6  A    between atoms: C_6  and  C_7
REMARK    7  A    between atoms: C_7  and  C_8
REMARK    8  A    between atoms: C_8  and  C_9
REMARK    9  A    between atoms: C_9  and  C_10
REMARK   10  A    between atoms: C_10  and  C_11
REMARK   11  A    between atoms: C_11  and  C_12
REMARK   12  A    between atoms: C_12  and  C_13
REMARK   13  A    between atoms: C_13  and  C_14
REMARK   14  A    between atoms: C_14  and  C_15
REMARK   15  A    between atoms: C_15  and  C_16
REMARK   16  A    between atoms: N_18  and  CA_19
REMARK   17  A    between atoms: CA_19  and  CB_20
REMARK   18  A    between atoms: CA_19  and  C_24
REMARK   19  A    between atoms: CB_20  and  CG_21
REMARK   20  A    between atoms: CG_21  and  CD1_22
REMARK   21  A    between atoms: CG_21  and  CD2_23
REMARK   22  A    between atoms: C_24  and  OXT_26
REMARK                            x       y       z     vdW  Elec       q    Type
REMARK                         _______ _______ _______ _____ _____    ______ ____
ROOT
ATOM      1  C   UNK A   0       1.804   8.199  18.929  0.00  0.00    +0.000 C 
ENDROOT
BRANCH   1   2
ATOM      2  C   UNK A   0       2.299   9.363  18.078  0.00  0.00    +0.000 C 
BRANCH   2   3
ATOM      3  C   UNK A   0       1.553  10.641  18.393  0.00  0.00    +0.000 C 
ATOM      4  O   UNK A   0       2.112  11.743  18.325  0.00  0.00    +0.000 OA
ATOM      5  N   LEU A   1       0.213  10.492  18.683  0.00  0.00    +0.000 N 
ATOM      6  H   LEU A   1       0.006   9.590  19.091  0.00  0.00    +0.000 HD
BRANCH   5   7
ATOM      7  CA  LEU A   1      -0.712  11.595  19.025  0.00  0.00    +0.000 C 
BRANCH   7   8
ATOM      8  C   LEU A   1      -1.857  11.708  18.019  0.00  0.00    +0.000 C 
ATOM      9  O   LEU A   1      -3.043  11.483  18.291  0.00  0.00    +0.000 OA
BRANCH   8  10
ATOM     10  OXT LEU A   1      -1.551  12.146  16.789  0.00  0.00    +0.000 OA
ATOM     11  HXT LEU A   1      -0.772  11.805  16.310  0.00  0.00    +0.000 HD
ENDBRANCH   8  10
ENDBRANCH   7   8
BRANCH   7  12
ATOM     12  CB  LEU A   1      -1.342  11.426  20.444  0.00  0.00    +0.000 C 
BRANCH  12  13
ATOM     13  CG  LEU A   1      -0.360  11.652  21.609  0.00  0.00    +0.000 C 
ATOM     14  CD1 LEU A   1      -0.351  13.095  22.110  0.00  0.00    +0.000 C 
ATOM     15  CD2 LEU A   1      -0.714  10.748  22.785  0.00  0.00    +0.000 C 
ENDBRANCH  12  13
ENDBRANCH   7  12
ENDBRANCH   5   7
ENDBRANCH   2   3
ENDBRANCH   1   2
BRANCH   1  16
ATOM     16  C   UNK A   0       2.365   6.884  18.413  0.00  0.00    +0.000 C 
BRANCH  16  17
ATOM     17  C   UNK A   0       2.997   6.112  19.557  0.00  0.00    +0.000 C 
BRANCH  17  18
ATOM     18  C   UNK A   0       1.959   5.820  20.624  0.00  0.00    +0.000 C 
BRANCH  18  19
ATOM     19  C   UNK A   0       1.145   4.601  20.233  0.00  0.00    +0.000 C 
BRANCH  19  20
ATOM     20  C   UNK A   0       1.572   3.407  21.066  0.00  0.00    +0.000 C 
BRANCH  20  21
ATOM     21  C   UNK A   0       1.884   2.231  20.160  0.00  0.00    +0.000 C 
BRANCH  21  22
ATOM     22  C   UNK A   0       1.525   2.575  18.728  0.00  0.00    +0.000 C 
BRANCH  22  23
ATOM     23  C   UNK A   0       2.609   2.077  17.791  0.00  0.00    +0.000 C 
BRANCH  23  24
ATOM     24  C   UNK A   0       3.837   2.961  17.905  0.00  0.00    +0.000 C 
BRANCH  24  25
ATOM     25  C   UNK A   0       3.891   3.924  16.733  0.00  0.00    +0.000 C 
BRANCH  25  26
ATOM     26  C   UNK A   0       5.307   3.997  16.188  0.00  0.00    +0.000 C 
BRANCH  26  28
ATOM     27  C   UNK A   0       5.319   6.479  16.367  0.00  0.00    +0.000 C 
ATOM     28  C   UNK A   0       5.513   5.302  15.433  0.00  0.00    +0.000 C 
ENDBRANCH  26  28
ENDBRANCH  25  26
ENDBRANCH  24  25
ENDBRANCH  23  24
ENDBRANCH  22  23
ENDBRANCH  21  22
ENDBRANCH  20  21
ENDBRANCH  19  20
ENDBRANCH  18  19
ENDBRANCH  17  18
ENDBRANCH  16  17
ENDBRANCH   1  16
TORSDOF 19
ENDMDL
MODEL 9
REMARK VINA RESULT:      -5.7      3.650      8.014
REMARK  Name = 
REMARK  22 active torsions:
REMARK  status: ('A' for Active; 'I' for Inactive)
REMARK    1  A    between atoms: C_1  and  C_2
REMARK    2  A    between atoms: C_2  and  C_3
REMARK    3  A    between atoms: C_3  and  C_4
REMARK    4  A    between atoms: C_4  and  C_5
REMARK    5  A    between atoms: C_5  and  C_6
REMARK    6  A    between atoms: C_6  and  C_7
REMARK    7  A    between atoms: C_7  and  C_8
REMARK    8  A    between atoms: C_8  and  C_9
REMARK    9  A    between atoms: C_9  and  C_10
REMARK   10  A    between atoms: C_10  and  C_11
REMARK   11  A    between atoms: C_11  and  C_12
REMARK   12  A    between atoms: C_12  and  C_13
REMARK   13  A    between atoms: C_13  and  C_14
REMARK   14  A    between atoms: C_14  and  C_15
REMARK   15  A    between atoms: C_15  and  C_16
REMARK   16  A    between atoms: N_18  and  CA_19
REMARK   17  A    between atoms: CA_19  and  CB_20
REMARK   18  A    between atoms: CA_19  and  C_24
REMARK   19  A    between atoms: CB_20  and  CG_21
REMARK   20  A    between atoms: CG_21  and  CD1_22
REMARK   21  A    between atoms: CG_21  and  CD2_23
REMARK   22  A    between atoms: C_24  and  OXT_26
REMARK                            x       y       z     vdW  Elec       q    Type
REMARK                         _______ _______ _______ _____ _____    ______ ____
ROOT
ATOM      1  C   UNK A   0       1.763   7.562  18.522  0.00  0.00    +0.000 C 
ENDROOT
BRANCH   1   2
ATOM      2  C   UNK A   0       2.418   8.656  17.686  0.00  0.00    +0.000 C 
BRANCH   2   3
ATOM      3  C   UNK A   0       1.856  10.021  18.016  0.00  0.00    +0.000 C 
ATOM      4  O   UNK A   0       2.566  11.034  17.977  0.00  0.00    +0.000 OA
ATOM      5  N   LEU A   1       0.503  10.059  18.284  0.00  0.00    +0.000 N 
ATOM      6  H   LEU A   1       0.164   9.189  18.672  0.00  0.00    +0.000 HD
BRANCH   5   7
ATOM      7  CA  LEU A   1      -0.262  11.276  18.635  0.00  0.00    +0.000 C 
BRANCH   7   8
ATOM      8  C   LEU A   1      -1.758  11.099  18.380  0.00  0.00    +0.000 C 
ATOM      9  O   LEU A   1      -2.294  10.011  18.131  0.00  0.00    +0.000 OA
BRANCH   8  10
ATOM     10  OXT LEU A   1      -2.534  12.185  18.504  0.00  0.00    +0.000 OA
ATOM     11  HXT LEU A   1      -3.236  12.232  19.180  0.00  0.00    +0.000 HD
ENDBRANCH   8  10
ENDBRANCH   7   8
BRANCH   7  12
ATOM     12  CB  LEU A   1      -0.080  11.684  20.132  0.00  0.00    +0.000 C 
BRANCH  12  13
ATOM     13  CG  LEU A   1      -0.370  10.556  21.140  0.00  0.00    +0.000 C 
ATOM     14  CD1 LEU A   1       0.891   9.820  21.589  0.00  0.00    +0.000 C 
ATOM     15  CD2 LEU A   1      -1.055  11.115  22.381  0.00  0.00    +0.000 C 
ENDBRANCH  12  13
ENDBRANCH   7  12
ENDBRANCH   5   7
ENDBRANCH   2   3
ENDBRANCH   1   2
BRANCH   1  16
ATOM     16  C   UNK A   0       2.659   7.169  19.684  0.00  0.00    +0.000 C 
BRANCH  16  17
ATOM     17  C   UNK A   0       1.997   6.070  20.496  0.00  0.00    +0.000 C 
BRANCH  17  18
ATOM     18  C   UNK A   0       1.396   5.029  19.570  0.00  0.00    +0.000 C 
BRANCH  18  19
ATOM     19  C   UNK A   0       1.144   3.742  20.333  0.00  0.00    +0.000 C 
BRANCH  19  20
ATOM     20  C   UNK A   0       0.856   2.614  19.360  0.00  0.00    +0.000 C 
BRANCH  20  21
ATOM     21  C   UNK A   0       1.679   2.796  18.100  0.00  0.00    +0.000 C 
BRANCH  21  22
ATOM     22  C   UNK A   0       2.997   2.057  18.235  0.00  0.00    +0.000 C 
BRANCH  22  23
ATOM     23  C   UNK A   0       4.128   2.923  17.715  0.00  0.00    +0.000 C 
BRANCH  23  24
ATOM     24  C   UNK A   0       4.748   3.705  18.858  0.00  0.00    +0.000 C 
BRANCH  24  25
ATOM     25  C   UNK A   0       5.233   5.053  18.358  0.00  0.00    +0.000 C 
BRANCH  25  26
ATOM     26  C   UNK A   0       4.499   5.428  17.082  0.00  0.00    +0.000 C 
BRANCH  26  28
ATOM     27  C   UNK A   0       5.572   5.031  14.872  0.00  0.00    +0.000 C 
ATOM     28  C   UNK A   0       5.478   5.974  16.054  0.00  0.00    +0.000 C 
ENDBRANCH  26  28
ENDBRANCH  25  26
ENDBRANCH  24  25
ENDBRANCH  23  24
ENDBRANCH  22  23
ENDBRANCH  21  22
ENDBRANCH  20  21
ENDBRANCH  19  20
ENDBRANCH  18  19
ENDBRANCH  17  18
ENDBRANCH  16  17
ENDBRANCH   1  16
TORSDOF 19
ENDMDL
