MODEL 1
REMARK VINA RESULT:      -7.2      0.000      0.000
REMARK  Name = 
REMARK  6 active torsions:
REMARK  status: ('A' for Active; 'I' for Inactive)
REMARK    1  A    between atoms: C_1  and  O_2
REMARK    2  A    between atoms: O_2  and  C_3
REMARK    3  A    between atoms: C_6  and  C_7
REMARK    4  A    between atoms: N_9  and  C_10
REMARK    5  A    between atoms: C_13  and  N_14
REMARK    6  A    between atoms: C_20  and  O_21
REMARK                            x       y       z     vdW  Elec       q    Type
REMARK                         _______ _______ _______ _____ _____    ______ ____
ROOT
ATOM      1  C   UNL     1       1.318   9.171  19.242  0.00  0.00    +0.000 A 
ATOM      2  C   UNL     1       1.942   7.947  19.290  0.00  0.00    +0.000 A 
ATOM      3  N   UNL     1       2.577   7.793  18.116  0.00  0.00    +0.000 N 
ATOM      4  N   UNL     1       2.339   8.867  17.375  0.00  0.00    +0.000 NA
ATOM      5  N   UNL     1       1.583   9.728  18.043  0.00  0.00    +0.000 NA
ENDROOT
BRANCH   1   9
ATOM      6  C   UNL     1      -0.902  11.071  22.390  0.00  0.00    +0.000 A 
ATOM      7  C   UNL     1      -0.957  11.560  21.069  0.00  0.00    +0.000 A 
ATOM      8  C   UNL     1      -0.252  10.925  20.047  0.00  0.00    +0.000 A 
ATOM      9  C   UNL     1       0.539   9.803  20.324  0.00  0.00    +0.000 A 
ATOM     10  C   UNL     1       0.596   9.311  21.639  0.00  0.00    +0.000 A 
ATOM     11  C   UNL     1      -0.128   9.933  22.666  0.00  0.00    +0.000 A 
BRANCH   6  13
ATOM     12  C   UNL     1      -2.867  12.139  23.342  0.00  0.00    +0.000 C 
ATOM     13  O   UNL     1      -1.573  11.667  23.409  0.00  0.00    +0.000 OA
ENDBRANCH   6  13
BRANCH  11  14
ATOM     14  O   UNL     1      -0.081   9.444  23.924  0.00  0.00    +0.000 OA
ATOM     15  H   UNL     1      -0.727   9.698  24.600  0.00  0.00    +0.000 HD
ENDBRANCH  11  14
ENDBRANCH   1   9
BRANCH   3  16
ATOM     16  C   UNL     1       3.415   6.692  17.716  0.00  0.00    +0.000 A 
ATOM     17  C   UNL     1       4.673   6.919  17.123  0.00  0.00    +0.000 A 
ATOM     18  C   UNL     1       5.469   5.850  16.712  0.00  0.00    +0.000 A 
ATOM     19  C   UNL     1       5.030   4.534  16.885  0.00  0.00    +0.000 A 
ATOM     20  C   UNL     1       3.780   4.295  17.474  0.00  0.00    +0.000 A 
ATOM     21  C   UNL     1       2.978   5.366  17.884  0.00  0.00    +0.000 A 
BRANCH  19  22
ATOM     22  N   UNL     1       5.844   3.456  16.463  0.00  0.00    +0.000 N 
ATOM     23  H   UNL     1       5.675   2.997  15.554  0.00  0.00    +0.000 HD
ATOM     24  H   UNL     1       6.610   3.110  17.057  0.00  0.00    +0.000 HD
ENDBRANCH  19  22
ENDBRANCH   3  16
TORSDOF 5
ENDMDL
MODEL 2
REMARK VINA RESULT:      -7.1      0.117      1.062
REMARK  Name = 
REMARK  6 active torsions:
REMARK  status: ('A' for Active; 'I' for Inactive)
REMARK    1  A    between atoms: C_1  and  O_2
REMARK    2  A    between atoms: O_2  and  C_3
REMARK    3  A    between atoms: C_6  and  C_7
REMARK    4  A    between atoms: N_9  and  C_10
REMARK    5  A    between atoms: C_13  and  N_14
REMARK    6  A    between atoms: C_20  and  O_21
REMARK                            x       y       z     vdW  Elec       q    Type
REMARK                         _______ _______ _______ _____ _____    ______ ____
ROOT
ATOM      1  C   UNL     1       1.362   9.197  19.244  0.00  0.00    +0.000 A 
ATOM      2  C   UNL     1       1.936   7.948  19.268  0.00  0.00    +0.000 A 
ATOM      3  N   UNL     1       2.561   7.790  18.089  0.00  0.00    +0.000 N 
ATOM      4  N   UNL     1       2.365   8.886  17.368  0.00  0.00    +0.000 NA
ATOM      5  N   UNL     1       1.646   9.764  18.054  0.00  0.00    +0.000 NA
ENDROOT
BRANCH   1   9
ATOM      6  C   UNL     1      -0.771  11.126  22.434  0.00  0.00    +0.000 A 
ATOM      7  C   UNL     1      -0.793  11.653  21.127  0.00  0.00    +0.000 A 
ATOM      8  C   UNL     1      -0.118  11.009  20.091  0.00  0.00    +0.000 A 
ATOM      9  C   UNL     1       0.611   9.839  20.340  0.00  0.00    +0.000 A 
ATOM     10  C   UNL     1       0.635   9.310  21.642  0.00  0.00    +0.000 A 
ATOM     11  C   UNL     1      -0.060   9.942  22.682  0.00  0.00    +0.000 A 
BRANCH   6  13
ATOM     12  C   UNL     1      -2.754  12.057  23.488  0.00  0.00    +0.000 C 
ATOM     13  O   UNL     1      -1.415  11.730  23.467  0.00  0.00    +0.000 OA
ENDBRANCH   6  13
BRANCH  11  14
ATOM     14  O   UNL     1      -0.047   9.417  23.927  0.00  0.00    +0.000 OA
ATOM     15  H   UNL     1      -0.851   9.096  24.360  0.00  0.00    +0.000 HD
ENDBRANCH  11  14
ENDBRANCH   1   9
BRANCH   3  16
ATOM     16  C   UNL     1       3.353   6.663  17.667  0.00  0.00    +0.000 A 
ATOM     17  C   UNL     1       2.916   5.344  17.903  0.00  0.00    +0.000 A 
ATOM     18  C   UNL     1       3.700   4.257  17.518  0.00  0.00    +0.000 A 
ATOM     19  C   UNL     1       4.931   4.459  16.889  0.00  0.00    +0.000 A 
ATOM     20  C   UNL     1       5.378   5.767  16.649  0.00  0.00    +0.000 A 
ATOM     21  C   UNL     1       4.595   6.861  17.037  0.00  0.00    +0.000 A 
BRANCH  19  22
ATOM     22  N   UNL     1       5.721   3.349  16.504  0.00  0.00    +0.000 N 
ATOM     23  H   UNL     1       5.596   2.433  16.963  0.00  0.00    +0.000 HD
ATOM     24  H   UNL     1       6.433   3.440  15.767  0.00  0.00    +0.000 HD
ENDBRANCH  19  22
ENDBRANCH   3  16
TORSDOF 5
ENDMDL
MODEL 3
REMARK VINA RESULT:      -7.0      1.804      2.092
REMARK  Name = 
REMARK  6 active torsions:
REMARK  status: ('A' for Active; 'I' for Inactive)
REMARK    1  A    between atoms: C_1  and  O_2
REMARK    2  A    between atoms: O_2  and  C_3
REMARK    3  A    between atoms: C_6  and  C_7
REMARK    4  A    between atoms: N_9  and  C_10
REMARK    5  A    between atoms: C_13  and  N_14
REMARK    6  A    between atoms: C_20  and  O_21
REMARK                            x       y       z     vdW  Elec       q    Type
REMARK                         _______ _______ _______ _____ _____    ______ ____
ROOT
ATOM      1  C   UNL     1       1.680   7.962  19.688  0.00  0.00    +0.000 A 
ATOM      2  C   UNL     1       1.769   6.615  19.951  0.00  0.00    +0.000 A 
ATOM      3  N   UNL     1       2.467   6.072  18.939  0.00  0.00    +0.000 N 
ATOM      4  N   UNL     1       2.777   7.039  18.086  0.00  0.00    +0.000 NA
ATOM      5  N   UNL     1       2.317   8.203  18.524  0.00  0.00    +0.000 NA
ENDROOT
BRANCH   1   9
ATOM      6  C   UNL     1      -0.096  10.982  22.172  0.00  0.00    +0.000 A 
ATOM      7  C   UNL     1       0.058  11.184  20.786  0.00  0.00    +0.000 A 
ATOM      8  C   UNL     1       0.613  10.191  19.981  0.00  0.00    +0.000 A 
ATOM      9  C   UNL     1       1.048   8.984  20.543  0.00  0.00    +0.000 A 
ATOM     10  C   UNL     1       0.896   8.778  21.926  0.00  0.00    +0.000 A 
ATOM     11  C   UNL     1       0.318   9.765  22.736  0.00  0.00    +0.000 A 
BRANCH   6  13
ATOM     12  C   UNL     1      -1.968  12.252  23.061  0.00  0.00    +0.000 C 
ATOM     13  O   UNL     1      -0.630  11.930  22.986  0.00  0.00    +0.000 OA
ENDBRANCH   6  13
BRANCH  11  14
ATOM     14  O   UNL     1       0.161   9.552  24.060  0.00  0.00    +0.000 OA
ATOM     15  H   UNL     1      -0.686   9.695  24.509  0.00  0.00    +0.000 HD
ENDBRANCH  11  14
ENDBRANCH   1   9
BRANCH   3  16
ATOM     16  C   UNL     1       2.868   4.696  18.798  0.00  0.00    +0.000 A 
ATOM     17  C   UNL     1       3.876   4.148  19.617  0.00  0.00    +0.000 A 
ATOM     18  C   UNL     1       4.280   2.823  19.458  0.00  0.00    +0.000 A 
ATOM     19  C   UNL     1       3.689   2.016  18.482  0.00  0.00    +0.000 A 
ATOM     20  C   UNL     1       2.685   2.548  17.660  0.00  0.00    +0.000 A 
ATOM     21  C   UNL     1       2.279   3.880  17.816  0.00  0.00    +0.000 A 
BRANCH  19  22
ATOM     22  N   UNL     1       4.107   0.673  18.326  0.00  0.00    +0.000 N 
ATOM     23  H   UNL     1       4.134   0.238  17.391  0.00  0.00    +0.000 HD
ATOM     24  H   UNL     1       4.385   0.109  19.142  0.00  0.00    +0.000 HD
ENDBRANCH  19  22
ENDBRANCH   3  16
TORSDOF 5
ENDMDL
MODEL 4
REMARK VINA RESULT:      -6.9      4.123      8.428
REMARK  Name = 
REMARK  6 active torsions:
REMARK  status: ('A' for Active; 'I' for Inactive)
REMARK    1  A    between atoms: C_1  and  O_2
REMARK    2  A    between atoms: O_2  and  C_3
REMARK    3  A    between atoms: C_6  and  C_7
REMARK    4  A    between atoms: N_9  and  C_10
REMARK    5  A    between atoms: C_13  and  N_14
REMARK    6  A    between atoms: C_20  and  O_21
REMARK                            x       y       z     vdW  Elec       q    Type
REMARK                         _______ _______ _______ _____ _____    ______ ____
ROOT
ATOM      1  C   UNL     1       2.752   7.263  18.480  0.00  0.00    +0.000 A 
ATOM      2  C   UNL     1       2.192   8.429  18.016  0.00  0.00    +0.000 A 
ATOM      3  N   UNL     1       1.509   8.963  19.043  0.00  0.00    +0.000 N 
ATOM      4  N   UNL     1       1.631   8.151  20.085  0.00  0.00    +0.000 NA
ATOM      5  N   UNL     1       2.394   7.113  19.772  0.00  0.00    +0.000 NA
ENDROOT
BRANCH   1   9
ATOM      6  C   UNL     1       5.286   4.628  16.225  0.00  0.00    +0.000 A 
ATOM      7  C   UNL     1       5.337   6.023  16.030  0.00  0.00    +0.000 A 
ATOM      8  C   UNL     1       4.529   6.875  16.782  0.00  0.00    +0.000 A 
ATOM      9  C   UNL     1       3.637   6.354  17.728  0.00  0.00    +0.000 A 
ATOM     10  C   UNL     1       3.583   4.963  17.926  0.00  0.00    +0.000 A 
ATOM     11  C   UNL     1       4.409   4.104  17.188  0.00  0.00    +0.000 A 
BRANCH   6  13
ATOM     12  C   UNL     1       6.321   3.877  14.158  0.00  0.00    +0.000 C 
ATOM     13  O   UNL     1       6.056   3.770  15.507  0.00  0.00    +0.000 OA
ENDBRANCH   6  13
BRANCH  11  14
ATOM     14  O   UNL     1       4.363   2.770  17.396  0.00  0.00    +0.000 OA
ATOM     15  H   UNL     1       3.599   2.338  17.805  0.00  0.00    +0.000 HD
ENDBRANCH  11  14
ENDBRANCH   1   9
BRANCH   3  16
ATOM     16  C   UNL     1       0.798  10.215  19.060  0.00  0.00    +0.000 A 
ATOM     17  C   UNL     1       1.444  11.418  18.709  0.00  0.00    +0.000 A 
ATOM     18  C   UNL     1       0.759  12.632  18.754  0.00  0.00    +0.000 A 
ATOM     19  C   UNL     1      -0.582  12.674  19.145  0.00  0.00    +0.000 A 
ATOM     20  C   UNL     1      -1.237  11.484  19.496  0.00  0.00    +0.000 A 
ATOM     21  C   UNL     1      -0.551  10.264  19.456  0.00  0.00    +0.000 A 
BRANCH  19  22
ATOM     22  N   UNL     1      -1.268  13.911  19.190  0.00  0.00    +0.000 N 
ATOM     23  H   UNL     1      -1.506  14.346  20.094  0.00  0.00    +0.000 HD
ATOM     24  H   UNL     1      -1.544  14.392  18.322  0.00  0.00    +0.000 HD
ENDBRANCH  19  22
ENDBRANCH   3  16
TORSDOF 5
ENDMDL
MODEL 5
REMARK VINA RESULT:      -6.9      1.880      2.678
REMARK  Name = 
REMARK  6 active torsions:
REMARK  status: ('A' for Active; 'I' for Inactive)
REMARK    1  A    between atoms: C_1  and  O_2
REMARK    2  A    between atoms: O_2  and  C_3
REMARK    3  A    between atoms: C_6  and  C_7
REMARK    4  A    between atoms: N_9  and  C_10
REMARK    5  A    between atoms: C_13  and  N_14
REMARK    6  A    between atoms: C_20  and  O_21
REMARK                            x       y       z     vdW  Elec       q    Type
REMARK                         _______ _______ _______ _____ _____    ______ ____
ROOT
ATOM      1  C   UNL     1       1.184   8.612  20.379  0.00  0.00    +0.000 A 
ATOM      2  C   UNL     1       1.567   7.359  20.796  0.00  0.00    +0.000 A 
ATOM      3  N   UNL     1       2.281   6.822  19.792  0.00  0.00    +0.000 N 
ATOM      4  N   UNL     1       2.320   7.698  18.798  0.00  0.00    +0.000 NA
ATOM      5  N   UNL     1       1.668   8.803  19.134  0.00  0.00    +0.000 NA
ENDROOT
BRANCH   1   9
ATOM      6  C   UNL     1      -1.092  11.461  22.647  0.00  0.00    +0.000 A 
ATOM      7  C   UNL     1      -0.817  10.179  23.164  0.00  0.00    +0.000 A 
ATOM      8  C   UNL     1      -0.058   9.267  22.433  0.00  0.00    +0.000 A 
ATOM      9  C   UNL     1       0.425   9.605  21.162  0.00  0.00    +0.000 A 
ATOM     10  C   UNL     1       0.154  10.883  20.643  0.00  0.00    +0.000 A 
ATOM     11  C   UNL     1      -0.591  11.811  21.383  0.00  0.00    +0.000 A 
BRANCH   6  13
ATOM     12  C   UNL     1      -3.190  12.289  23.554  0.00  0.00    +0.000 C 
ATOM     13  O   UNL     1      -1.832  12.373  23.331  0.00  0.00    +0.000 OA
ENDBRANCH   6  13
BRANCH  11  14
ATOM     14  O   UNL     1      -0.833  13.043  20.885  0.00  0.00    +0.000 OA
ATOM     15  H   UNL     1      -1.472  13.647  21.290  0.00  0.00    +0.000 HD
ENDBRANCH  11  14
ENDBRANCH   1   9
BRANCH   3  16
ATOM     16  C   UNL     1       2.942   5.542  19.782  0.00  0.00    +0.000 A 
ATOM     17  C   UNL     1       2.350   4.418  20.392  0.00  0.00    +0.000 A 
ATOM     18  C   UNL     1       3.006   3.187  20.405  0.00  0.00    +0.000 A 
ATOM     19  C   UNL     1       4.263   3.050  19.808  0.00  0.00    +0.000 A 
ATOM     20  C   UNL     1       4.863   4.161  19.197  0.00  0.00    +0.000 A 
ATOM     21  C   UNL     1       4.208   5.398  19.186  0.00  0.00    +0.000 A 
BRANCH  19  22
ATOM     22  N   UNL     1       4.922   1.798  19.828  0.00  0.00    +0.000 N 
ATOM     23  H   UNL     1       5.871   1.699  19.434  0.00  0.00    +0.000 HD
ATOM     24  H   UNL     1       4.465   0.967  20.229  0.00  0.00    +0.000 HD
ENDBRANCH  19  22
ENDBRANCH   3  16
TORSDOF 5
ENDMDL
MODEL 6
REMARK VINA RESULT:      -6.9      1.871      2.467
REMARK  Name = 
REMARK  6 active torsions:
REMARK  status: ('A' for Active; 'I' for Inactive)
REMARK    1  A    between atoms: C_1  and  O_2
REMARK    2  A    between atoms: O_2  and  C_3
REMARK    3  A    between atoms: C_6  and  C_7
REMARK    4  A    between atoms: N_9  and  C_10
REMARK    5  A    between atoms: C_13  and  N_14
REMARK    6  A    between atoms: C_20  and  O_21
REMARK                            x       y       z     vdW  Elec       q    Type
REMARK                         _______ _______ _______ _____ _____    ______ ____
ROOT
ATOM      1  C   UNL     1       1.166   8.635  20.399  0.00  0.00    +0.000 A 
ATOM      2  C   UNL     1       1.565   7.391  20.826  0.00  0.00    +0.000 A 
ATOM      3  N   UNL     1       2.274   6.849  19.821  0.00  0.00    +0.000 N 
ATOM      4  N   UNL     1       2.293   7.714  18.816  0.00  0.00    +0.000 NA
ATOM      5  N   UNL     1       1.634   8.816  19.147  0.00  0.00    +0.000 NA
ENDROOT
BRANCH   1   9
ATOM      6  C   UNL     1      -1.112  11.489  22.660  0.00  0.00    +0.000 A 
ATOM      7  C   UNL     1      -0.823  10.214  23.187  0.00  0.00    +0.000 A 
ATOM      8  C   UNL     1      -0.062   9.301  22.457  0.00  0.00    +0.000 A 
ATOM      9  C   UNL     1       0.406   9.629  21.179  0.00  0.00    +0.000 A 
ATOM     10  C   UNL     1       0.119  10.900  20.650  0.00  0.00    +0.000 A 
ATOM     11  C   UNL     1      -0.626  11.830  21.388  0.00  0.00    +0.000 A 
BRANCH   6  13
ATOM     12  C   UNL     1      -3.223  12.359  23.495  0.00  0.00    +0.000 C 
ATOM     13  O   UNL     1      -1.853  12.401  23.342  0.00  0.00    +0.000 OA
ENDBRANCH   6  13
BRANCH  11  14
ATOM     14  O   UNL     1      -0.882  13.054  20.879  0.00  0.00    +0.000 OA
ATOM     15  H   UNL     1      -0.198  13.735  20.804  0.00  0.00    +0.000 HD
ENDBRANCH  11  14
ENDBRANCH   1   9
BRANCH   3  16
ATOM     16  C   UNL     1       2.947   5.575  19.817  0.00  0.00    +0.000 A 
ATOM     17  C   UNL     1       4.206   5.425  19.203  0.00  0.00    +0.000 A 
ATOM     18  C   UNL     1       4.841   4.184  19.177  0.00  0.00    +0.000 A 
ATOM     19  C   UNL     1       4.238   3.068  19.765  0.00  0.00    +0.000 A 
ATOM     20  C   UNL     1       2.985   3.204  20.380  0.00  0.00    +0.000 A 
ATOM     21  C   UNL     1       2.343   4.448  20.404  0.00  0.00    +0.000 A 
BRANCH  19  22
ATOM     22  N   UNL     1       4.888   1.812  19.732  0.00  0.00    +0.000 N 
ATOM     23  H   UNL     1       5.916   1.752  19.804  0.00  0.00    +0.000 HD
ATOM     24  H   UNL     1       4.349   0.941  19.630  0.00  0.00    +0.000 HD
ENDBRANCH  19  22
ENDBRANCH   3  16
TORSDOF 5
ENDMDL
MODEL 7
REMARK VINA RESULT:      -6.8      1.543      2.130
REMARK  Name = 
REMARK  6 active torsions:
REMARK  status: ('A' for Active; 'I' for Inactive)
REMARK    1  A    between atoms: C_1  and  O_2
REMARK    2  A    between atoms: O_2  and  C_3
REMARK    3  A    between atoms: C_6  and  C_7
REMARK    4  A    between atoms: N_9  and  C_10
REMARK    5  A    between atoms: C_13  and  N_14
REMARK    6  A    between atoms: C_20  and  O_21
REMARK                            x       y       z     vdW  Elec       q    Type
REMARK                         _______ _______ _______ _____ _____    ______ ____
ROOT
ATOM      1  C   UNL     1       1.988   7.423  19.940  0.00  0.00    +0.000 A 
ATOM      2  C   UNL     1       2.753   7.423  18.798  0.00  0.00    +0.000 A 
ATOM      3  N   UNL     1       3.167   6.158  18.613  0.00  0.00    +0.000 N 
ATOM      4  N   UNL     1       2.691   5.419  19.607  0.00  0.00    +0.000 NA
ATOM      5  N   UNL     1       1.960   6.165  20.424  0.00  0.00    +0.000 NA
ENDROOT
BRANCH   1   9
ATOM      6  C   UNL     1      -0.030  10.827  21.609  0.00  0.00    +0.000 A 
ATOM      7  C   UNL     1       0.209  10.736  20.223  0.00  0.00    +0.000 A 
ATOM      8  C   UNL     1       0.843   9.618  19.685  0.00  0.00    +0.000 A 
ATOM      9  C   UNL     1       1.273   8.577  20.518  0.00  0.00    +0.000 A 
ATOM     10  C   UNL     1       1.036   8.664  21.901  0.00  0.00    +0.000 A 
ATOM     11  C   UNL     1       0.379   9.776  22.445  0.00  0.00    +0.000 A 
BRANCH   6  13
ATOM     12  C   UNL     1      -2.000  12.143  22.153  0.00  0.00    +0.000 C 
ATOM     13  O   UNL     1      -0.642  11.904  22.167  0.00  0.00    +0.000 OA
ENDBRANCH   6  13
BRANCH  11  14
ATOM     14  O   UNL     1       0.141   9.844  23.772  0.00  0.00    +0.000 OA
ATOM     15  H   UNL     1      -0.630  10.306  24.135  0.00  0.00    +0.000 HD
ENDBRANCH  11  14
ENDBRANCH   1   9
BRANCH   3  16
ATOM     16  C   UNL     1       3.949   5.648  17.517  0.00  0.00    +0.000 A 
ATOM     17  C   UNL     1       4.078   4.261  17.303  0.00  0.00    +0.000 A 
ATOM     18  C   UNL     1       4.860   3.772  16.257  0.00  0.00    +0.000 A 
ATOM     19  C   UNL     1       5.527   4.653  15.401  0.00  0.00    +0.000 A 
ATOM     20  C   UNL     1       5.406   6.036  15.602  0.00  0.00    +0.000 A 
ATOM     21  C   UNL     1       4.625   6.530  16.654  0.00  0.00    +0.000 A 
BRANCH  19  22
ATOM     22  N   UNL     1       6.320   4.148  14.344  0.00  0.00    +0.000 N 
ATOM     23  H   UNL     1       6.372   4.647  13.442  0.00  0.00    +0.000 HD
ATOM     24  H   UNL     1       6.852   3.273  14.455  0.00  0.00    +0.000 HD
ENDBRANCH  19  22
ENDBRANCH   3  16
TORSDOF 5
ENDMDL
MODEL 8
REMARK VINA RESULT:      -6.8      3.998      8.601
REMARK  Name = 
REMARK  6 active torsions:
REMARK  status: ('A' for Active; 'I' for Inactive)
REMARK    1  A    between atoms: C_1  and  O_2
REMARK    2  A    between atoms: O_2  and  C_3
REMARK    3  A    between atoms: C_6  and  C_7
REMARK    4  A    between atoms: N_9  and  C_10
REMARK    5  A    between atoms: C_13  and  N_14
REMARK    6  A    between atoms: C_20  and  O_21
REMARK                            x       y       z     vdW  Elec       q    Type
REMARK                         _______ _______ _______ _____ _____    ______ ____
ROOT
ATOM      1  C   UNL     1       2.825   6.207  19.115  0.00  0.00    +0.000 A 
ATOM      2  C   UNL     1       2.390   7.508  19.208  0.00  0.00    +0.000 A 
ATOM      3  N   UNL     1       1.621   7.579  20.308  0.00  0.00    +0.000 N 
ATOM      4  N   UNL     1       1.573   6.372  20.855  0.00  0.00    +0.000 NA
ATOM      5  N   UNL     1       2.307   5.520  20.154  0.00  0.00    +0.000 NA
ENDROOT
BRANCH   1   9
ATOM      6  C   UNL     1       5.519   4.558  16.205  0.00  0.00    +0.000 A 
ATOM      7  C   UNL     1       4.438   3.801  16.701  0.00  0.00    +0.000 A 
ATOM      8  C   UNL     1       3.553   4.350  17.628  0.00  0.00    +0.000 A 
ATOM      9  C   UNL     1       3.739   5.657  18.097  0.00  0.00    +0.000 A 
ATOM     10  C   UNL     1       4.815   6.416  17.605  0.00  0.00    +0.000 A 
ATOM     11  C   UNL     1       5.695   5.876  16.656  0.00  0.00    +0.000 A 
BRANCH   6  13
ATOM     12  C   UNL     1       6.177   3.937  13.949  0.00  0.00    +0.000 C 
ATOM     13  O   UNL     1       6.402   4.053  15.305  0.00  0.00    +0.000 OA
ENDBRANCH   6  13
BRANCH  11  14
ATOM     14  O   UNL     1       6.717   6.617  16.176  0.00  0.00    +0.000 OA
ATOM     15  H   UNL     1       7.338   7.079  16.758  0.00  0.00    +0.000 HD
ENDBRANCH  11  14
ENDBRANCH   1   9
BRANCH   3  16
ATOM     16  C   UNL     1       0.985   8.751  20.852  0.00  0.00    +0.000 A 
ATOM     17  C   UNL     1       0.613   8.807  22.210  0.00  0.00    +0.000 A 
ATOM     18  C   UNL     1      -0.028   9.933  22.726  0.00  0.00    +0.000 A 
ATOM     19  C   UNL     1      -0.309  11.027  21.902  0.00  0.00    +0.000 A 
ATOM     20  C   UNL     1       0.057  10.984  20.549  0.00  0.00    +0.000 A 
ATOM     21  C   UNL     1       0.697   9.853  20.027  0.00  0.00    +0.000 A 
BRANCH  19  22
ATOM     22  N   UNL     1      -0.962  12.164  22.434  0.00  0.00    +0.000 N 
ATOM     23  H   UNL     1      -1.091  13.011  21.859  0.00  0.00    +0.000 HD
ATOM     24  H   UNL     1      -1.313  12.166  23.402  0.00  0.00    +0.000 HD
ENDBRANCH  19  22
ENDBRANCH   3  16
TORSDOF 5
ENDMDL
MODEL 9
REMARK VINA RESULT:      -6.8      1.603      1.939
REMARK  Name = 
REMARK  6 active torsions:
REMARK  status: ('A' for Active; 'I' for Inactive)
REMARK    1  A    between atoms: C_1  and  O_2
REMARK    2  A    between atoms: O_2  and  C_3
REMARK    3  A    between atoms: C_6  and  C_7
REMARK    4  A    between atoms: N_9  and  C_10
REMARK    5  A    between atoms: C_13  and  N_14
REMARK    6  A    between atoms: C_20  and  O_21
REMARK                            x       y       z     vdW  Elec       q    Type
REMARK                         _______ _______ _______ _____ _____    ______ ____
ROOT
ATOM      1  C   UNL     1       1.909   7.423  20.042  0.00  0.00    +0.000 A 
ATOM      2  C   UNL     1       2.687   7.449  18.909  0.00  0.00    +0.000 A 
ATOM      3  N   UNL     1       3.127   6.194  18.717  0.00  0.00    +0.000 N 
ATOM      4  N   UNL     1       2.655   5.436  19.697  0.00  0.00    +0.000 NA
ATOM      5  N   UNL     1       1.900   6.159  20.513  0.00  0.00    +0.000 NA
ENDROOT
BRANCH   1   9
ATOM      6  C   UNL     1      -0.193  10.769  21.726  0.00  0.00    +0.000 A 
ATOM      7  C   UNL     1       0.142  10.739  20.358  0.00  0.00    +0.000 A 
ATOM      8  C   UNL     1       0.803   9.640  19.812  0.00  0.00    +0.000 A 
ATOM      9  C   UNL     1       1.165   8.557  20.623  0.00  0.00    +0.000 A 
ATOM     10  C   UNL     1       0.833   8.581  21.989  0.00  0.00    +0.000 A 
ATOM     11  C   UNL     1       0.148   9.675  22.537  0.00  0.00    +0.000 A 
BRANCH   6  13
ATOM     12  C   UNL     1      -0.468  13.147  22.146  0.00  0.00    +0.000 C 
ATOM     13  O   UNL     1      -0.833  11.825  22.291  0.00  0.00    +0.000 OA
ENDBRANCH   6  13
BRANCH  11  14
ATOM     14  O   UNL     1      -0.182   9.683  23.847  0.00  0.00    +0.000 OA
ATOM     15  H   UNL     1       0.483   9.770  24.546  0.00  0.00    +0.000 HD
ENDBRANCH  11  14
ENDBRANCH   1   9
BRANCH   3  16
ATOM     16  C   UNL     1       3.932   5.711  17.624  0.00  0.00    +0.000 A 
ATOM     17  C   UNL     1       4.598   6.609  16.765  0.00  0.00    +0.000 A 
ATOM     18  C   UNL     1       5.353   6.138  15.691  0.00  0.00    +0.000 A 
ATOM     19  C   UNL     1       5.463   4.765  15.452  0.00  0.00    +0.000 A 
ATOM     20  C   UNL     1       4.806   3.861  16.300  0.00  0.00    +0.000 A 
ATOM     21  C   UNL     1       4.044   4.331  17.377  0.00  0.00    +0.000 A 
BRANCH  19  22
ATOM     22  N   UNL     1       6.230   4.296  14.359  0.00  0.00    +0.000 N 
ATOM     23  H   UNL     1       7.250   4.450  14.330  0.00  0.00    +0.000 HD
ATOM     24  H   UNL     1       5.782   3.801  13.575  0.00  0.00    +0.000 HD
ENDBRANCH  19  22
ENDBRANCH   3  16
TORSDOF 5
ENDMDL
