MODEL 1
REMARK VINA RESULT:      -7.5      0.000      0.000
REMARK  Name = 
REMARK  4 active torsions:
REMARK  status: ('A' for Active; 'I' for Inactive)
REMARK    1  A    between atoms: C_1  and  C_2
REMARK    2  A    between atoms: C_2  and  C_3
REMARK    3  A    between atoms: C_3  and  C_4
REMARK    4  A    between atoms: N_6  and  C_7
REMARK                            x       y       z     vdW  Elec       q    Type
REMARK                         _______ _______ _______ _____ _____    ______ ____
ROOT
ATOM      1  C   UNL     1       6.510   4.314  15.516  0.00  0.00    +0.000 C 
ATOM      2  N   UNL     1       5.421   3.834  16.014  0.00  0.00    +0.000 NA
ATOM      3  N   UNL     1       5.171   3.959  17.362  0.00  0.00    +0.000 N 
ATOM      4  C   UNL     1       6.118   4.462  18.251  0.00  0.00    +0.000 C 
ATOM      5  O   UNL     1       5.998   4.584  19.473  0.00  0.00    +0.000 OA
ATOM      6  C   UNL     1       7.439   4.817  17.603  0.00  0.00    +0.000 C 
ATOM      7  O   UNL     1       7.520   4.890  16.198  0.00  0.00    +0.000 OA
ENDROOT
BRANCH   3   8
ATOM      8  C   UNL     1       3.833   3.608  17.743  0.00  0.00    +0.000 A 
ATOM      9  C   UNL     1       3.512   2.333  18.233  0.00  0.00    +0.000 A 
ATOM     10  C   UNL     1       2.210   2.014  18.632  0.00  0.00    +0.000 A 
ATOM     11  C   UNL     1       1.197   2.962  18.534  0.00  0.00    +0.000 A 
ATOM     12  C   UNL     1       1.489   4.233  18.048  0.00  0.00    +0.000 A 
ATOM     13  C   UNL     1       2.798   4.556  17.669  0.00  0.00    +0.000 A 
ENDBRANCH   3   8
BRANCH   1  14
ATOM     14  C   UNL     1       6.770   4.329  14.032  0.00  0.00    +0.000 C 
BRANCH  14  16
ATOM     15  C   UNL     1       5.881   3.037  12.025  0.00  0.00    +0.000 C 
ATOM     16  C   UNL     1       5.541   3.902  13.231  0.00  0.00    +0.000 C 
ENDBRANCH  14  16
ENDBRANCH   1  14
TORSDOF 3
ENDMDL
MODEL 2
REMARK VINA RESULT:      -7.3      0.462      1.275
REMARK  Name = 
REMARK  4 active torsions:
REMARK  status: ('A' for Active; 'I' for Inactive)
REMARK    1  A    between atoms: C_1  and  C_2
REMARK    2  A    between atoms: C_2  and  C_3
REMARK    3  A    between atoms: C_3  and  C_4
REMARK    4  A    between atoms: N_6  and  C_7
REMARK                            x       y       z     vdW  Elec       q    Type
REMARK                         _______ _______ _______ _____ _____    ______ ____
ROOT
ATOM      1  C   UNL     1       6.453   4.442  15.248  0.00  0.00    +0.000 C 
ATOM      2  N   UNL     1       5.351   4.023  15.774  0.00  0.00    +0.000 NA
ATOM      3  N   UNL     1       5.196   4.037  17.142  0.00  0.00    +0.000 N 
ATOM      4  C   UNL     1       6.242   4.354  18.006  0.00  0.00    +0.000 C 
ATOM      5  O   UNL     1       6.208   4.364  19.239  0.00  0.00    +0.000 OA
ATOM      6  C   UNL     1       7.552   4.641  17.304  0.00  0.00    +0.000 C 
ATOM      7  O   UNL     1       7.555   4.846  15.909  0.00  0.00    +0.000 OA
ENDROOT
BRANCH   3   8
ATOM      8  C   UNL     1       3.854   3.782  17.580  0.00  0.00    +0.000 A 
ATOM      9  C   UNL     1       2.914   4.812  17.731  0.00  0.00    +0.000 A 
ATOM     10  C   UNL     1       1.600   4.546  18.128  0.00  0.00    +0.000 A 
ATOM     11  C   UNL     1       1.202   3.241  18.398  0.00  0.00    +0.000 A 
ATOM     12  C   UNL     1       2.117   2.201  18.260  0.00  0.00    +0.000 A 
ATOM     13  C   UNL     1       3.426   2.467  17.841  0.00  0.00    +0.000 A 
ENDBRANCH   3   8
BRANCH   1  14
ATOM     14  C   UNL     1       6.623   4.580  13.758  0.00  0.00    +0.000 C 
BRANCH  14  16
ATOM     15  C   UNL     1       5.000   3.609  12.052  0.00  0.00    +0.000 C 
ATOM     16  C   UNL     1       6.151   3.334  13.010  0.00  0.00    +0.000 C 
ENDBRANCH  14  16
ENDBRANCH   1  14
TORSDOF 3
ENDMDL
MODEL 3
REMARK VINA RESULT:      -6.9      1.591      2.033
REMARK  Name = 
REMARK  4 active torsions:
REMARK  status: ('A' for Active; 'I' for Inactive)
REMARK    1  A    between atoms: C_1  and  C_2
REMARK    2  A    between atoms: C_2  and  C_3
REMARK    3  A    between atoms: C_3  and  C_4
REMARK    4  A    between atoms: N_6  and  C_7
REMARK                            x       y       z     vdW  Elec       q    Type
REMARK                         _______ _______ _______ _____ _____    ______ ____
ROOT
ATOM      1  C   UNL     1       5.619   4.432  16.126  0.00  0.00    +0.000 C 
ATOM      2  N   UNL     1       4.813   4.128  17.087  0.00  0.00    +0.000 NA
ATOM      3  N   UNL     1       5.147   4.438  18.386  0.00  0.00    +0.000 N 
ATOM      4  C   UNL     1       6.398   4.944  18.732  0.00  0.00    +0.000 C 
ATOM      5  O   UNL     1       6.799   5.223  19.865  0.00  0.00    +0.000 OA
ATOM      6  C   UNL     1       7.348   5.082  17.561  0.00  0.00    +0.000 C 
ATOM      7  O   UNL     1       6.845   4.979  16.249  0.00  0.00    +0.000 OA
ENDROOT
BRANCH   3   8
ATOM      8  C   UNL     1       4.073   4.273  19.321  0.00  0.00    +0.000 A 
ATOM      9  C   UNL     1       3.227   5.335  19.675  0.00  0.00    +0.000 A 
ATOM     10  C   UNL     1       2.163   5.153  20.563  0.00  0.00    +0.000 A 
ATOM     11  C   UNL     1       1.931   3.904  21.130  0.00  0.00    +0.000 A 
ATOM     12  C   UNL     1       2.758   2.835  20.798  0.00  0.00    +0.000 A 
ATOM     13  C   UNL     1       3.809   3.015  19.891  0.00  0.00    +0.000 A 
ENDBRANCH   3   8
BRANCH   1  14
ATOM     14  C   UNL     1       5.243   4.243  14.680  0.00  0.00    +0.000 C 
BRANCH  14  16
ATOM     15  C   UNL     1       6.153   3.434  12.443  0.00  0.00    +0.000 C 
ATOM     16  C   UNL     1       6.470   4.080  13.785  0.00  0.00    +0.000 C 
ENDBRANCH  14  16
ENDBRANCH   1  14
TORSDOF 3
ENDMDL
MODEL 4
REMARK VINA RESULT:      -6.9      1.579      1.630
REMARK  Name = 
REMARK  4 active torsions:
REMARK  status: ('A' for Active; 'I' for Inactive)
REMARK    1  A    between atoms: C_1  and  C_2
REMARK    2  A    between atoms: C_2  and  C_3
REMARK    3  A    between atoms: C_3  and  C_4
REMARK    4  A    between atoms: N_6  and  C_7
REMARK                            x       y       z     vdW  Elec       q    Type
REMARK                         _______ _______ _______ _____ _____    ______ ____
ROOT
ATOM      1  C   UNL     1       5.628   4.465  16.096  0.00  0.00    +0.000 C 
ATOM      2  N   UNL     1       4.812   4.147  17.045  0.00  0.00    +0.000 NA
ATOM      3  N   UNL     1       5.139   4.425  18.352  0.00  0.00    +0.000 N 
ATOM      4  C   UNL     1       6.391   4.914  18.718  0.00  0.00    +0.000 C 
ATOM      5  O   UNL     1       6.785   5.165  19.860  0.00  0.00    +0.000 OA
ATOM      6  C   UNL     1       7.351   5.071  17.557  0.00  0.00    +0.000 C 
ATOM      7  O   UNL     1       6.856   5.000  16.240  0.00  0.00    +0.000 OA
ENDROOT
BRANCH   3   8
ATOM      8  C   UNL     1       4.056   4.248  19.276  0.00  0.00    +0.000 A 
ATOM      9  C   UNL     1       3.807   3.016  19.899  0.00  0.00    +0.000 A 
ATOM     10  C   UNL     1       2.767   2.865  20.823  0.00  0.00    +0.000 A 
ATOM     11  C   UNL     1       1.944   3.943  21.131  0.00  0.00    +0.000 A 
ATOM     12  C   UNL     1       2.169   5.175  20.523  0.00  0.00    +0.000 A 
ATOM     13  C   UNL     1       3.224   5.329  19.615  0.00  0.00    +0.000 A 
ENDBRANCH   3   8
BRANCH   1  14
ATOM     14  C   UNL     1       5.261   4.310  14.643  0.00  0.00    +0.000 C 
BRANCH  14  16
ATOM     15  C   UNL     1       6.144   3.436  12.420  0.00  0.00    +0.000 C 
ATOM     16  C   UNL     1       6.486   4.061  13.766  0.00  0.00    +0.000 C 
ENDBRANCH  14  16
ENDBRANCH   1  14
TORSDOF 3
ENDMDL
MODEL 5
REMARK VINA RESULT:      -6.8      2.061      2.418
REMARK  Name = 
REMARK  4 active torsions:
REMARK  status: ('A' for Active; 'I' for Inactive)
REMARK    1  A    between atoms: C_1  and  C_2
REMARK    2  A    between atoms: C_2  and  C_3
REMARK    3  A    between atoms: C_3  and  C_4
REMARK    4  A    between atoms: N_6  and  C_7
REMARK                            x       y       z     vdW  Elec       q    Type
REMARK                         _______ _______ _______ _____ _____    ______ ____
ROOT
ATOM      1  C   UNL     1       5.181   4.620  16.286  0.00  0.00    +0.000 C 
ATOM      2  N   UNL     1       4.484   4.171  17.275  0.00  0.00    +0.000 NA
ATOM      3  N   UNL     1       3.671   5.026  17.984  0.00  0.00    +0.000 N 
ATOM      4  C   UNL     1       3.673   6.402  17.771  0.00  0.00    +0.000 C 
ATOM      5  O   UNL     1       3.006   7.248  18.373  0.00  0.00    +0.000 OA
ATOM      6  C   UNL     1       4.667   6.859  16.725  0.00  0.00    +0.000 C 
ATOM      7  O   UNL     1       5.271   5.903  15.884  0.00  0.00    +0.000 OA
ENDROOT
BRANCH   3   8
ATOM      8  C   UNL     1       2.776   4.365  18.889  0.00  0.00    +0.000 A 
ATOM      9  C   UNL     1       2.887   4.507  20.280  0.00  0.00    +0.000 A 
ATOM     10  C   UNL     1       1.986   3.883  21.149  0.00  0.00    +0.000 A 
ATOM     11  C   UNL     1       0.963   3.089  20.644  0.00  0.00    +0.000 A 
ATOM     12  C   UNL     1       0.834   2.928  19.268  0.00  0.00    +0.000 A 
ATOM     13  C   UNL     1       1.723   3.572  18.398  0.00  0.00    +0.000 A 
ENDBRANCH   3   8
BRANCH   1  14
ATOM     14  C   UNL     1       5.977   3.705  15.391  0.00  0.00    +0.000 C 
BRANCH  14  16
ATOM     15  C   UNL     1       6.124   3.579  12.852  0.00  0.00    +0.000 C 
ATOM     16  C   UNL     1       6.411   4.400  14.102  0.00  0.00    +0.000 C 
ENDBRANCH  14  16
ENDBRANCH   1  14
TORSDOF 3
ENDMDL
MODEL 6
REMARK VINA RESULT:      -6.7      2.200      3.586
REMARK  Name = 
REMARK  4 active torsions:
REMARK  status: ('A' for Active; 'I' for Inactive)
REMARK    1  A    between atoms: C_1  and  C_2
REMARK    2  A    between atoms: C_2  and  C_3
REMARK    3  A    between atoms: C_3  and  C_4
REMARK    4  A    between atoms: N_6  and  C_7
REMARK                            x       y       z     vdW  Elec       q    Type
REMARK                         _______ _______ _______ _____ _____    ______ ____
ROOT
ATOM      1  C   UNL     1       6.312   4.597  17.836  0.00  0.00    +0.000 C 
ATOM      2  N   UNL     1       5.368   4.503  18.711  0.00  0.00    +0.000 NA
ATOM      3  N   UNL     1       4.133   4.025  18.337  0.00  0.00    +0.000 N 
ATOM      4  C   UNL     1       3.806   3.766  17.008  0.00  0.00    +0.000 C 
ATOM      5  O   UNL     1       2.722   3.366  16.574  0.00  0.00    +0.000 OA
ATOM      6  C   UNL     1       4.914   4.093  16.030  0.00  0.00    +0.000 C 
ATOM      7  O   UNL     1       6.214   4.338  16.517  0.00  0.00    +0.000 OA
ENDROOT
BRANCH   3   8
ATOM      8  C   UNL     1       3.258   3.742  19.438  0.00  0.00    +0.000 A 
ATOM      9  C   UNL     1       3.511   2.694  20.336  0.00  0.00    +0.000 A 
ATOM     10  C   UNL     1       2.668   2.450  21.425  0.00  0.00    +0.000 A 
ATOM     11  C   UNL     1       1.542   3.240  21.629  0.00  0.00    +0.000 A 
ATOM     12  C   UNL     1       1.267   4.284  20.749  0.00  0.00    +0.000 A 
ATOM     13  C   UNL     1       2.125   4.541  19.673  0.00  0.00    +0.000 A 
ENDBRANCH   3   8
BRANCH   1  14
ATOM     14  C   UNL     1       7.718   4.981  18.218  0.00  0.00    +0.000 C 
BRANCH  14  16
ATOM     15  C   UNL     1       7.546   7.444  17.594  0.00  0.00    +0.000 C 
ATOM     16  C   UNL     1       7.807   6.428  18.698  0.00  0.00    +0.000 C 
ENDBRANCH  14  16
ENDBRANCH   1  14
TORSDOF 3
ENDMDL
MODEL 7
REMARK VINA RESULT:      -6.7      2.050      2.341
REMARK  Name = 
REMARK  4 active torsions:
REMARK  status: ('A' for Active; 'I' for Inactive)
REMARK    1  A    between atoms: C_1  and  C_2
REMARK    2  A    between atoms: C_2  and  C_3
REMARK    3  A    between atoms: C_3  and  C_4
REMARK    4  A    between atoms: N_6  and  C_7
REMARK                            x       y       z     vdW  Elec       q    Type
REMARK                         _______ _______ _______ _____ _____    ______ ____
ROOT
ATOM      1  C   UNL     1       5.392   4.744  16.046  0.00  0.00    +0.000 C 
ATOM      2  N   UNL     1       4.659   4.377  17.042  0.00  0.00    +0.000 NA
ATOM      3  N   UNL     1       3.872   5.301  17.691  0.00  0.00    +0.000 N 
ATOM      4  C   UNL     1       3.937   6.663  17.408  0.00  0.00    +0.000 C 
ATOM      5  O   UNL     1       3.297   7.566  17.953  0.00  0.00    +0.000 OA
ATOM      6  C   UNL     1       4.970   7.023  16.360  0.00  0.00    +0.000 C 
ATOM      7  O   UNL     1       5.546   5.999  15.581  0.00  0.00    +0.000 OA
ENDROOT
BRANCH   3   8
ATOM      8  C   UNL     1       2.932   4.726  18.609  0.00  0.00    +0.000 A 
ATOM      9  C   UNL     1       1.894   3.885  18.179  0.00  0.00    +0.000 A 
ATOM     10  C   UNL     1       1.004   3.304  19.089  0.00  0.00    +0.000 A 
ATOM     11  C   UNL     1       1.124   3.568  20.449  0.00  0.00    +0.000 A 
ATOM     12  C   UNL     1       2.143   4.403  20.900  0.00  0.00    +0.000 A 
ATOM     13  C   UNL     1       3.046   4.965  19.990  0.00  0.00    +0.000 A 
ENDBRANCH   3   8
BRANCH   1  14
ATOM     14  C   UNL     1       6.164   3.751  15.215  0.00  0.00    +0.000 C 
BRANCH  14  16
ATOM     15  C   UNL     1       5.912   3.474  12.696  0.00  0.00    +0.000 C 
ATOM     16  C   UNL     1       6.500   4.301  13.831  0.00  0.00    +0.000 C 
ENDBRANCH  14  16
ENDBRANCH   1  14
TORSDOF 3
ENDMDL
MODEL 8
REMARK VINA RESULT:      -6.7      2.012      3.898
REMARK  Name = 
REMARK  4 active torsions:
REMARK  status: ('A' for Active; 'I' for Inactive)
REMARK    1  A    between atoms: C_1  and  C_2
REMARK    2  A    between atoms: C_2  and  C_3
REMARK    3  A    between atoms: C_3  and  C_4
REMARK    4  A    between atoms: N_6  and  C_7
REMARK                            x       y       z     vdW  Elec       q    Type
REMARK                         _______ _______ _______ _____ _____    ______ ____
ROOT
ATOM      1  C   UNL     1       6.938   6.202  17.240  0.00  0.00    +0.000 C 
ATOM      2  N   UNL     1       5.776   5.744  17.566  0.00  0.00    +0.000 NA
ATOM      3  N   UNL     1       5.125   4.867  16.729  0.00  0.00    +0.000 N 
ATOM      4  C   UNL     1       5.605   4.555  15.460  0.00  0.00    +0.000 C 
ATOM      5  O   UNL     1       5.080   3.807  14.630  0.00  0.00    +0.000 OA
ATOM      6  C   UNL     1       6.874   5.292  15.086  0.00  0.00    +0.000 C 
ATOM      7  O   UNL     1       7.597   5.971  16.087  0.00  0.00    +0.000 OA
ENDROOT
BRANCH   3   8
ATOM      8  C   UNL     1       3.969   4.250  17.314  0.00  0.00    +0.000 A 
ATOM      9  C   UNL     1       2.821   4.986  17.641  0.00  0.00    +0.000 A 
ATOM     10  C   UNL     1       1.689   4.367  18.180  0.00  0.00    +0.000 A 
ATOM     11  C   UNL     1       1.688   2.996  18.418  0.00  0.00    +0.000 A 
ATOM     12  C   UNL     1       2.817   2.244  18.105  0.00  0.00    +0.000 A 
ATOM     13  C   UNL     1       3.941   2.863  17.545  0.00  0.00    +0.000 A 
ENDBRANCH   3   8
BRANCH   1  14
ATOM     14  C   UNL     1       7.753   7.051  18.180  0.00  0.00    +0.000 C 
BRANCH  14  16
ATOM     15  C   UNL     1       8.716   9.370  18.607  0.00  0.00    +0.000 C 
ATOM     16  C   UNL     1       7.911   8.482  17.668  0.00  0.00    +0.000 C 
ENDBRANCH  14  16
ENDBRANCH   1  14
TORSDOF 3
ENDMDL
MODEL 9
REMARK VINA RESULT:      -6.7      0.924      1.457
REMARK  Name = 
REMARK  4 active torsions:
REMARK  status: ('A' for Active; 'I' for Inactive)
REMARK    1  A    between atoms: C_1  and  C_2
REMARK    2  A    between atoms: C_2  and  C_3
REMARK    3  A    between atoms: C_3  and  C_4
REMARK    4  A    between atoms: N_6  and  C_7
REMARK                            x       y       z     vdW  Elec       q    Type
REMARK                         _______ _______ _______ _____ _____    ______ ____
ROOT
ATOM      1  C   UNL     1       5.631   4.624  15.777  0.00  0.00    +0.000 C 
ATOM      2  N   UNL     1       4.679   4.110  16.480  0.00  0.00    +0.000 NA
ATOM      3  N   UNL     1       4.751   4.133  17.854  0.00  0.00    +0.000 N 
ATOM      4  C   UNL     1       5.888   4.567  18.532  0.00  0.00    +0.000 C 
ATOM      5  O   UNL     1       6.058   4.597  19.754  0.00  0.00    +0.000 OA
ATOM      6  C   UNL     1       7.029   4.967  17.621  0.00  0.00    +0.000 C 
ATOM      7  O   UNL     1       6.783   5.145  16.245  0.00  0.00    +0.000 OA
ENDROOT
BRANCH   3   8
ATOM      8  C   UNL     1       3.532   3.757  18.510  0.00  0.00    +0.000 A 
ATOM      9  C   UNL     1       2.693   4.704  19.117  0.00  0.00    +0.000 A 
ATOM     10  C   UNL     1       1.491   4.328  19.725  0.00  0.00    +0.000 A 
ATOM     11  C   UNL     1       1.111   2.990  19.752  0.00  0.00    +0.000 A 
ATOM     12  C   UNL     1       1.928   2.031  19.160  0.00  0.00    +0.000 A 
ATOM     13  C   UNL     1       3.120   2.413  18.533  0.00  0.00    +0.000 A 
ENDBRANCH   3   8
BRANCH   1  14
ATOM     14  C   UNL     1       5.538   4.749  14.279  0.00  0.00    +0.000 C 
BRANCH  14  16
ATOM     15  C   UNL     1       5.715   3.246  12.231  0.00  0.00    +0.000 C 
ATOM     16  C   UNL     1       6.330   3.657  13.562  0.00  0.00    +0.000 C 
ENDBRANCH  14  16
ENDBRANCH   1  14
TORSDOF 3
ENDMDL
