MODEL 1
REMARK VINA RESULT:      -9.1      0.000      0.000
REMARK  Name = 
REMARK  4 active torsions:
REMARK  status: ('A' for Active; 'I' for Inactive)
REMARK    1  A    between atoms: C_1  and  C_2
REMARK    2  A    between atoms: C_3  and  C_4
REMARK    3  A    between atoms: C_7  and  C_8
REMARK    4  A    between atoms: C_11  and  C_12
REMARK                            x       y       z     vdW  Elec       q    Type
REMARK                         _______ _______ _______ _____ _____    ______ ____
ROOT
ATOM      1  C   UNL     1       2.325   7.320  18.776  0.00  0.00    +0.000 A 
ATOM      2  C   UNL     1       1.903   8.463  18.103  0.00  0.00    +0.000 A 
ATOM      3  C   UNL     1       1.218   9.455  18.802  0.00  0.00    +0.000 A 
ATOM      4  C   UNL     1       0.951   9.281  20.162  0.00  0.00    +0.000 A 
ATOM      5  N   UNL     1       1.359   8.172  20.830  0.00  0.00    +0.000 NA
ATOM      6  C   UNL     1       2.031   7.226  20.131  0.00  0.00    +0.000 A 
ENDROOT
BRANCH   1   9
ATOM      7  C   UNL     1       1.485   4.433  18.819  0.00  0.00    +0.000 C 
ATOM      8  C   UNL     1       2.693   4.992  18.129  0.00  0.00    +0.000 A 
ATOM      9  C   UNL     1       3.098   6.278  18.090  0.00  0.00    +0.000 A 
ATOM     10  N   UNL     1       4.230   6.707  17.435  0.00  0.00    +0.000 N 
ATOM     11  C   UNL     1       5.068   5.821  16.751  0.00  0.00    +0.000 A 
ATOM     12  C   UNL     1       6.208   6.269  16.080  0.00  0.00    +0.000 A 
ATOM     13  C   UNL     1       7.015   5.367  15.377  0.00  0.00    +0.000 A 
ATOM     14  C   UNL     1       6.686   4.012  15.334  0.00  0.00    +0.000 A 
ATOM     15  C   UNL     1       5.549   3.553  15.994  0.00  0.00    +0.000 A 
ATOM     16  C   UNL     1       4.748   4.458  16.698  0.00  0.00    +0.000 A 
ATOM     17  C   UNL     1       3.535   3.988  17.407  0.00  0.00    +0.000 A 
ATOM     18  O   UNL     1       3.234   2.796  17.401  0.00  0.00    +0.000 OA
ATOM     19  H   UNL     1       4.501   7.680  17.519  0.00  0.00    +0.000 HD
ENDBRANCH   1   9
BRANCH   4  20
ATOM     20  C   UNL     1       0.200  10.273  20.957  0.00  0.00    +0.000 A 
ATOM     21  C   UNL     1      -0.147  11.528  20.429  0.00  0.00    +0.000 A 
ATOM     22  C   UNL     1      -0.871  12.461  21.176  0.00  0.00    +0.000 A 
ATOM     23  C   UNL     1      -1.279  12.164  22.482  0.00  0.00    +0.000 A 
ATOM     24  C   UNL     1      -0.940  10.918  23.024  0.00  0.00    +0.000 A 
ATOM     25  C   UNL     1      -0.214   9.988  22.270  0.00  0.00    +0.000 A 
BRANCH  23  26
ATOM     26  C   UNL     1      -2.080  13.155  23.287  0.00  0.00    +0.000 C 
ATOM     27  F   UNL     1      -3.023  12.573  24.081  0.00  0.00    +0.000 F 
ATOM     28  F   UNL     1      -1.302  13.900  24.121  0.00  0.00    +0.000 F 
ATOM     29  F   UNL     1      -2.751  14.044  22.504  0.00  0.00    +0.000 F 
ENDBRANCH  23  26
ENDBRANCH   4  20
TORSDOF 3
ENDMDL
MODEL 2
REMARK VINA RESULT:      -9.1      0.121      1.148
REMARK  Name = 
REMARK  4 active torsions:
REMARK  status: ('A' for Active; 'I' for Inactive)
REMARK    1  A    between atoms: C_1  and  C_2
REMARK    2  A    between atoms: C_3  and  C_4
REMARK    3  A    between atoms: C_7  and  C_8
REMARK    4  A    between atoms: C_11  and  C_12
REMARK                            x       y       z     vdW  Elec       q    Type
REMARK                         _______ _______ _______ _____ _____    ______ ____
ROOT
ATOM      1  C   UNL     1       2.319   7.329  18.725  0.00  0.00    +0.000 A 
ATOM      2  C   UNL     1       1.869   8.455  18.042  0.00  0.00    +0.000 A 
ATOM      3  C   UNL     1       1.191   9.453  18.739  0.00  0.00    +0.000 A 
ATOM      4  C   UNL     1       0.959   9.301  20.109  0.00  0.00    +0.000 A 
ATOM      5  N   UNL     1       1.395   8.208  20.786  0.00  0.00    +0.000 NA
ATOM      6  C   UNL     1       2.060   7.257  20.088  0.00  0.00    +0.000 A 
ENDROOT
BRANCH   1   9
ATOM      7  C   UNL     1       1.440   4.453  18.735  0.00  0.00    +0.000 C 
ATOM      8  C   UNL     1       2.664   5.002  18.062  0.00  0.00    +0.000 A 
ATOM      9  C   UNL     1       3.086   6.282  18.038  0.00  0.00    +0.000 A 
ATOM     10  N   UNL     1       4.231   6.702  17.400  0.00  0.00    +0.000 N 
ATOM     11  C   UNL     1       5.064   5.810  16.717  0.00  0.00    +0.000 A 
ATOM     12  C   UNL     1       6.218   6.249  16.063  0.00  0.00    +0.000 A 
ATOM     13  C   UNL     1       7.021   5.342  15.362  0.00  0.00    +0.000 A 
ATOM     14  C   UNL     1       6.675   3.991  15.303  0.00  0.00    +0.000 A 
ATOM     15  C   UNL     1       5.524   3.542  15.948  0.00  0.00    +0.000 A 
ATOM     16  C   UNL     1       4.727   4.452  16.650  0.00  0.00    +0.000 A 
ATOM     17  C   UNL     1       3.500   3.992  17.342  0.00  0.00    +0.000 A 
ATOM     18  O   UNL     1       3.184   2.805  17.322  0.00  0.00    +0.000 OA
ATOM     19  H   UNL     1       4.514   7.670  17.495  0.00  0.00    +0.000 HD
ENDBRANCH   1   9
BRANCH   4  20
ATOM     20  C   UNL     1       0.217  10.300  20.904  0.00  0.00    +0.000 A 
ATOM     21  C   UNL     1      -0.218  10.022  22.212  0.00  0.00    +0.000 A 
ATOM     22  C   UNL     1      -0.905  10.973  22.970  0.00  0.00    +0.000 A 
ATOM     23  C   UNL     1      -1.177  12.242  22.444  0.00  0.00    +0.000 A 
ATOM     24  C   UNL     1      -0.753  12.534  21.142  0.00  0.00    +0.000 A 
ATOM     25  C   UNL     1      -0.064  11.576  20.387  0.00  0.00    +0.000 A 
BRANCH  23  26
ATOM     26  C   UNL     1      -1.898  13.281  23.263  0.00  0.00    +0.000 C 
ATOM     27  F   UNL     1      -1.091  13.926  24.154  0.00  0.00    +0.000 F 
ATOM     28  F   UNL     1      -2.455  14.258  22.495  0.00  0.00    +0.000 F 
ATOM     29  F   UNL     1      -2.916  12.754  23.999  0.00  0.00    +0.000 F 
ENDBRANCH  23  26
ENDBRANCH   4  20
TORSDOF 3
ENDMDL
MODEL 3
REMARK VINA RESULT:      -9.1      0.517      1.490
REMARK  Name = 
REMARK  4 active torsions:
REMARK  status: ('A' for Active; 'I' for Inactive)
REMARK    1  A    between atoms: C_1  and  C_2
REMARK    2  A    between atoms: C_3  and  C_4
REMARK    3  A    between atoms: C_7  and  C_8
REMARK    4  A    between atoms: C_11  and  C_12
REMARK                            x       y       z     vdW  Elec       q    Type
REMARK                         _______ _______ _______ _____ _____    ______ ____
ROOT
ATOM      1  C   UNL     1       2.406   7.140  19.077  0.00  0.00    +0.000 A 
ATOM      2  C   UNL     1       2.069   6.887  20.404  0.00  0.00    +0.000 A 
ATOM      3  C   UNL     1       1.332   7.832  21.116  0.00  0.00    +0.000 A 
ATOM      4  C   UNL     1       0.958   9.026  20.493  0.00  0.00    +0.000 A 
ATOM      5  N   UNL     1       1.278   9.283  19.200  0.00  0.00    +0.000 NA
ATOM      6  C   UNL     1       1.987   8.345  18.526  0.00  0.00    +0.000 A 
ENDROOT
BRANCH   1   9
ATOM      7  C   UNL     1       1.418   4.316  18.778  0.00  0.00    +0.000 C 
ATOM      8  C   UNL     1       2.661   4.888  18.163  0.00  0.00    +0.000 A 
ATOM      9  C   UNL     1       3.132   6.147  18.277  0.00  0.00    +0.000 A 
ATOM     10  N   UNL     1       4.292   6.590  17.682  0.00  0.00    +0.000 N 
ATOM     11  C   UNL     1       5.090   5.747  16.902  0.00  0.00    +0.000 A 
ATOM     12  C   UNL     1       6.259   6.211  16.295  0.00  0.00    +0.000 A 
ATOM     13  C   UNL     1       7.026   5.356  15.494  0.00  0.00    +0.000 A 
ATOM     14  C   UNL     1       6.628   4.034  15.290  0.00  0.00    +0.000 A 
ATOM     15  C   UNL     1       5.462   3.561  15.887  0.00  0.00    +0.000 A 
ATOM     16  C   UNL     1       4.700   4.419  16.688  0.00  0.00    +0.000 A 
ATOM     17  C   UNL     1       3.457   3.933  17.332  0.00  0.00    +0.000 A 
ATOM     18  O   UNL     1       3.096   2.768  17.184  0.00  0.00    +0.000 OA
ATOM     19  H   UNL     1       4.611   7.530  17.882  0.00  0.00    +0.000 HD
ENDBRANCH   1   9
BRANCH   4  20
ATOM     20  C   UNL     1       0.208  10.086  21.195  0.00  0.00    +0.000 A 
ATOM     21  C   UNL     1      -0.397   9.856  22.443  0.00  0.00    +0.000 A 
ATOM     22  C   UNL     1      -1.093  10.864  23.115  0.00  0.00    +0.000 A 
ATOM     23  C   UNL     1      -1.203  12.144  22.559  0.00  0.00    +0.000 A 
ATOM     24  C   UNL     1      -0.609  12.389  21.315  0.00  0.00    +0.000 A 
ATOM     25  C   UNL     1       0.087  11.375  20.646  0.00  0.00    +0.000 A 
BRANCH  23  26
ATOM     26  C   UNL     1      -1.933  13.244  23.287  0.00  0.00    +0.000 C 
ATOM     27  F   UNL     1      -2.502  14.161  22.453  0.00  0.00    +0.000 F 
ATOM     28  F   UNL     1      -2.948  12.772  24.064  0.00  0.00    +0.000 F 
ATOM     29  F   UNL     1      -1.120  13.951  24.118  0.00  0.00    +0.000 F 
ENDBRANCH  23  26
ENDBRANCH   4  20
TORSDOF 3
ENDMDL
MODEL 4
REMARK VINA RESULT:      -9.1      0.526      1.175
REMARK  Name = 
REMARK  4 active torsions:
REMARK  status: ('A' for Active; 'I' for Inactive)
REMARK    1  A    between atoms: C_1  and  C_2
REMARK    2  A    between atoms: C_3  and  C_4
REMARK    3  A    between atoms: C_7  and  C_8
REMARK    4  A    between atoms: C_11  and  C_12
REMARK                            x       y       z     vdW  Elec       q    Type
REMARK                         _______ _______ _______ _____ _____    ______ ____
ROOT
ATOM      1  C   UNL     1       2.386   7.150  19.080  0.00  0.00    +0.000 A 
ATOM      2  C   UNL     1       2.059   6.907  20.411  0.00  0.00    +0.000 A 
ATOM      3  C   UNL     1       1.345   7.865  21.128  0.00  0.00    +0.000 A 
ATOM      4  C   UNL     1       0.983   9.063  20.505  0.00  0.00    +0.000 A 
ATOM      5  N   UNL     1       1.294   9.310  19.207  0.00  0.00    +0.000 NA
ATOM      6  C   UNL     1       1.980   8.359  18.529  0.00  0.00    +0.000 A 
ENDROOT
BRANCH   1   9
ATOM      7  C   UNL     1       1.393   4.320  18.866  0.00  0.00    +0.000 C 
ATOM      8  C   UNL     1       2.614   4.881  18.200  0.00  0.00    +0.000 A 
ATOM      9  C   UNL     1       3.087   6.142  18.275  0.00  0.00    +0.000 A 
ATOM     10  N   UNL     1       4.226   6.575  17.635  0.00  0.00    +0.000 N 
ATOM     11  C   UNL     1       4.999   5.719  16.845  0.00  0.00    +0.000 A 
ATOM     12  C   UNL     1       6.147   6.172  16.191  0.00  0.00    +0.000 A 
ATOM     13  C   UNL     1       6.889   5.303  15.382  0.00  0.00    +0.000 A 
ATOM     14  C   UNL     1       6.487   3.977  15.216  0.00  0.00    +0.000 A 
ATOM     15  C   UNL     1       5.342   3.514  15.860  0.00  0.00    +0.000 A 
ATOM     16  C   UNL     1       4.606   4.386  16.669  0.00  0.00    +0.000 A 
ATOM     17  C   UNL     1       3.385   3.911  17.363  0.00  0.00    +0.000 A 
ATOM     18  O   UNL     1       3.021   2.743  17.248  0.00  0.00    +0.000 OA
ATOM     19  H   UNL     1       4.550   7.520  17.806  0.00  0.00    +0.000 HD
ENDBRANCH   1   9
BRANCH   4  20
ATOM     20  C   UNL     1       0.258  10.137  21.211  0.00  0.00    +0.000 A 
ATOM     21  C   UNL     1       0.207  11.447  20.703  0.00  0.00    +0.000 A 
ATOM     22  C   UNL     1      -0.492  12.460  21.364  0.00  0.00    +0.000 A 
ATOM     23  C   UNL     1      -1.173  12.193  22.558  0.00  0.00    +0.000 A 
ATOM     24  C   UNL     1      -1.130  10.894  23.079  0.00  0.00    +0.000 A 
ATOM     25  C   UNL     1      -0.426   9.883  22.412  0.00  0.00    +0.000 A 
BRANCH  23  26
ATOM     26  C   UNL     1      -1.948  13.274  23.266  0.00  0.00    +0.000 C 
ATOM     27  F   UNL     1      -1.191  14.005  24.133  0.00  0.00    +0.000 F 
ATOM     28  F   UNL     1      -2.495  14.175  22.403  0.00  0.00    +0.000 F 
ATOM     29  F   UNL     1      -2.983  12.781  24.001  0.00  0.00    +0.000 F 
ENDBRANCH  23  26
ENDBRANCH   4  20
TORSDOF 3
ENDMDL
MODEL 5
REMARK VINA RESULT:      -8.8      0.958      1.241
REMARK  Name = 
REMARK  4 active torsions:
REMARK  status: ('A' for Active; 'I' for Inactive)
REMARK    1  A    between atoms: C_1  and  C_2
REMARK    2  A    between atoms: C_3  and  C_4
REMARK    3  A    between atoms: C_7  and  C_8
REMARK    4  A    between atoms: C_11  and  C_12
REMARK                            x       y       z     vdW  Elec       q    Type
REMARK                         _______ _______ _______ _____ _____    ______ ____
ROOT
ATOM      1  C   UNL     1       1.998   7.735  19.414  0.00  0.00    +0.000 A 
ATOM      2  C   UNL     1       1.597   8.858  18.694  0.00  0.00    +0.000 A 
ATOM      3  C   UNL     1       0.985   9.917  19.362  0.00  0.00    +0.000 A 
ATOM      4  C   UNL     1       0.767   9.829  20.740  0.00  0.00    +0.000 A 
ATOM      5  N   UNL     1       1.155   8.741  21.452  0.00  0.00    +0.000 NA
ATOM      6  C   UNL     1       1.757   7.729  20.782  0.00  0.00    +0.000 A 
ENDROOT
BRANCH   1   9
ATOM      7  C   UNL     1       1.535   4.875  20.218  0.00  0.00    +0.000 C 
ATOM      8  C   UNL     1       2.466   5.352  19.142  0.00  0.00    +0.000 A 
ATOM      9  C   UNL     1       2.697   6.624  18.757  0.00  0.00    +0.000 A 
ATOM     10  N   UNL     1       3.577   6.977  17.760  0.00  0.00    +0.000 N 
ATOM     11  C   UNL     1       4.321   6.022  17.060  0.00  0.00    +0.000 A 
ATOM     12  C   UNL     1       5.203   6.391  16.042  0.00  0.00    +0.000 A 
ATOM     13  C   UNL     1       5.915   5.414  15.335  0.00  0.00    +0.000 A 
ATOM     14  C   UNL     1       5.745   4.062  15.635  0.00  0.00    +0.000 A 
ATOM     15  C   UNL     1       4.864   3.681  16.645  0.00  0.00    +0.000 A 
ATOM     16  C   UNL     1       4.158   4.661  17.350  0.00  0.00    +0.000 A 
ATOM     17  C   UNL     1       3.217   4.274  18.428  0.00  0.00    +0.000 A 
ATOM     18  O   UNL     1       3.065   3.092  18.725  0.00  0.00    +0.000 OA
ATOM     19  H   UNL     1       3.746   7.961  17.586  0.00  0.00    +0.000 HD
ENDBRANCH   1   9
BRANCH   4  20
ATOM     20  C   UNL     1       0.093  10.896  21.506  0.00  0.00    +0.000 A 
ATOM     21  C   UNL     1       0.340  12.255  21.248  0.00  0.00    +0.000 A 
ATOM     22  C   UNL     1      -0.309  13.264  21.963  0.00  0.00    +0.000 A 
ATOM     23  C   UNL     1      -1.237  12.945  22.961  0.00  0.00    +0.000 A 
ATOM     24  C   UNL     1      -1.493  11.595  23.233  0.00  0.00    +0.000 A 
ATOM     25  C   UNL     1      -0.839  10.588  22.513  0.00  0.00    +0.000 A 
BRANCH  23  26
ATOM     26  C   UNL     1      -1.959  14.028  23.722  0.00  0.00    +0.000 C 
ATOM     27  F   UNL     1      -2.412  15.039  22.927  0.00  0.00    +0.000 F 
ATOM     28  F   UNL     1      -3.054  13.560  24.385  0.00  0.00    +0.000 F 
ATOM     29  F   UNL     1      -1.173  14.620  24.663  0.00  0.00    +0.000 F 
ENDBRANCH  23  26
ENDBRANCH   4  20
TORSDOF 3
ENDMDL
MODEL 6
REMARK VINA RESULT:      -8.7      0.886      1.599
REMARK  Name = 
REMARK  4 active torsions:
REMARK  status: ('A' for Active; 'I' for Inactive)
REMARK    1  A    between atoms: C_1  and  C_2
REMARK    2  A    between atoms: C_3  and  C_4
REMARK    3  A    between atoms: C_7  and  C_8
REMARK    4  A    between atoms: C_11  and  C_12
REMARK                            x       y       z     vdW  Elec       q    Type
REMARK                         _______ _______ _______ _____ _____    ______ ____
ROOT
ATOM      1  C   UNL     1       2.143   7.425  19.429  0.00  0.00    +0.000 A 
ATOM      2  C   UNL     1       1.839   7.248  20.776  0.00  0.00    +0.000 A 
ATOM      3  C   UNL     1       1.161   8.252  21.463  0.00  0.00    +0.000 A 
ATOM      4  C   UNL     1       0.811   9.429  20.795  0.00  0.00    +0.000 A 
ATOM      5  N   UNL     1       1.099   9.612  19.482  0.00  0.00    +0.000 NA
ATOM      6  C   UNL     1       1.750   8.617  18.834  0.00  0.00    +0.000 A 
ENDROOT
BRANCH   1   9
ATOM      7  C   UNL     1       1.470   4.520  19.814  0.00  0.00    +0.000 C 
ATOM      8  C   UNL     1       2.480   5.074  18.853  0.00  0.00    +0.000 A 
ATOM      9  C   UNL     1       2.806   6.368  18.656  0.00  0.00    +0.000 A 
ATOM     10  N   UNL     1       3.755   6.792  17.754  0.00  0.00    +0.000 N 
ATOM     11  C   UNL     1       4.473   5.893  16.961  0.00  0.00    +0.000 A 
ATOM     12  C   UNL     1       5.427   6.336  16.041  0.00  0.00    +0.000 A 
ATOM     13  C   UNL     1       6.112   5.418  15.237  0.00  0.00    +0.000 A 
ATOM     14  C   UNL     1       5.847   4.052  15.341  0.00  0.00    +0.000 A 
ATOM     15  C   UNL     1       4.896   3.598  16.251  0.00  0.00    +0.000 A 
ATOM     16  C   UNL     1       4.215   4.519  17.055  0.00  0.00    +0.000 A 
ATOM     17  C   UNL     1       3.200   4.054  18.029  0.00  0.00    +0.000 A 
ATOM     18  O   UNL     1       2.963   2.855  18.154  0.00  0.00    +0.000 OA
ATOM     19  H   UNL     1       3.990   7.777  17.724  0.00  0.00    +0.000 HD
ENDBRANCH   1   9
BRANCH   4  20
ATOM     20  C   UNL     1       0.123  10.549  21.468  0.00  0.00    +0.000 A 
ATOM     21  C   UNL     1      -0.761  10.332  22.539  0.00  0.00    +0.000 A 
ATOM     22  C   UNL     1      -1.399  11.394  23.185  0.00  0.00    +0.000 A 
ATOM     23  C   UNL     1      -1.169  12.715  22.782  0.00  0.00    +0.000 A 
ATOM     24  C   UNL     1      -0.293  12.948  21.715  0.00  0.00    +0.000 A 
ATOM     25  C   UNL     1       0.344  11.879  21.071  0.00  0.00    +0.000 A 
BRANCH  23  26
ATOM     26  C   UNL     1      -1.836  13.867  23.489  0.00  0.00    +0.000 C 
ATOM     27  F   UNL     1      -1.062  14.427  24.462  0.00  0.00    +0.000 F 
ATOM     28  F   UNL     1      -2.157  14.884  22.641  0.00  0.00    +0.000 F 
ATOM     29  F   UNL     1      -2.997  13.505  24.100  0.00  0.00    +0.000 F 
ENDBRANCH  23  26
ENDBRANCH   4  20
TORSDOF 3
ENDMDL
MODEL 7
REMARK VINA RESULT:      -8.5      5.697     10.142
REMARK  Name = 
REMARK  4 active torsions:
REMARK  status: ('A' for Active; 'I' for Inactive)
REMARK    1  A    between atoms: C_1  and  C_2
REMARK    2  A    between atoms: C_3  and  C_4
REMARK    3  A    between atoms: C_7  and  C_8
REMARK    4  A    between atoms: C_11  and  C_12
REMARK                            x       y       z     vdW  Elec       q    Type
REMARK                         _______ _______ _______ _____ _____    ______ ____
ROOT
ATOM      1  C   UNL     1       0.654   9.588  19.208  0.00  0.00    +0.000 A 
ATOM      2  C   UNL     1       1.114   8.573  20.042  0.00  0.00    +0.000 A 
ATOM      3  C   UNL     1       2.124   7.723  19.593  0.00  0.00    +0.000 A 
ATOM      4  C   UNL     1       2.646   7.893  18.308  0.00  0.00    +0.000 A 
ATOM      5  N   UNL     1       2.207   8.880  17.487  0.00  0.00    +0.000 NA
ATOM      6  C   UNL     1       1.232   9.699  17.950  0.00  0.00    +0.000 A 
ENDROOT
BRANCH   1   9
ATOM      7  C   UNL     1      -1.810  10.169  17.586  0.00  0.00    +0.000 C 
ATOM      8  C   UNL     1      -1.462  10.776  18.912  0.00  0.00    +0.000 A 
ATOM      9  C   UNL     1      -0.368  10.539  19.665  0.00  0.00    +0.000 A 
ATOM     10  N   UNL     1      -0.120  11.148  20.874  0.00  0.00    +0.000 N 
ATOM     11  C   UNL     1      -1.001  12.085  21.422  0.00  0.00    +0.000 A 
ATOM     12  C   UNL     1      -0.745  12.689  22.656  0.00  0.00    +0.000 A 
ATOM     13  C   UNL     1      -1.657  13.602  23.198  0.00  0.00    +0.000 A 
ATOM     14  C   UNL     1      -2.834  13.914  22.517  0.00  0.00    +0.000 A 
ATOM     15  C   UNL     1      -3.103  13.315  21.288  0.00  0.00    +0.000 A 
ATOM     16  C   UNL     1      -2.187  12.405  20.749  0.00  0.00    +0.000 A 
ATOM     17  C   UNL     1      -2.456  11.759  19.442  0.00  0.00    +0.000 A 
ATOM     18  O   UNL     1      -3.476  12.032  18.813  0.00  0.00    +0.000 OA
ATOM     19  H   UNL     1       0.763  10.968  21.337  0.00  0.00    +0.000 HD
ENDBRANCH   1   9
BRANCH   4  20
ATOM     20  C   UNL     1       3.691   7.009  17.753  0.00  0.00    +0.000 A 
ATOM     21  C   UNL     1       4.084   5.832  18.413  0.00  0.00    +0.000 A 
ATOM     22  C   UNL     1       5.062   4.988  17.879  0.00  0.00    +0.000 A 
ATOM     23  C   UNL     1       5.677   5.293  16.659  0.00  0.00    +0.000 A 
ATOM     24  C   UNL     1       5.298   6.463  15.991  0.00  0.00    +0.000 A 
ATOM     25  C   UNL     1       4.318   7.306  16.530  0.00  0.00    +0.000 A 
BRANCH  23  26
ATOM     26  C   UNL     1       6.716   4.376  16.066  0.00  0.00    +0.000 C 
ATOM     27  F   UNL     1       7.316   4.886  14.952  0.00  0.00    +0.000 F 
ATOM     28  F   UNL     1       7.726   4.099  16.936  0.00  0.00    +0.000 F 
ATOM     29  F   UNL     1       6.200   3.173  15.692  0.00  0.00    +0.000 F 
ENDBRANCH  23  26
ENDBRANCH   4  20
TORSDOF 3
ENDMDL
MODEL 8
REMARK VINA RESULT:      -8.4      5.684     10.102
REMARK  Name = 
REMARK  4 active torsions:
REMARK  status: ('A' for Active; 'I' for Inactive)
REMARK    1  A    between atoms: C_1  and  C_2
REMARK    2  A    between atoms: C_3  and  C_4
REMARK    3  A    between atoms: C_7  and  C_8
REMARK    4  A    between atoms: C_11  and  C_12
REMARK                            x       y       z     vdW  Elec       q    Type
REMARK                         _______ _______ _______ _____ _____    ______ ____
ROOT
ATOM      1  C   UNL     1       0.621   9.604  19.233  0.00  0.00    +0.000 A 
ATOM      2  C   UNL     1       1.099   8.598  20.068  0.00  0.00    +0.000 A 
ATOM      3  C   UNL     1       2.095   7.740  19.606  0.00  0.00    +0.000 A 
ATOM      4  C   UNL     1       2.588   7.892  18.307  0.00  0.00    +0.000 A 
ATOM      5  N   UNL     1       2.132   8.870  17.485  0.00  0.00    +0.000 NA
ATOM      6  C   UNL     1       1.171   9.697  17.960  0.00  0.00    +0.000 A 
ENDROOT
BRANCH   1   9
ATOM      7  C   UNL     1      -1.850  10.215  17.633  0.00  0.00    +0.000 C 
ATOM      8  C   UNL     1      -1.484  10.814  18.959  0.00  0.00    +0.000 A 
ATOM      9  C   UNL     1      -0.386  10.563  19.701  0.00  0.00    +0.000 A 
ATOM     10  N   UNL     1      -0.123  11.165  20.910  0.00  0.00    +0.000 N 
ATOM     11  C   UNL     1      -0.990  12.109  21.470  0.00  0.00    +0.000 A 
ATOM     12  C   UNL     1      -0.717  12.705  22.703  0.00  0.00    +0.000 A 
ATOM     13  C   UNL     1      -1.615  13.625  23.257  0.00  0.00    +0.000 A 
ATOM     14  C   UNL     1      -2.795  13.952  22.586  0.00  0.00    +0.000 A 
ATOM     15  C   UNL     1      -3.080  13.361  21.358  0.00  0.00    +0.000 A 
ATOM     16  C   UNL     1      -2.178  12.444  20.807  0.00  0.00    +0.000 A 
ATOM     17  C   UNL     1      -2.464  11.805  19.501  0.00  0.00    +0.000 A 
ATOM     18  O   UNL     1      -3.486  12.091  18.881  0.00  0.00    +0.000 OA
ATOM     19  H   UNL     1       0.762  10.974  21.366  0.00  0.00    +0.000 HD
ENDBRANCH   1   9
BRANCH   4  20
ATOM     20  C   UNL     1       3.617   6.998  17.739  0.00  0.00    +0.000 A 
ATOM     21  C   UNL     1       4.367   7.366  16.609  0.00  0.00    +0.000 A 
ATOM     22  C   UNL     1       5.352   6.527  16.081  0.00  0.00    +0.000 A 
ATOM     23  C   UNL     1       5.624   5.288  16.674  0.00  0.00    +0.000 A 
ATOM     24  C   UNL     1       4.883   4.905  17.799  0.00  0.00    +0.000 A 
ATOM     25  C   UNL     1       3.898   5.751  18.323  0.00  0.00    +0.000 A 
BRANCH  23  26
ATOM     26  C   UNL     1       6.700   4.387  16.124  0.00  0.00    +0.000 C 
ATOM     27  F   UNL     1       6.233   3.173  15.714  0.00  0.00    +0.000 F 
ATOM     28  F   UNL     1       7.330   4.925  15.043  0.00  0.00    +0.000 F 
ATOM     29  F   UNL     1       7.675   4.120  17.036  0.00  0.00    +0.000 F 
ENDBRANCH  23  26
ENDBRANCH   4  20
TORSDOF 3
ENDMDL
MODEL 9
REMARK VINA RESULT:      -8.4      1.136      1.467
REMARK  Name = 
REMARK  4 active torsions:
REMARK  status: ('A' for Active; 'I' for Inactive)
REMARK    1  A    between atoms: C_1  and  C_2
REMARK    2  A    between atoms: C_3  and  C_4
REMARK    3  A    between atoms: C_7  and  C_8
REMARK    4  A    between atoms: C_11  and  C_12
REMARK                            x       y       z     vdW  Elec       q    Type
REMARK                         _______ _______ _______ _____ _____    ______ ____
ROOT
ATOM      1  C   UNL     1       1.945   7.741  19.516  0.00  0.00    +0.000 A 
ATOM      2  C   UNL     1       1.581   7.669  20.857  0.00  0.00    +0.000 A 
ATOM      3  C   UNL     1       0.826   8.697  21.418  0.00  0.00    +0.000 A 
ATOM      4  C   UNL     1       0.459   9.792  20.630  0.00  0.00    +0.000 A 
ATOM      5  N   UNL     1       0.806   9.872  19.321  0.00  0.00    +0.000 NA
ATOM      6  C   UNL     1       1.532   8.855  18.796  0.00  0.00    +0.000 A 
ENDROOT
BRANCH   1   9
ATOM      7  C   UNL     1       1.673   4.884  20.415  0.00  0.00    +0.000 C 
ATOM      8  C   UNL     1       2.546   5.381  19.301  0.00  0.00    +0.000 A 
ATOM      9  C   UNL     1       2.691   6.652  18.873  0.00  0.00    +0.000 A 
ATOM     10  N   UNL     1       3.524   7.025  17.843  0.00  0.00    +0.000 N 
ATOM     11  C   UNL     1       4.304   6.094  17.151  0.00  0.00    +0.000 A 
ATOM     12  C   UNL     1       5.138   6.482  16.099  0.00  0.00    +0.000 A 
ATOM     13  C   UNL     1       5.887   5.528  15.402  0.00  0.00    +0.000 A 
ATOM     14  C   UNL     1       5.805   4.178  15.745  0.00  0.00    +0.000 A 
ATOM     15  C   UNL     1       4.975   3.777  16.789  0.00  0.00    +0.000 A 
ATOM     16  C   UNL     1       4.230   4.735  17.485  0.00  0.00    +0.000 A 
ATOM     17  C   UNL     1       3.341   4.328  18.598  0.00  0.00    +0.000 A 
ATOM     18  O   UNL     1       3.267   3.148  18.933  0.00  0.00    +0.000 OA
ATOM     19  H   UNL     1       3.630   8.011  17.636  0.00  0.00    +0.000 HD
ENDBRANCH   1   9
BRANCH   4  20
ATOM     20  C   UNL     1      -0.309  10.933  21.166  0.00  0.00    +0.000 A 
ATOM     21  C   UNL     1      -0.820  11.935  20.323  0.00  0.00    +0.000 A 
ATOM     22  C   UNL     1      -1.561  13.006  20.828  0.00  0.00    +0.000 A 
ATOM     23  C   UNL     1      -1.822  13.108  22.200  0.00  0.00    +0.000 A 
ATOM     24  C   UNL     1      -1.317  12.119  23.054  0.00  0.00    +0.000 A 
ATOM     25  C   UNL     1      -0.575  11.047  22.541  0.00  0.00    +0.000 A 
BRANCH  23  26
ATOM     26  C   UNL     1      -2.639  14.248  22.750  0.00  0.00    +0.000 C 
ATOM     27  F   UNL     1      -3.084  14.032  24.021  0.00  0.00    +0.000 F 
ATOM     28  F   UNL     1      -1.941  15.417  22.797  0.00  0.00    +0.000 F 
ATOM     29  F   UNL     1      -3.751  14.502  22.007  0.00  0.00    +0.000 F 
ENDBRANCH  23  26
ENDBRANCH   4  20
TORSDOF 3
ENDMDL
