MODEL 1
REMARK VINA RESULT:      -6.8      0.000      0.000
REMARK  Name = 
REMARK  9 active torsions:
REMARK  status: ('A' for Active; 'I' for Inactive)
REMARK    1  A    between atoms: C_1  and  C_2
REMARK    2  A    between atoms: C_2  and  C_3
REMARK    3  A    between atoms: C_3  and  C_4
REMARK    4  A    between atoms: C_4  and  O_5
REMARK    5  A    between atoms: O_5  and  C_6
REMARK    6  A    between atoms: C_7  and  O_8
REMARK    7  A    between atoms: C_20  and  O_21
REMARK    8  A    between atoms: O_21  and  C_22
REMARK    9  A    between atoms: C_23  and  O_24
REMARK                            x       y       z     vdW  Elec       q    Type
REMARK                         _______ _______ _______ _____ _____    ______ ____
ROOT
ATOM      1  C   UNL     1       3.587   3.871  17.557  0.00  0.00    +0.000 A 
ATOM      2  C   UNL     1       3.674   2.631  18.202  0.00  0.00    +0.000 A 
ATOM      3  C   UNL     1       3.219   2.457  19.504  0.00  0.00    +0.000 A 
ATOM      4  C   UNL     1       2.713   3.541  20.213  0.00  0.00    +0.000 A 
ATOM      5 BR   UNL     1       2.193   3.218  22.013  0.00  0.00    +0.000 Br
ATOM      6  C   UNL     1       2.628   4.805  19.611  0.00  0.00    +0.000 A 
ATOM      7  C   UNL     1       3.080   4.980  18.280  0.00  0.00    +0.000 A 
ATOM      8  C   UNL     1       2.977   6.340  17.606  0.00  0.00    +0.000 C 
ATOM      9  N   UNL     1       2.631   7.456  18.502  0.00  0.00    +0.000 NA
ATOM     10  C   UNL     1       2.288   8.664  17.748  0.00  0.00    +0.000 C 
ATOM     11  C   UNL     1       2.282   9.858  18.710  0.00  0.00    +0.000 C 
ATOM     12  C   UNL     1       1.396   9.613  19.905  0.00  0.00    +0.000 A 
ATOM     13  C   UNL     1       0.983  10.707  20.688  0.00  0.00    +0.000 A 
ATOM     14  C   UNL     1       0.175  10.509  21.805  0.00  0.00    +0.000 A 
ATOM     15  C   UNL     1      -0.229   9.209  22.114  0.00  0.00    +0.000 A 
ATOM     16  C   UNL     1       0.176   8.118  21.352  0.00  0.00    +0.000 A 
ATOM     17  C   UNL     1       1.039   8.297  20.259  0.00  0.00    +0.000 A 
ATOM     18  C   UNL     1       1.547   7.101  19.442  0.00  0.00    +0.000 C 
ATOM     19  C   UNL     1       2.118   6.011  20.371  0.00  0.00    +0.000 C 
ENDROOT
BRANCH   2  20
ATOM     20  O   UNL     1       4.256   1.524  17.651  0.00  0.00    +0.000 OA
ATOM     21  H   UNL     1       5.211   1.689  17.667  0.00  0.00    +0.000 HD
ENDBRANCH   2  20
BRANCH  14  22
ATOM     22  O   UNL     1      -0.279  11.482  22.658  0.00  0.00    +0.000 OA
ATOM     23  C   UNL     1      -0.394  12.792  22.111  0.00  0.00    +0.000 C 
ENDBRANCH  14  22
BRANCH  15  24
ATOM     24  O   UNL     1      -1.034   8.976  23.196  0.00  0.00    +0.000 OA
ATOM     25  H   UNL     1      -1.740   8.387  22.863  0.00  0.00    +0.000 HD
ENDBRANCH  15  24
BRANCH   1  26
ATOM     26  O   UNL     1       3.971   4.130  16.261  0.00  0.00    +0.000 OA
BRANCH  26  27
ATOM     27  C   UNL     1       5.362   4.014  15.949  0.00  0.00    +0.000 C 
BRANCH  27  28
ATOM     28  C   UNL     1       5.950   5.392  15.650  0.00  0.00    +0.000 C 
BRANCH  28  30
ATOM     29  C   UNL     1       7.422   4.702  17.589  0.00  0.00    +0.000 C 
ATOM     30  C   UNL     1       6.813   5.861  16.822  0.00  0.00    +0.000 C 
ENDBRANCH  28  30
ENDBRANCH  27  28
ENDBRANCH  26  27
ENDBRANCH   1  26
TORSDOF 7
ENDMDL
MODEL 2
REMARK VINA RESULT:      -6.6      0.891      1.298
REMARK  Name = 
REMARK  9 active torsions:
REMARK  status: ('A' for Active; 'I' for Inactive)
REMARK    1  A    between atoms: C_1  and  C_2
REMARK    2  A    between atoms: C_2  and  C_3
REMARK    3  A    between atoms: C_3  and  C_4
REMARK    4  A    between atoms: C_4  and  O_5
REMARK    5  A    between atoms: O_5  and  C_6
REMARK    6  A    between atoms: C_7  and  O_8
REMARK    7  A    between atoms: C_20  and  O_21
REMARK    8  A    between atoms: O_21  and  C_22
REMARK    9  A    between atoms: C_23  and  O_24
REMARK                            x       y       z     vdW  Elec       q    Type
REMARK                         _______ _______ _______ _____ _____    ______ ____
ROOT
ATOM      1  C   UNL     1       3.590   4.004  17.547  0.00  0.00    +0.000 A 
ATOM      2  C   UNL     1       3.682   2.760  18.182  0.00  0.00    +0.000 A 
ATOM      3  C   UNL     1       3.229   2.574  19.483  0.00  0.00    +0.000 A 
ATOM      4  C   UNL     1       2.720   3.650  20.202  0.00  0.00    +0.000 A 
ATOM      5 BR   UNL     1       2.204   3.310  21.999  0.00  0.00    +0.000 Br
ATOM      6  C   UNL     1       2.630   4.919  19.610  0.00  0.00    +0.000 A 
ATOM      7  C   UNL     1       3.080   5.106  18.280  0.00  0.00    +0.000 A 
ATOM      8  C   UNL     1       2.972   6.471  17.617  0.00  0.00    +0.000 C 
ATOM      9  N   UNL     1       2.623   7.579  18.522  0.00  0.00    +0.000 NA
ATOM     10  C   UNL     1       2.274   8.791  17.779  0.00  0.00    +0.000 C 
ATOM     11  C   UNL     1       2.265   9.978  18.750  0.00  0.00    +0.000 C 
ATOM     12  C   UNL     1       1.382   9.720  19.944  0.00  0.00    +0.000 A 
ATOM     13  C   UNL     1       0.966  10.806  20.736  0.00  0.00    +0.000 A 
ATOM     14  C   UNL     1       0.160  10.596  21.853  0.00  0.00    +0.000 A 
ATOM     15  C   UNL     1      -0.239   9.292  22.151  0.00  0.00    +0.000 A 
ATOM     16  C   UNL     1       0.169   8.208  21.380  0.00  0.00    +0.000 A 
ATOM     17  C   UNL     1       1.030   8.399  20.287  0.00  0.00    +0.000 A 
ATOM     18  C   UNL     1       1.541   7.212  19.461  0.00  0.00    +0.000 C 
ATOM     19  C   UNL     1       2.117   6.116  20.380  0.00  0.00    +0.000 C 
ENDROOT
BRANCH   2  20
ATOM     20  O   UNL     1       4.267   1.659  17.621  0.00  0.00    +0.000 OA
ATOM     21  H   UNL     1       3.970   0.901  18.148  0.00  0.00    +0.000 HD
ENDBRANCH   2  20
BRANCH  14  22
ATOM     22  O   UNL     1      -0.296  11.560  22.714  0.00  0.00    +0.000 OA
ATOM     23  C   UNL     1      -1.281  12.449  22.196  0.00  0.00    +0.000 C 
ENDBRANCH  14  22
BRANCH  15  24
ATOM     24  O   UNL     1      -1.042   9.048  23.233  0.00  0.00    +0.000 OA
ATOM     25  H   UNL     1      -1.920   8.844  22.853  0.00  0.00    +0.000 HD
ENDBRANCH  15  24
BRANCH   1  26
ATOM     26  O   UNL     1       3.971   4.275  16.253  0.00  0.00    +0.000 OA
BRANCH  26  27
ATOM     27  C   UNL     1       5.361   4.514  16.009  0.00  0.00    +0.000 C 
BRANCH  27  28
ATOM     28  C   UNL     1       5.592   4.808  14.529  0.00  0.00    +0.000 C 
BRANCH  28  30
ATOM     29  C   UNL     1       6.138   3.614  12.366  0.00  0.00    +0.000 C 
ATOM     30  C   UNL     1       6.335   3.645  13.870  0.00  0.00    +0.000 C 
ENDBRANCH  28  30
ENDBRANCH  27  28
ENDBRANCH  26  27
ENDBRANCH   1  26
TORSDOF 7
ENDMDL
MODEL 3
REMARK VINA RESULT:      -6.5      2.740      4.357
REMARK  Name = 
REMARK  9 active torsions:
REMARK  status: ('A' for Active; 'I' for Inactive)
REMARK    1  A    between atoms: C_1  and  C_2
REMARK    2  A    between atoms: C_2  and  C_3
REMARK    3  A    between atoms: C_3  and  C_4
REMARK    4  A    between atoms: C_4  and  O_5
REMARK    5  A    between atoms: O_5  and  C_6
REMARK    6  A    between atoms: C_7  and  O_8
REMARK    7  A    between atoms: C_20  and  O_21
REMARK    8  A    between atoms: O_21  and  C_22
REMARK    9  A    between atoms: C_23  and  O_24
REMARK                            x       y       z     vdW  Elec       q    Type
REMARK                         _______ _______ _______ _____ _____    ______ ____
ROOT
ATOM      1  C   UNL     1       3.414   4.483  20.088  0.00  0.00    +0.000 A 
ATOM      2  C   UNL     1       4.358   3.963  19.194  0.00  0.00    +0.000 A 
ATOM      3  C   UNL     1       4.788   4.690  18.091  0.00  0.00    +0.000 A 
ATOM      4  C   UNL     1       4.239   5.939  17.824  0.00  0.00    +0.000 A 
ATOM      5 BR   UNL     1       4.834   6.817  16.246  0.00  0.00    +0.000 Br
ATOM      6  C   UNL     1       3.275   6.487  18.684  0.00  0.00    +0.000 A 
ATOM      7  C   UNL     1       2.845   5.753  19.816  0.00  0.00    +0.000 A 
ATOM      8  C   UNL     1       1.815   6.341  20.768  0.00  0.00    +0.000 C 
ATOM      9  N   UNL     1       1.146   7.561  20.287  0.00  0.00    +0.000 NA
ATOM     10  C   UNL     1       0.381   8.211  21.354  0.00  0.00    +0.000 C 
ATOM     11  C   UNL     1      -0.555   9.250  20.725  0.00  0.00    +0.000 C 
ATOM     12  C   UNL     1       0.191  10.212  19.837  0.00  0.00    +0.000 A 
ATOM     13  C   UNL     1      -0.421  11.427  19.477  0.00  0.00    +0.000 A 
ATOM     14  C   UNL     1       0.238  12.330  18.647  0.00  0.00    +0.000 A 
ATOM     15  C   UNL     1       1.522  12.012  18.202  0.00  0.00    +0.000 A 
ATOM     16  C   UNL     1       2.138  10.812  18.546  0.00  0.00    +0.000 A 
ATOM     17  C   UNL     1       1.460   9.867  19.332  0.00  0.00    +0.000 A 
ATOM     18  C   UNL     1       2.096   8.512  19.672  0.00  0.00    +0.000 C 
ATOM     19  C   UNL     1       2.632   7.828  18.399  0.00  0.00    +0.000 C 
ENDROOT
BRANCH   2  20
ATOM     20  O   UNL     1       4.882   2.704  19.285  0.00  0.00    +0.000 OA
ATOM     21  H   UNL     1       5.792   2.816  19.600  0.00  0.00    +0.000 HD
ENDBRANCH   2  20
BRANCH  14  22
ATOM     22  O   UNL     1      -0.252  13.533  18.208  0.00  0.00    +0.000 OA
ATOM     23  C   UNL     1      -0.399  14.549  19.196  0.00  0.00    +0.000 C 
ENDBRANCH  14  22
BRANCH  15  24
ATOM     24  O   UNL     1       2.208  12.880  17.395  0.00  0.00    +0.000 OA
ATOM     25  H   UNL     1       3.117  12.892  17.755  0.00  0.00    +0.000 HD
ENDBRANCH  15  24
BRANCH   1  26
ATOM     26  O   UNL     1       2.959   3.859  21.228  0.00  0.00    +0.000 OA
BRANCH  26  27
ATOM     27  C   UNL     1       2.250   2.627  21.068  0.00  0.00    +0.000 C 
BRANCH  27  28
ATOM     28  C   UNL     1       0.878   2.888  20.448  0.00  0.00    +0.000 C 
BRANCH  28  30
ATOM     29  C   UNL     1       1.083   3.295  17.959  0.00  0.00    +0.000 C 
ATOM     30  C   UNL     1       0.808   2.275  19.048  0.00  0.00    +0.000 C 
ENDBRANCH  28  30
ENDBRANCH  27  28
ENDBRANCH  26  27
ENDBRANCH   1  26
TORSDOF 7
ENDMDL
MODEL 4
REMARK VINA RESULT:      -6.0      9.165     10.906
REMARK  Name = 
REMARK  9 active torsions:
REMARK  status: ('A' for Active; 'I' for Inactive)
REMARK    1  A    between atoms: C_1  and  C_2
REMARK    2  A    between atoms: C_2  and  C_3
REMARK    3  A    between atoms: C_3  and  C_4
REMARK    4  A    between atoms: C_4  and  O_5
REMARK    5  A    between atoms: O_5  and  C_6
REMARK    6  A    between atoms: C_7  and  O_8
REMARK    7  A    between atoms: C_20  and  O_21
REMARK    8  A    between atoms: O_21  and  C_22
REMARK    9  A    between atoms: C_23  and  O_24
REMARK                            x       y       z     vdW  Elec       q    Type
REMARK                         _______ _______ _______ _____ _____    ______ ____
ROOT
ATOM      1  C   UNL     1      10.579  14.457  18.335  0.00  0.00    +0.000 A 
ATOM      2  C   UNL     1      10.648  13.465  17.349  0.00  0.00    +0.000 A 
ATOM      3  C   UNL     1      10.189  12.175  17.586  0.00  0.00    +0.000 A 
ATOM      4  C   UNL     1       9.699  11.831  18.840  0.00  0.00    +0.000 A 
ATOM      5 BR   UNL     1       9.173  10.021  19.086  0.00  0.00    +0.000 Br
ATOM      6  C   UNL     1       9.632  12.789  19.863  0.00  0.00    +0.000 A 
ATOM      7  C   UNL     1      10.087  14.108  19.619  0.00  0.00    +0.000 A 
ATOM      8  C   UNL     1      10.005  15.164  20.711  0.00  0.00    +0.000 C 
ATOM      9  N   UNL     1       9.674  14.652  22.051  0.00  0.00    +0.000 NA
ATOM     10  C   UNL     1       9.348  15.738  22.977  0.00  0.00    +0.000 C 
ATOM     11  C   UNL     1       9.358  15.185  24.407  0.00  0.00    +0.000 C 
ATOM     12  C   UNL     1       8.468  13.977  24.548  0.00  0.00    +0.000 A 
ATOM     13  C   UNL     1       8.070  13.565  25.834  0.00  0.00    +0.000 A 
ATOM     14  C   UNL     1       7.259  12.445  25.996  0.00  0.00    +0.000 A 
ATOM     15  C   UNL     1       6.836  11.758  24.857  0.00  0.00    +0.000 A 
ATOM     16  C   UNL     1       7.226  12.150  23.580  0.00  0.00    +0.000 A 
ATOM     17  C   UNL     1       8.092  13.242  23.407  0.00  0.00    +0.000 A 
ATOM     18  C   UNL     1       8.583  13.653  22.012  0.00  0.00    +0.000 C 
ATOM     19  C   UNL     1       9.138  12.434  21.249  0.00  0.00    +0.000 C 
ENDROOT
BRANCH   2  20
ATOM     20  O   UNL     1      11.214  13.651  16.119  0.00  0.00    +0.000 OA
ATOM     21  H   UNL     1      12.134  13.908  16.285  0.00  0.00    +0.000 HD
ENDBRANCH   2  20
BRANCH  14  22
ATOM     22  O   UNL     1       6.818  11.931  27.188  0.00  0.00    +0.000 OA
ATOM     23  C   UNL     1       5.758  12.638  27.823  0.00  0.00    +0.000 C 
ENDBRANCH  14  22
BRANCH  15  24
ATOM     24  O   UNL     1       6.027  10.660  24.975  0.00  0.00    +0.000 OA
ATOM     25  H   UNL     1       5.979  10.285  24.073  0.00  0.00    +0.000 HD
ENDBRANCH  15  24
BRANCH   1  26
ATOM     26  O   UNL     1      10.967  15.769  18.183  0.00  0.00    +0.000 OA
BRANCH  26  27
ATOM     27  C   UNL     1      10.116  16.625  17.415  0.00  0.00    +0.000 C 
BRANCH  27  28
ATOM     28  C   UNL     1       9.814  17.903  18.196  0.00  0.00    +0.000 C 
BRANCH  28  30
ATOM     29  C   UNL     1       7.633  16.629  18.339  0.00  0.00    +0.000 C 
ATOM     30  C   UNL     1       8.332  17.957  18.564  0.00  0.00    +0.000 C 
ENDBRANCH  28  30
ENDBRANCH  27  28
ENDBRANCH  26  27
ENDBRANCH   1  26
TORSDOF 7
ENDMDL
MODEL 5
REMARK VINA RESULT:      -6.0      3.073      7.878
REMARK  Name = 
REMARK  9 active torsions:
REMARK  status: ('A' for Active; 'I' for Inactive)
REMARK    1  A    between atoms: C_1  and  C_2
REMARK    2  A    between atoms: C_2  and  C_3
REMARK    3  A    between atoms: C_3  and  C_4
REMARK    4  A    between atoms: C_4  and  O_5
REMARK    5  A    between atoms: O_5  and  C_6
REMARK    6  A    between atoms: C_7  and  O_8
REMARK    7  A    between atoms: C_20  and  O_21
REMARK    8  A    between atoms: O_21  and  C_22
REMARK    9  A    between atoms: C_23  and  O_24
REMARK                            x       y       z     vdW  Elec       q    Type
REMARK                         _______ _______ _______ _____ _____    ______ ____
ROOT
ATOM      1  C   UNL     1       0.981  12.093  19.573  0.00  0.00    +0.000 A 
ATOM      2  C   UNL     1       0.293  12.679  20.643  0.00  0.00    +0.000 A 
ATOM      3  C   UNL     1      -0.151  11.922  21.721  0.00  0.00    +0.000 A 
ATOM      4  C   UNL     1       0.036  10.545  21.727  0.00  0.00    +0.000 A 
ATOM      5 BR   UNL     1      -0.680   9.589  23.206  0.00  0.00    +0.000 Br
ATOM      6  C   UNL     1       0.702   9.916  20.664  0.00  0.00    +0.000 A 
ATOM      7  C   UNL     1       1.166  10.688  19.571  0.00  0.00    +0.000 A 
ATOM      8  C   UNL     1       1.907  10.024  18.420  0.00  0.00    +0.000 C 
ATOM      9  N   UNL     1       1.866   8.552  18.418  0.00  0.00    +0.000 NA
ATOM     10  C   UNL     1       2.813   7.989  17.454  0.00  0.00    +0.000 C 
ATOM     11  C   UNL     1       2.482   6.506  17.247  0.00  0.00    +0.000 C 
ATOM     12  C   UNL     1       2.424   5.756  18.553  0.00  0.00    +0.000 A 
ATOM     13  C   UNL     1       2.498   4.351  18.541  0.00  0.00    +0.000 A 
ATOM     14  C   UNL     1       2.435   3.631  19.731  0.00  0.00    +0.000 A 
ATOM     15  C   UNL     1       2.319   4.335  20.931  0.00  0.00    +0.000 A 
ATOM     16  C   UNL     1       2.239   5.724  20.958  0.00  0.00    +0.000 A 
ATOM     17  C   UNL     1       2.242   6.458  19.761  0.00  0.00    +0.000 A 
ATOM     18  C   UNL     1       2.094   7.986  19.765  0.00  0.00    +0.000 C 
ATOM     19  C   UNL     1       0.887   8.414  20.625  0.00  0.00    +0.000 C 
ENDROOT
BRANCH   2  20
ATOM     20  O   UNL     1      -0.052  14.001  20.696  0.00  0.00    +0.000 OA
ATOM     21  H   UNL     1       0.657  14.442  21.188  0.00  0.00    +0.000 HD
ENDBRANCH   2  20
BRANCH  14  22
ATOM     22  O   UNL     1       2.476   2.266  19.855  0.00  0.00    +0.000 OA
ATOM     23  C   UNL     1       3.240   1.570  18.875  0.00  0.00    +0.000 C 
ENDBRANCH  14  22
BRANCH  15  24
ATOM     24  O   UNL     1       2.266   3.663  22.122  0.00  0.00    +0.000 OA
ATOM     25  H   UNL     1       1.320   3.451  22.250  0.00  0.00    +0.000 HD
ENDBRANCH  15  24
BRANCH   1  26
ATOM     26  O   UNL     1       1.494  12.764  18.486  0.00  0.00    +0.000 OA
BRANCH  26  27
ATOM     27  C   UNL     1       2.748  13.432  18.654  0.00  0.00    +0.000 C 
BRANCH  27  28
ATOM     28  C   UNL     1       2.540  14.945  18.657  0.00  0.00    +0.000 C 
BRANCH  28  30
ATOM     29  C   UNL     1       2.969  16.862  17.061  0.00  0.00    +0.000 C 
ATOM     30  C   UNL     1       3.539  15.615  17.712  0.00  0.00    +0.000 C 
ENDBRANCH  28  30
ENDBRANCH  27  28
ENDBRANCH  26  27
ENDBRANCH   1  26
TORSDOF 7
ENDMDL
MODEL 6
REMARK VINA RESULT:      -6.0      1.099      1.340
REMARK  Name = 
REMARK  9 active torsions:
REMARK  status: ('A' for Active; 'I' for Inactive)
REMARK    1  A    between atoms: C_1  and  C_2
REMARK    2  A    between atoms: C_2  and  C_3
REMARK    3  A    between atoms: C_3  and  C_4
REMARK    4  A    between atoms: C_4  and  O_5
REMARK    5  A    between atoms: O_5  and  C_6
REMARK    6  A    between atoms: C_7  and  O_8
REMARK    7  A    between atoms: C_20  and  O_21
REMARK    8  A    between atoms: O_21  and  C_22
REMARK    9  A    between atoms: C_23  and  O_24
REMARK                            x       y       z     vdW  Elec       q    Type
REMARK                         _______ _______ _______ _____ _____    ______ ____
ROOT
ATOM      1  C   UNL     1       3.774   5.463  17.362  0.00  0.00    +0.000 A 
ATOM      2  C   UNL     1       3.972   4.177  17.878  0.00  0.00    +0.000 A 
ATOM      3  C   UNL     1       3.518   3.826  19.144  0.00  0.00    +0.000 A 
ATOM      4  C   UNL     1       2.899   4.776  19.949  0.00  0.00    +0.000 A 
ATOM      5 BR   UNL     1       2.388   4.219  21.693  0.00  0.00    +0.000 Br
ATOM      6  C   UNL     1       2.700   6.082  19.477  0.00  0.00    +0.000 A 
ATOM      7  C   UNL     1       3.151   6.438  18.183  0.00  0.00    +0.000 A 
ATOM      8  C   UNL     1       2.926   7.845  17.649  0.00  0.00    +0.000 C 
ATOM      9  N   UNL     1       2.461   8.823  18.646  0.00  0.00    +0.000 NA
ATOM     10  C   UNL     1       2.012  10.064  18.013  0.00  0.00    +0.000 C 
ATOM     11  C   UNL     1       1.876  11.146  19.091  0.00  0.00    +0.000 C 
ATOM     12  C   UNL     1       1.002  10.694  20.233  0.00  0.00    +0.000 A 
ATOM     13  C   UNL     1       0.473  11.655  21.114  0.00  0.00    +0.000 A 
ATOM     14  C   UNL     1      -0.327  11.266  22.185  0.00  0.00    +0.000 A 
ATOM     15  C   UNL     1      -0.607   9.909  22.349  0.00  0.00    +0.000 A 
ATOM     16  C   UNL     1      -0.087   8.946  21.489  0.00  0.00    +0.000 A 
ATOM     17  C   UNL     1       0.770   9.320  20.441  0.00  0.00    +0.000 A 
ATOM     18  C   UNL     1       1.403   8.269  19.519  0.00  0.00    +0.000 C 
ATOM     19  C   UNL     1       2.064   7.148  20.344  0.00  0.00    +0.000 C 
ENDROOT
BRANCH   2  20
ATOM     20  O   UNL     1       4.667   3.194  17.230  0.00  0.00    +0.000 OA
ATOM     21  H   UNL     1       5.530   3.145  17.668  0.00  0.00    +0.000 HD
ENDBRANCH   2  20
BRANCH  14  22
ATOM     22  O   UNL     1      -0.886  12.097  23.122  0.00  0.00    +0.000 OA
ATOM     23  C   UNL     1      -1.136  13.435  22.705  0.00  0.00    +0.000 C 
ENDBRANCH  14  22
BRANCH  15  24
ATOM     24  O   UNL     1      -1.401   9.488  23.383  0.00  0.00    +0.000 OA
ATOM     25  H   UNL     1      -2.166   9.056  22.953  0.00  0.00    +0.000 HD
ENDBRANCH  15  24
BRANCH   1  26
ATOM     26  O   UNL     1       4.149   5.892  16.109  0.00  0.00    +0.000 OA
BRANCH  26  27
ATOM     27  C   UNL     1       5.538   6.151  15.888  0.00  0.00    +0.000 C 
BRANCH  27  28
ATOM     28  C   UNL     1       6.092   5.186  14.841  0.00  0.00    +0.000 C 
BRANCH  28  30
ATOM     29  C   UNL     1       7.506   4.657  16.872  0.00  0.00    +0.000 C 
ATOM     30  C   UNL     1       7.355   4.505  15.369  0.00  0.00    +0.000 C 
ENDBRANCH  28  30
ENDBRANCH  27  28
ENDBRANCH  26  27
ENDBRANCH   1  26
TORSDOF 7
ENDMDL
MODEL 7
REMARK VINA RESULT:      -5.9      4.095     10.530
REMARK  Name = 
REMARK  9 active torsions:
REMARK  status: ('A' for Active; 'I' for Inactive)
REMARK    1  A    between atoms: C_1  and  C_2
REMARK    2  A    between atoms: C_2  and  C_3
REMARK    3  A    between atoms: C_3  and  C_4
REMARK    4  A    between atoms: C_4  and  O_5
REMARK    5  A    between atoms: O_5  and  C_6
REMARK    6  A    between atoms: C_7  and  O_8
REMARK    7  A    between atoms: C_20  and  O_21
REMARK    8  A    between atoms: O_21  and  C_22
REMARK    9  A    between atoms: C_23  and  O_24
REMARK                            x       y       z     vdW  Elec       q    Type
REMARK                         _______ _______ _______ _____ _____    ______ ____
ROOT
ATOM      1  C   UNL     1      -1.074  15.377  22.312  0.00  0.00    +0.000 A 
ATOM      2  C   UNL     1      -0.684  16.541  21.639  0.00  0.00    +0.000 A 
ATOM      3  C   UNL     1       0.171  16.495  20.545  0.00  0.00    +0.000 A 
ATOM      4  C   UNL     1       0.703  15.279  20.130  0.00  0.00    +0.000 A 
ATOM      5 BR   UNL     1       1.927  15.331  18.676  0.00  0.00    +0.000 Br
ATOM      6  C   UNL     1       0.354  14.091  20.790  0.00  0.00    +0.000 A 
ATOM      7  C   UNL     1      -0.528  14.136  21.897  0.00  0.00    +0.000 A 
ATOM      8  C   UNL     1      -0.931  12.854  22.611  0.00  0.00    +0.000 C 
ATOM      9  N   UNL     1      -0.156  11.660  22.235  0.00  0.00    +0.000 NA
ATOM     10  C   UNL     1      -0.772  10.436  22.751  0.00  0.00    +0.000 C 
ATOM     11  C   UNL     1       0.241   9.290  22.635  0.00  0.00    +0.000 C 
ATOM     12  C   UNL     1       0.780   9.157  21.234  0.00  0.00    +0.000 A 
ATOM     13  C   UNL     1       1.422   7.963  20.857  0.00  0.00    +0.000 A 
ATOM     14  C   UNL     1       1.942   7.816  19.573  0.00  0.00    +0.000 A 
ATOM     15  C   UNL     1       1.791   8.869  18.669  0.00  0.00    +0.000 A 
ATOM     16  C   UNL     1       1.164  10.058  19.030  0.00  0.00    +0.000 A 
ATOM     17  C   UNL     1       0.689  10.241  20.338  0.00  0.00    +0.000 A 
ATOM     18  C   UNL     1       0.049  11.566  20.774  0.00  0.00    +0.000 C 
ATOM     19  C   UNL     1       0.946  12.758  20.384  0.00  0.00    +0.000 C 
ENDROOT
BRANCH   2  20
ATOM     20  O   UNL     1      -1.047  17.802  22.024  0.00  0.00    +0.000 OA
ATOM     21  H   UNL     1      -0.539  17.992  22.828  0.00  0.00    +0.000 HD
ENDBRANCH   2  20
BRANCH  14  22
ATOM     22  O   UNL     1       2.603   6.718  19.088  0.00  0.00    +0.000 OA
ATOM     23  C   UNL     1       2.258   5.467  19.677  0.00  0.00    +0.000 C 
ENDBRANCH  14  22
BRANCH  15  24
ATOM     24  O   UNL     1       2.277   8.758  17.394  0.00  0.00    +0.000 OA
ATOM     25  H   UNL     1       1.506   8.922  16.816  0.00  0.00    +0.000 HD
ENDBRANCH  15  24
BRANCH   1  26
ATOM     26  O   UNL     1      -1.947  15.318  23.375  0.00  0.00    +0.000 OA
BRANCH  26  27
ATOM     27  C   UNL     1      -3.314  15.656  23.126  0.00  0.00    +0.000 C 
BRANCH  27  28
ATOM     28  C   UNL     1      -4.221  14.955  24.136  0.00  0.00    +0.000 C 
BRANCH  28  30
ATOM     29  C   UNL     1      -4.216  12.461  24.568  0.00  0.00    +0.000 C 
ATOM     30  C   UNL     1      -4.619  13.573  23.616  0.00  0.00    +0.000 C 
ENDBRANCH  28  30
ENDBRANCH  27  28
ENDBRANCH  26  27
ENDBRANCH   1  26
TORSDOF 7
ENDMDL
MODEL 8
REMARK VINA RESULT:      -5.7      4.212     10.772
REMARK  Name = 
REMARK  9 active torsions:
REMARK  status: ('A' for Active; 'I' for Inactive)
REMARK    1  A    between atoms: C_1  and  C_2
REMARK    2  A    between atoms: C_2  and  C_3
REMARK    3  A    between atoms: C_3  and  C_4
REMARK    4  A    between atoms: C_4  and  O_5
REMARK    5  A    between atoms: O_5  and  C_6
REMARK    6  A    between atoms: C_7  and  O_8
REMARK    7  A    between atoms: C_20  and  O_21
REMARK    8  A    between atoms: O_21  and  C_22
REMARK    9  A    between atoms: C_23  and  O_24
REMARK                            x       y       z     vdW  Elec       q    Type
REMARK                         _______ _______ _______ _____ _____    ______ ____
ROOT
ATOM      1  C   UNL     1      -1.906  15.054  23.165  0.00  0.00    +0.000 A 
ATOM      2  C   UNL     1      -1.759  16.318  22.580  0.00  0.00    +0.000 A 
ATOM      3  C   UNL     1      -1.023  16.497  21.415  0.00  0.00    +0.000 A 
ATOM      4  C   UNL     1      -0.368  15.417  20.834  0.00  0.00    +0.000 A 
ATOM      5 BR   UNL     1       0.679  15.781  19.290  0.00  0.00    +0.000 Br
ATOM      6  C   UNL     1      -0.473  14.137  21.400  0.00  0.00    +0.000 A 
ATOM      7  C   UNL     1      -1.233  13.951  22.580  0.00  0.00    +0.000 A 
ATOM      8  C   UNL     1      -1.372  12.567  23.195  0.00  0.00    +0.000 C 
ATOM      9  N   UNL     1      -0.477  11.542  22.633  0.00  0.00    +0.000 NA
ATOM     10  C   UNL     1      -0.854  10.198  23.076  0.00  0.00    +0.000 C 
ATOM     11  C   UNL     1       0.295   9.234  22.756  0.00  0.00    +0.000 C 
ATOM     12  C   UNL     1       0.700   9.307  21.306  0.00  0.00    +0.000 A 
ATOM     13  C   UNL     1       1.464   8.261  20.754  0.00  0.00    +0.000 A 
ATOM     14  C   UNL     1       1.864   8.307  19.421  0.00  0.00    +0.000 A 
ATOM     15  C   UNL     1       1.472   9.399  18.645  0.00  0.00    +0.000 A 
ATOM     16  C   UNL     1       0.721  10.442  19.178  0.00  0.00    +0.000 A 
ATOM     17  C   UNL     1       0.363  10.437  20.535  0.00  0.00    +0.000 A 
ATOM     18  C   UNL     1      -0.412  11.606  21.157  0.00  0.00    +0.000 C 
ATOM     19  C   UNL     1       0.259  12.950  20.811  0.00  0.00    +0.000 C 
ENDROOT
BRANCH   2  20
ATOM     20  O   UNL     1      -2.257  17.471  23.121  0.00  0.00    +0.000 OA
ATOM     21  H   UNL     1      -2.888  17.819  22.472  0.00  0.00    +0.000 HD
ENDBRANCH   2  20
BRANCH  14  22
ATOM     22  O   UNL     1       2.622   7.368  18.771  0.00  0.00    +0.000 OA
ATOM     23  C   UNL     1       2.117   6.036  18.782  0.00  0.00    +0.000 C 
ENDBRANCH  14  22
BRANCH  15  24
ATOM     24  O   UNL     1       1.835   9.473  17.327  0.00  0.00    +0.000 OA
ATOM     25  H   UNL     1       2.340  10.307  17.252  0.00  0.00    +0.000 HD
ENDBRANCH  15  24
BRANCH   1  26
ATOM     26  O   UNL     1      -2.647  14.771  24.290  0.00  0.00    +0.000 OA
BRANCH  26  27
ATOM     27  C   UNL     1      -4.068  14.906  24.196  0.00  0.00    +0.000 C 
BRANCH  27  28
ATOM     28  C   UNL     1      -4.559  14.374  22.851  0.00  0.00    +0.000 C 
BRANCH  28  30
ATOM     29  C   UNL     1      -6.304  13.011  24.077  0.00  0.00    +0.000 C 
ATOM     30  C   UNL     1      -5.202  12.998  23.033  0.00  0.00    +0.000 C 
ENDBRANCH  28  30
ENDBRANCH  27  28
ENDBRANCH  26  27
ENDBRANCH   1  26
TORSDOF 7
ENDMDL
MODEL 9
REMARK VINA RESULT:      -5.7      3.420      9.658
REMARK  Name = 
REMARK  9 active torsions:
REMARK  status: ('A' for Active; 'I' for Inactive)
REMARK    1  A    between atoms: C_1  and  C_2
REMARK    2  A    between atoms: C_2  and  C_3
REMARK    3  A    between atoms: C_3  and  C_4
REMARK    4  A    between atoms: C_4  and  O_5
REMARK    5  A    between atoms: O_5  and  C_6
REMARK    6  A    between atoms: C_7  and  O_8
REMARK    7  A    between atoms: C_20  and  O_21
REMARK    8  A    between atoms: O_21  and  C_22
REMARK    9  A    between atoms: C_23  and  O_24
REMARK                            x       y       z     vdW  Elec       q    Type
REMARK                         _______ _______ _______ _____ _____    ______ ____
ROOT
ATOM      1  C   UNL     1      -0.958  13.849  21.077  0.00  0.00    +0.000 A 
ATOM      2  C   UNL     1      -0.568  15.062  20.498  0.00  0.00    +0.000 A 
ATOM      3  C   UNL     1       0.449  15.121  19.553  0.00  0.00    +0.000 A 
ATOM      4  C   UNL     1       1.140  13.967  19.203  0.00  0.00    +0.000 A 
ATOM      5 BR   UNL     1       2.567  14.166  17.963  0.00  0.00    +0.000 Br
ATOM      6  C   UNL     1       0.794  12.733  19.775  0.00  0.00    +0.000 A 
ATOM      7  C   UNL     1      -0.250  12.670  20.729  0.00  0.00    +0.000 A 
ATOM      8  C   UNL     1      -0.650  11.337  21.345  0.00  0.00    +0.000 C 
ATOM      9  N   UNL     1       0.272  10.223  21.072  0.00  0.00    +0.000 NA
ATOM     10  C   UNL     1      -0.310   8.936  21.459  0.00  0.00    +0.000 C 
ATOM     11  C   UNL     1       0.801   7.880  21.482  0.00  0.00    +0.000 C 
ATOM     12  C   UNL     1       1.562   7.838  20.181  0.00  0.00    +0.000 A 
ATOM     13  C   UNL     1       2.354   6.712  19.887  0.00  0.00    +0.000 A 
ATOM     14  C   UNL     1       3.079   6.651  18.699  0.00  0.00    +0.000 A 
ATOM     15  C   UNL     1       2.983   7.718  17.804  0.00  0.00    +0.000 A 
ATOM     16  C   UNL     1       2.208   8.840  18.085  0.00  0.00    +0.000 A 
ATOM     17  C   UNL     1       1.521   8.940  19.305  0.00  0.00    +0.000 A 
ATOM     18  C   UNL     1       0.711  10.194  19.660  0.00  0.00    +0.000 C 
ATOM     19  C   UNL     1       1.553  11.467  19.442  0.00  0.00    +0.000 C 
ENDROOT
BRANCH   2  20
ATOM     20  O   UNL     1      -1.092  16.276  20.847  0.00  0.00    +0.000 OA
ATOM     21  H   UNL     1      -1.378  16.691  20.018  0.00  0.00    +0.000 HD
ENDBRANCH   2  20
BRANCH  14  22
ATOM     22  O   UNL     1       3.898   5.626  18.302  0.00  0.00    +0.000 OA
ATOM     23  C   UNL     1       5.037   5.380  19.121  0.00  0.00    +0.000 C 
ENDBRANCH  14  22
BRANCH  15  24
ATOM     24  O   UNL     1       3.670   7.689  16.620  0.00  0.00    +0.000 OA
ATOM     25  H   UNL     1       3.093   7.191  16.007  0.00  0.00    +0.000 HD
ENDBRANCH  15  24
BRANCH   1  26
ATOM     26  O   UNL     1      -1.978  13.684  21.987  0.00  0.00    +0.000 OA
BRANCH  26  27
ATOM     27  C   UNL     1      -3.318  13.697  21.486  0.00  0.00    +0.000 C 
BRANCH  27  28
ATOM     28  C   UNL     1      -4.185  12.720  22.279  0.00  0.00    +0.000 C 
BRANCH  28  30
ATOM     29  C   UNL     1      -4.383  12.453  24.788  0.00  0.00    +0.000 C 
ATOM     30  C   UNL     1      -3.478  12.323  23.576  0.00  0.00    +0.000 C 
ENDBRANCH  28  30
ENDBRANCH  27  28
ENDBRANCH  26  27
ENDBRANCH   1  26
TORSDOF 7
ENDMDL
