MODEL 1
REMARK VINA RESULT:      -8.6      0.000      0.000
REMARK  Name = 
REMARK  6 active torsions:
REMARK  status: ('A' for Active; 'I' for Inactive)
REMARK    1  A    between atoms: C_2  and  C_3
REMARK    2  A    between atoms: C_3  and  C_4
REMARK    3  A    between atoms: N_14  and  C_15
REMARK    4  A    between atoms: N_17  and  C_18
REMARK    5  A    between atoms: C_20  and  N_21
REMARK    6  A    between atoms: C_22  and  C_24
REMARK                            x       y       z     vdW  Elec       q    Type
REMARK                         _______ _______ _______ _____ _____    ______ ____
ROOT
ATOM      1  C   UNL     1       2.006   7.038  20.388  0.00  0.00    +0.000 A 
ATOM      2  C   UNL     1       1.705   5.695  20.449  0.00  0.00    +0.000 A 
ATOM      3  N   UNL     1       1.782   5.266  19.152  0.00  0.00    +0.000 N 
ATOM      4  C   UNL     1       2.101   6.336  18.379  0.00  0.00    +0.000 A 
ATOM      5  N   UNL     1       2.229   7.427  19.105  0.00  0.00    +0.000 NA
ENDROOT
BRANCH   1   8
ATOM      6  O   UNL     1       1.474   9.503  22.858  0.00  0.00    +0.000 OA
ATOM      7  C   UNL     1       1.168   8.778  21.906  0.00  0.00    +0.000 C 
ATOM      8  N   UNL     1       2.096   7.881  21.459  0.00  0.00    +0.000 N 
ATOM      9  H   UNL     1       2.959   7.883  21.984  0.00  0.00    +0.000 HD
BRANCH   7  10
ATOM     10  C   UNL     1      -0.220   8.871  21.277  0.00  0.00    +0.000 C 
BRANCH  10  11
ATOM     11  C   UNL     1      -0.493  10.173  20.533  0.00  0.00    +0.000 A 
ATOM     12  C   UNL     1      -0.274  10.208  19.141  0.00  0.00    +0.000 A 
ATOM     13  C   UNL     1      -0.549  11.346  18.395  0.00  0.00    +0.000 A 
ATOM     14  C   UNL     1      -1.123  12.450  19.011  0.00  0.00    +0.000 A 
ATOM     15  C   UNL     1      -1.419  12.433  20.380  0.00  0.00    +0.000 A 
ATOM     16  C   UNL     1      -2.062  13.537  20.961  0.00  0.00    +0.000 A 
ATOM     17  C   UNL     1      -2.263  13.612  22.338  0.00  0.00    +0.000 A 
ATOM     18  C   UNL     1      -1.849  12.567  23.147  0.00  0.00    +0.000 A 
ATOM     19  C   UNL     1      -1.285  11.425  22.573  0.00  0.00    +0.000 A 
ATOM     20  C   UNL     1      -1.060  11.314  21.178  0.00  0.00    +0.000 A 
ENDBRANCH  10  11
ENDBRANCH   7  10
ENDBRANCH   1   8
BRANCH   3  21
ATOM     21  C   UNL     1       1.631   3.893  18.741  0.00  0.00    +0.000 C 
ATOM     22  C   UNL     1       2.397   3.590  17.425  0.00  0.00    +0.000 C 
ATOM     23  C   UNL     1       3.530   2.946  18.252  0.00  0.00    +0.000 C 
ATOM     24  C   UNL     1       2.540   2.855  19.435  0.00  0.00    +0.000 C 
BRANCH  23  25
ATOM     25  N   UNL     1       4.681   3.851  18.451  0.00  0.00    +0.000 N 
ATOM     26  C   UNL     1       5.446   4.314  17.396  0.00  0.00    +0.000 C 
ATOM     27  O   UNL     1       5.283   3.952  16.236  0.00  0.00    +0.000 OA
ATOM     28  H   UNL     1       4.786   4.315  19.345  0.00  0.00    +0.000 HD
BRANCH  26  29
ATOM     29  C   UNL     1       6.461   5.347  17.729  0.00  0.00    +0.000 A 
ATOM     30  C   UNL     1       7.326   5.194  18.809  0.00  0.00    +0.000 A 
ATOM     31  C   UNL     1       8.125   6.269  19.140  0.00  0.00    +0.000 A 
ATOM     32  N   UNL     1       8.209   7.406  18.418  0.00  0.00    +0.000 NA
ATOM     33  C   UNL     1       7.418   7.492  17.330  0.00  0.00    +0.000 A 
ATOM     34  C   UNL     1       6.514   6.513  16.964  0.00  0.00    +0.000 A 
ENDBRANCH  26  29
ENDBRANCH  23  25
ENDBRANCH   3  21
TORSDOF 6
ENDMDL
MODEL 2
REMARK VINA RESULT:      -8.5      4.779      8.368
REMARK  Name = 
REMARK  6 active torsions:
REMARK  status: ('A' for Active; 'I' for Inactive)
REMARK    1  A    between atoms: C_2  and  C_3
REMARK    2  A    between atoms: C_3  and  C_4
REMARK    3  A    between atoms: N_14  and  C_15
REMARK    4  A    between atoms: N_17  and  C_18
REMARK    5  A    between atoms: C_20  and  N_21
REMARK    6  A    between atoms: C_22  and  C_24
REMARK                            x       y       z     vdW  Elec       q    Type
REMARK                         _______ _______ _______ _____ _____    ______ ____
ROOT
ATOM      1  C   UNL     1       8.350   8.244  18.590  0.00  0.00    +0.000 A 
ATOM      2  C   UNL     1       8.107   6.900  18.765  0.00  0.00    +0.000 A 
ATOM      3  N   UNL     1       7.475   6.512  17.615  0.00  0.00    +0.000 N 
ATOM      4  C   UNL     1       7.350   7.607  16.820  0.00  0.00    +0.000 A 
ATOM      5  N   UNL     1       7.862   8.674  17.397  0.00  0.00    +0.000 NA
ENDROOT
BRANCH   1   8
ATOM      6  O   UNL     1      10.076  10.877  20.188  0.00  0.00    +0.000 OA
ATOM      7  C   UNL     1       9.429  10.340  19.283  0.00  0.00    +0.000 C 
ATOM      8  N   UNL     1       9.010   9.053  19.471  0.00  0.00    +0.000 N 
ATOM      9  H   UNL     1       9.257   8.665  20.370  0.00  0.00    +0.000 HD
BRANCH   7  10
ATOM     10  C   UNL     1       9.090  11.113  18.011  0.00  0.00    +0.000 C 
BRANCH  10  11
ATOM     11  C   UNL     1       9.925  12.368  17.790  0.00  0.00    +0.000 A 
ATOM     12  C   UNL     1      11.243  12.220  17.313  0.00  0.00    +0.000 A 
ATOM     13  C   UNL     1      12.042  13.323  17.044  0.00  0.00    +0.000 A 
ATOM     14  C   UNL     1      11.514  14.601  17.169  0.00  0.00    +0.000 A 
ATOM     15  C   UNL     1      10.187  14.791  17.575  0.00  0.00    +0.000 A 
ATOM     16  C   UNL     1       9.661  16.091  17.628  0.00  0.00    +0.000 A 
ATOM     17  C   UNL     1       8.388  16.334  18.143  0.00  0.00    +0.000 A 
ATOM     18  C   UNL     1       7.616  15.273  18.584  0.00  0.00    +0.000 A 
ATOM     19  C   UNL     1       8.094  13.966  18.459  0.00  0.00    +0.000 A 
ATOM     20  C   UNL     1       9.384  13.680  17.945  0.00  0.00    +0.000 A 
ENDBRANCH  10  11
ENDBRANCH   7  10
ENDBRANCH   1   8
BRANCH   3  21
ATOM     21  C   UNL     1       7.107   5.153  17.309  0.00  0.00    +0.000 C 
ATOM     22  C   UNL     1       6.152   4.553  18.376  0.00  0.00    +0.000 C 
ATOM     23  C   UNL     1       4.959   4.814  17.431  0.00  0.00    +0.000 C 
ATOM     24  C   UNL     1       5.977   4.954  16.276  0.00  0.00    +0.000 C 
BRANCH  23  25
ATOM     25  N   UNL     1       4.212   6.040  17.775  0.00  0.00    +0.000 N 
ATOM     26  C   UNL     1       2.904   6.005  18.225  0.00  0.00    +0.000 C 
ATOM     27  O   UNL     1       2.244   4.975  18.295  0.00  0.00    +0.000 OA
ATOM     28  H   UNL     1       4.724   6.906  17.893  0.00  0.00    +0.000 HD
BRANCH  26  29
ATOM     29  C   UNL     1       2.339   7.298  18.692  0.00  0.00    +0.000 A 
ATOM     30  C   UNL     1       1.974   7.495  20.020  0.00  0.00    +0.000 A 
ATOM     31  C   UNL     1       1.312   8.665  20.330  0.00  0.00    +0.000 A 
ATOM     32  N   UNL     1       1.105   9.676  19.460  0.00  0.00    +0.000 NA
ATOM     33  C   UNL     1       1.543   9.490  18.199  0.00  0.00    +0.000 A 
ATOM     34  C   UNL     1       2.133   8.318  17.761  0.00  0.00    +0.000 A 
ENDBRANCH  26  29
ENDBRANCH  23  25
ENDBRANCH   3  21
TORSDOF 6
ENDMDL
MODEL 3
REMARK VINA RESULT:      -8.5      4.487      8.197
REMARK  Name = 
REMARK  6 active torsions:
REMARK  status: ('A' for Active; 'I' for Inactive)
REMARK    1  A    between atoms: C_2  and  C_3
REMARK    2  A    between atoms: C_3  and  C_4
REMARK    3  A    between atoms: N_14  and  C_15
REMARK    4  A    between atoms: N_17  and  C_18
REMARK    5  A    between atoms: C_20  and  N_21
REMARK    6  A    between atoms: C_22  and  C_24
REMARK                            x       y       z     vdW  Elec       q    Type
REMARK                         _______ _______ _______ _____ _____    ______ ____
ROOT
ATOM      1  C   UNL     1       7.675   7.903  17.712  0.00  0.00    +0.000 A 
ATOM      2  C   UNL     1       7.067   6.892  17.003  0.00  0.00    +0.000 A 
ATOM      3  N   UNL     1       7.283   5.768  17.752  0.00  0.00    +0.000 N 
ATOM      4  C   UNL     1       8.007   6.129  18.843  0.00  0.00    +0.000 A 
ATOM      5  N   UNL     1       8.269   7.419  18.835  0.00  0.00    +0.000 NA
ENDROOT
BRANCH   1   8
ATOM      6  O   UNL     1       8.183  11.392  17.528  0.00  0.00    +0.000 OA
ATOM      7  C   UNL     1       8.374  10.247  17.949  0.00  0.00    +0.000 C 
ATOM      8  N   UNL     1       7.678   9.225  17.367  0.00  0.00    +0.000 N 
ATOM      9  H   UNL     1       7.075   9.514  16.610  0.00  0.00    +0.000 HD
BRANCH   7  10
ATOM     10  C   UNL     1       9.384   9.991  19.065  0.00  0.00    +0.000 C 
BRANCH  10  11
ATOM     11  C   UNL     1      10.245  11.195  19.429  0.00  0.00    +0.000 A 
ATOM     12  C   UNL     1      11.399  11.449  18.661  0.00  0.00    +0.000 A 
ATOM     13  C   UNL     1      12.201  12.555  18.908  0.00  0.00    +0.000 A 
ATOM     14  C   UNL     1      11.825  13.475  19.876  0.00  0.00    +0.000 A 
ATOM     15  C   UNL     1      10.648  13.296  20.616  0.00  0.00    +0.000 A 
ATOM     16  C   UNL     1      10.258  14.277  21.541  0.00  0.00    +0.000 A 
ATOM     17  C   UNL     1       9.165  14.081  22.383  0.00  0.00    +0.000 A 
ATOM     18  C   UNL     1       8.432  12.910  22.288  0.00  0.00    +0.000 A 
ATOM     19  C   UNL     1       8.758  11.961  21.315  0.00  0.00    +0.000 A 
ATOM     20  C   UNL     1       9.865  12.124  20.444  0.00  0.00    +0.000 A 
ENDBRANCH  10  11
ENDBRANCH   7  10
ENDBRANCH   1   8
BRANCH   3  21
ATOM     21  C   UNL     1       6.743   4.469  17.441  0.00  0.00    +0.000 C 
ATOM     22  C   UNL     1       5.665   4.024  18.466  0.00  0.00    +0.000 C 
ATOM     23  C   UNL     1       4.566   4.434  17.462  0.00  0.00    +0.000 C 
ATOM     24  C   UNL     1       5.645   4.412  16.356  0.00  0.00    +0.000 C 
BRANCH  23  25
ATOM     25  N   UNL     1       3.983   5.758  17.759  0.00  0.00    +0.000 N 
ATOM     26  C   UNL     1       2.677   5.909  18.190  0.00  0.00    +0.000 C 
ATOM     27  O   UNL     1       1.885   4.978  18.280  0.00  0.00    +0.000 OA
ATOM     28  H   UNL     1       4.603   6.552  17.859  0.00  0.00    +0.000 HD
BRANCH  26  29
ATOM     29  C   UNL     1       2.282   7.279  18.610  0.00  0.00    +0.000 A 
ATOM     30  C   UNL     1       1.914   7.560  19.922  0.00  0.00    +0.000 A 
ATOM     31  C   UNL     1       1.410   8.817  20.185  0.00  0.00    +0.000 A 
ATOM     32  N   UNL     1       1.364   9.822  19.286  0.00  0.00    +0.000 NA
ATOM     33  C   UNL     1       1.804   9.544  18.043  0.00  0.00    +0.000 A 
ATOM     34  C   UNL     1       2.239   8.292  17.650  0.00  0.00    +0.000 A 
ENDBRANCH  26  29
ENDBRANCH  23  25
ENDBRANCH   3  21
TORSDOF 6
ENDMDL
MODEL 4
REMARK VINA RESULT:      -8.4      1.892      2.965
REMARK  Name = 
REMARK  6 active torsions:
REMARK  status: ('A' for Active; 'I' for Inactive)
REMARK    1  A    between atoms: C_2  and  C_3
REMARK    2  A    between atoms: C_3  and  C_4
REMARK    3  A    between atoms: N_14  and  C_15
REMARK    4  A    between atoms: N_17  and  C_18
REMARK    5  A    between atoms: C_20  and  N_21
REMARK    6  A    between atoms: C_22  and  C_24
REMARK                            x       y       z     vdW  Elec       q    Type
REMARK                         _______ _______ _______ _____ _____    ______ ____
ROOT
ATOM      1  C   UNL     1       2.242   7.545  19.213  0.00  0.00    +0.000 A 
ATOM      2  C   UNL     1       2.444   6.377  18.512  0.00  0.00    +0.000 A 
ATOM      3  N   UNL     1       1.974   5.394  19.339  0.00  0.00    +0.000 N 
ATOM      4  C   UNL     1       1.535   5.986  20.480  0.00  0.00    +0.000 A 
ATOM      5  N   UNL     1       1.700   7.291  20.433  0.00  0.00    +0.000 NA
ENDROOT
BRANCH   1   8
ATOM      6  O   UNL     1       2.190  10.709  17.648  0.00  0.00    +0.000 OA
ATOM      7  C   UNL     1       1.720   9.629  18.021  0.00  0.00    +0.000 C 
ATOM      8  N   UNL     1       2.521   8.803  18.758  0.00  0.00    +0.000 N 
ATOM      9  H   UNL     1       3.438   9.180  18.951  0.00  0.00    +0.000 HD
BRANCH   7  10
ATOM     10  C   UNL     1       0.278   9.256  17.688  0.00  0.00    +0.000 C 
BRANCH  10  11
ATOM     11  C   UNL     1      -0.773  10.152  18.330  0.00  0.00    +0.000 A 
ATOM     12  C   UNL     1      -0.470  10.762  19.564  0.00  0.00    +0.000 A 
ATOM     13  C   UNL     1      -1.363  11.628  20.180  0.00  0.00    +0.000 A 
ATOM     14  C   UNL     1      -2.547  11.965  19.540  0.00  0.00    +0.000 A 
ATOM     15  C   UNL     1      -2.857  11.433  18.281  0.00  0.00    +0.000 A 
ATOM     16  C   UNL     1      -4.029  11.844  17.627  0.00  0.00    +0.000 A 
ATOM     17  C   UNL     1      -4.436  11.250  16.434  0.00  0.00    +0.000 A 
ATOM     18  C   UNL     1      -3.658  10.255  15.866  0.00  0.00    +0.000 A 
ATOM     19  C   UNL     1      -2.446   9.895  16.462  0.00  0.00    +0.000 A 
ATOM     20  C   UNL     1      -2.002  10.474  17.677  0.00  0.00    +0.000 A 
ENDBRANCH  10  11
ENDBRANCH   7  10
ENDBRANCH   1   8
BRANCH   3  21
ATOM     21  C   UNL     1       1.898   4.000  18.981  0.00  0.00    +0.000 C 
ATOM     22  C   UNL     1       2.661   3.692  17.666  0.00  0.00    +0.000 C 
ATOM     23  C   UNL     1       3.841   3.146  18.499  0.00  0.00    +0.000 C 
ATOM     24  C   UNL     1       2.874   3.042  19.699  0.00  0.00    +0.000 C 
BRANCH  23  25
ATOM     25  N   UNL     1       4.940   4.122  18.646  0.00  0.00    +0.000 N 
ATOM     26  C   UNL     1       5.772   4.460  17.593  0.00  0.00    +0.000 C 
ATOM     27  O   UNL     1       5.716   3.925  16.492  0.00  0.00    +0.000 OA
ATOM     28  H   UNL     1       4.957   4.716  19.465  0.00  0.00    +0.000 HD
BRANCH  26  29
ATOM     29  C   UNL     1       6.721   5.576  17.844  0.00  0.00    +0.000 A 
ATOM     30  C   UNL     1       7.652   5.520  18.876  0.00  0.00    +0.000 A 
ATOM     31  C   UNL     1       8.382   6.662  19.136  0.00  0.00    +0.000 A 
ATOM     32  N   UNL     1       8.338   7.780  18.383  0.00  0.00    +0.000 NA
ATOM     33  C   UNL     1       7.486   7.776  17.339  0.00  0.00    +0.000 A 
ATOM     34  C   UNL     1       6.641   6.720  17.048  0.00  0.00    +0.000 A 
ENDBRANCH  26  29
ENDBRANCH  23  25
ENDBRANCH   3  21
TORSDOF 6
ENDMDL
MODEL 5
REMARK VINA RESULT:      -8.3      1.082      2.249
REMARK  Name = 
REMARK  6 active torsions:
REMARK  status: ('A' for Active; 'I' for Inactive)
REMARK    1  A    between atoms: C_2  and  C_3
REMARK    2  A    between atoms: C_3  and  C_4
REMARK    3  A    between atoms: N_14  and  C_15
REMARK    4  A    between atoms: N_17  and  C_18
REMARK    5  A    between atoms: C_20  and  N_21
REMARK    6  A    between atoms: C_22  and  C_24
REMARK                            x       y       z     vdW  Elec       q    Type
REMARK                         _______ _______ _______ _____ _____    ______ ____
ROOT
ATOM      1  C   UNL     1       1.885   6.859  20.292  0.00  0.00    +0.000 A 
ATOM      2  C   UNL     1       1.565   5.520  20.332  0.00  0.00    +0.000 A 
ATOM      3  N   UNL     1       1.965   5.034  19.117  0.00  0.00    +0.000 N 
ATOM      4  C   UNL     1       2.481   6.070  18.405  0.00  0.00    +0.000 A 
ATOM      5  N   UNL     1       2.431   7.191  19.093  0.00  0.00    +0.000 NA
ENDROOT
BRANCH   1   8
ATOM      6  O   UNL     1       1.291   9.716  22.279  0.00  0.00    +0.000 OA
ATOM      7  C   UNL     1       1.325   9.058  21.235  0.00  0.00    +0.000 C 
ATOM      8  N   UNL     1       1.708   7.749  21.314  0.00  0.00    +0.000 N 
ATOM      9  H   UNL     1       1.908   7.433  22.252  0.00  0.00    +0.000 HD
BRANCH   7  10
ATOM     10  C   UNL     1       0.919   9.692  19.907  0.00  0.00    +0.000 C 
BRANCH  10  11
ATOM     11  C   UNL     1      -0.335  10.556  19.974  0.00  0.00    +0.000 A 
ATOM     12  C   UNL     1      -0.512  11.392  21.094  0.00  0.00    +0.000 A 
ATOM     13  C   UNL     1      -1.607  12.241  21.196  0.00  0.00    +0.000 A 
ATOM     14  C   UNL     1      -2.508  12.329  20.144  0.00  0.00    +0.000 A 
ATOM     15  C   UNL     1      -2.331  11.565  18.983  0.00  0.00    +0.000 A 
ATOM     16  C   UNL     1      -3.220  11.726  17.909  0.00  0.00    +0.000 A 
ATOM     17  C   UNL     1      -3.155  10.899  16.789  0.00  0.00    +0.000 A 
ATOM     18  C   UNL     1      -2.178   9.920  16.718  0.00  0.00    +0.000 A 
ATOM     19  C   UNL     1      -1.234   9.805  17.742  0.00  0.00    +0.000 A 
ATOM     20  C   UNL     1      -1.272  10.623  18.899  0.00  0.00    +0.000 A 
ENDBRANCH  10  11
ENDBRANCH   7  10
ENDBRANCH   1   8
BRANCH   3  21
ATOM     21  C   UNL     1       1.910   3.645  18.740  0.00  0.00    +0.000 C 
ATOM     22  C   UNL     1       2.710   3.360  17.441  0.00  0.00    +0.000 C 
ATOM     23  C   UNL     1       3.873   2.813  18.297  0.00  0.00    +0.000 C 
ATOM     24  C   UNL     1       2.876   2.686  19.471  0.00  0.00    +0.000 C 
BRANCH  23  25
ATOM     25  N   UNL     1       4.959   3.797  18.485  0.00  0.00    +0.000 N 
ATOM     26  C   UNL     1       5.706   4.282  17.426  0.00  0.00    +0.000 C 
ATOM     27  O   UNL     1       5.582   3.880  16.275  0.00  0.00    +0.000 OA
ATOM     28  H   UNL     1       5.023   4.290  19.367  0.00  0.00    +0.000 HD
BRANCH  26  29
ATOM     29  C   UNL     1       6.647   5.388  17.743  0.00  0.00    +0.000 A 
ATOM     30  C   UNL     1       7.495   5.327  18.846  0.00  0.00    +0.000 A 
ATOM     31  C   UNL     1       8.217   6.461  19.154  0.00  0.00    +0.000 A 
ATOM     32  N   UNL     1       8.246   7.576  18.395  0.00  0.00    +0.000 NA
ATOM     33  C   UNL     1       7.477   7.575  17.288  0.00  0.00    +0.000 A 
ATOM     34  C   UNL     1       6.644   6.528  16.938  0.00  0.00    +0.000 A 
ENDBRANCH  26  29
ENDBRANCH  23  25
ENDBRANCH   3  21
TORSDOF 6
ENDMDL
MODEL 6
REMARK VINA RESULT:      -8.2      1.857      2.983
REMARK  Name = 
REMARK  6 active torsions:
REMARK  status: ('A' for Active; 'I' for Inactive)
REMARK    1  A    between atoms: C_2  and  C_3
REMARK    2  A    between atoms: C_3  and  C_4
REMARK    3  A    between atoms: N_14  and  C_15
REMARK    4  A    between atoms: N_17  and  C_18
REMARK    5  A    between atoms: C_20  and  N_21
REMARK    6  A    between atoms: C_22  and  C_24
REMARK                            x       y       z     vdW  Elec       q    Type
REMARK                         _______ _______ _______ _____ _____    ______ ____
ROOT
ATOM      1  C   UNL     1       1.650   7.924  20.631  0.00  0.00    +0.000 A 
ATOM      2  C   UNL     1       1.079   6.805  21.195  0.00  0.00    +0.000 A 
ATOM      3  N   UNL     1       1.462   5.775  20.380  0.00  0.00    +0.000 N 
ATOM      4  C   UNL     1       2.212   6.297  19.375  0.00  0.00    +0.000 A 
ATOM      5  N   UNL     1       2.329   7.603  19.499  0.00  0.00    +0.000 NA
ENDROOT
BRANCH   1   8
ATOM      6  O   UNL     1       1.109  11.373  21.151  0.00  0.00    +0.000 OA
ATOM      7  C   UNL     1       1.007  10.294  20.560  0.00  0.00    +0.000 C 
ATOM      8  N   UNL     1       1.576   9.192  21.133  0.00  0.00    +0.000 N 
ATOM      9  H   UNL     1       2.017   9.372  22.024  0.00  0.00    +0.000 HD
BRANCH   7  10
ATOM     10  C   UNL     1       0.238  10.202  19.244  0.00  0.00    +0.000 C 
BRANCH  10  11
ATOM     11  C   UNL     1      -1.139  10.853  19.267  0.00  0.00    +0.000 A 
ATOM     12  C   UNL     1      -1.478  11.663  20.370  0.00  0.00    +0.000 A 
ATOM     13  C   UNL     1      -2.698  12.324  20.433  0.00  0.00    +0.000 A 
ATOM     14  C   UNL     1      -3.573  12.255  19.358  0.00  0.00    +0.000 A 
ATOM     15  C   UNL     1      -3.245  11.516  18.213  0.00  0.00    +0.000 A 
ATOM     16  C   UNL     1      -4.120  11.520  17.115  0.00  0.00    +0.000 A 
ATOM     17  C   UNL     1      -3.892  10.703  16.009  0.00  0.00    +0.000 A 
ATOM     18  C   UNL     1      -2.769   9.894  15.978  0.00  0.00    +0.000 A 
ATOM     19  C   UNL     1      -1.846   9.943  17.026  0.00  0.00    +0.000 A 
ATOM     20  C   UNL     1      -2.046  10.757  18.169  0.00  0.00    +0.000 A 
ENDBRANCH  10  11
ENDBRANCH   7  10
ENDBRANCH   1   8
BRANCH   3  21
ATOM     21  C   UNL     1       1.170   4.387  20.634  0.00  0.00    +0.000 C 
ATOM     22  C   UNL     1       1.429   3.498  19.388  0.00  0.00    +0.000 C 
ATOM     23  C   UNL     1       2.776   3.059  20.003  0.00  0.00    +0.000 C 
ATOM     24  C   UNL     1       2.256   3.569  21.366  0.00  0.00    +0.000 C 
BRANCH  23  25
ATOM     25  N   UNL     1       3.929   3.792  19.444  0.00  0.00    +0.000 N 
ATOM     26  C   UNL     1       4.487   3.467  18.220  0.00  0.00    +0.000 C 
ATOM     27  O   UNL     1       4.127   2.506  17.550  0.00  0.00    +0.000 OA
ATOM     28  H   UNL     1       4.184   4.682  19.853  0.00  0.00    +0.000 HD
BRANCH  26  29
ATOM     29  C   UNL     1       5.530   4.395  17.711  0.00  0.00    +0.000 A 
ATOM     30  C   UNL     1       6.140   5.330  18.541  0.00  0.00    +0.000 A 
ATOM     31  C   UNL     1       6.977   6.254  17.951  0.00  0.00    +0.000 A 
ATOM     32  N   UNL     1       7.334   6.235  16.650  0.00  0.00    +0.000 NA
ATOM     33  C   UNL     1       6.790   5.267  15.886  0.00  0.00    +0.000 A 
ATOM     34  C   UNL     1       5.868   4.351  16.357  0.00  0.00    +0.000 A 
ENDBRANCH  26  29
ENDBRANCH  23  25
ENDBRANCH   3  21
TORSDOF 6
ENDMDL
MODEL 7
REMARK VINA RESULT:      -8.2      1.609      2.356
REMARK  Name = 
REMARK  6 active torsions:
REMARK  status: ('A' for Active; 'I' for Inactive)
REMARK    1  A    between atoms: C_2  and  C_3
REMARK    2  A    between atoms: C_3  and  C_4
REMARK    3  A    between atoms: N_14  and  C_15
REMARK    4  A    between atoms: N_17  and  C_18
REMARK    5  A    between atoms: C_20  and  N_21
REMARK    6  A    between atoms: C_22  and  C_24
REMARK                            x       y       z     vdW  Elec       q    Type
REMARK                         _______ _______ _______ _____ _____    ______ ____
ROOT
ATOM      1  C   UNL     1       2.223   7.141  19.246  0.00  0.00    +0.000 A 
ATOM      2  C   UNL     1       2.145   5.864  18.736  0.00  0.00    +0.000 A 
ATOM      3  N   UNL     1       1.726   5.098  19.789  0.00  0.00    +0.000 N 
ATOM      4  C   UNL     1       1.587   5.913  20.867  0.00  0.00    +0.000 A 
ATOM      5  N   UNL     1       1.897   7.157  20.565  0.00  0.00    +0.000 NA
ENDROOT
BRANCH   1   8
ATOM      6  O   UNL     1       2.230  10.126  17.360  0.00  0.00    +0.000 OA
ATOM      7  C   UNL     1       1.729   9.223  18.038  0.00  0.00    +0.000 C 
ATOM      8  N   UNL     1       2.559   8.260  18.538  0.00  0.00    +0.000 N 
ATOM      9  H   UNL     1       3.535   8.401  18.318  0.00  0.00    +0.000 HD
BRANCH   7  10
ATOM     10  C   UNL     1       0.230   9.212  18.325  0.00  0.00    +0.000 C 
BRANCH  10  11
ATOM     11  C   UNL     1      -0.287  10.452  19.044  0.00  0.00    +0.000 A 
ATOM     12  C   UNL     1      -0.665  11.566  18.267  0.00  0.00    +0.000 A 
ATOM     13  C   UNL     1      -1.190  12.711  18.854  0.00  0.00    +0.000 A 
ATOM     14  C   UNL     1      -1.422  12.737  20.222  0.00  0.00    +0.000 A 
ATOM     15  C   UNL     1      -1.123  11.626  21.021  0.00  0.00    +0.000 A 
ATOM     16  C   UNL     1      -1.432  11.656  22.390  0.00  0.00    +0.000 A 
ATOM     17  C   UNL     1      -1.041  10.625  23.241  0.00  0.00    +0.000 A 
ATOM     18  C   UNL     1      -0.360   9.534  22.725  0.00  0.00    +0.000 A 
ATOM     19  C   UNL     1      -0.121   9.451  21.351  0.00  0.00    +0.000 A 
ATOM     20  C   UNL     1      -0.500  10.482  20.455  0.00  0.00    +0.000 A 
ENDBRANCH  10  11
ENDBRANCH   7  10
ENDBRANCH   1   8
BRANCH   3  21
ATOM     21  C   UNL     1       1.415   3.694  19.698  0.00  0.00    +0.000 C 
ATOM     22  C   UNL     1       1.271   3.221  18.227  0.00  0.00    +0.000 C 
ATOM     23  C   UNL     1       2.698   2.635  18.294  0.00  0.00    +0.000 C 
ATOM     24  C   UNL     1       2.596   2.708  19.834  0.00  0.00    +0.000 C 
BRANCH  23  25
ATOM     25  N   UNL     1       3.710   3.517  17.678  0.00  0.00    +0.000 N 
ATOM     26  C   UNL     1       4.952   3.727  18.250  0.00  0.00    +0.000 C 
ATOM     27  O   UNL     1       5.277   3.270  19.340  0.00  0.00    +0.000 OA
ATOM     28  H   UNL     1       3.584   3.805  16.716  0.00  0.00    +0.000 HD
BRANCH  26  29
ATOM     29  C   UNL     1       5.924   4.501  17.436  0.00  0.00    +0.000 A 
ATOM     30  C   UNL     1       6.531   5.653  17.928  0.00  0.00    +0.000 A 
ATOM     31  C   UNL     1       7.294   6.394  17.050  0.00  0.00    +0.000 A 
ATOM     32  N   UNL     1       7.585   6.016  15.788  0.00  0.00    +0.000 NA
ATOM     33  C   UNL     1       7.049   4.854  15.365  0.00  0.00    +0.000 A 
ATOM     34  C   UNL     1       6.195   4.083  16.132  0.00  0.00    +0.000 A 
ENDBRANCH  26  29
ENDBRANCH  23  25
ENDBRANCH   3  21
TORSDOF 6
ENDMDL
MODEL 8
REMARK VINA RESULT:      -8.1      1.941      2.822
REMARK  Name = 
REMARK  6 active torsions:
REMARK  status: ('A' for Active; 'I' for Inactive)
REMARK    1  A    between atoms: C_2  and  C_3
REMARK    2  A    between atoms: C_3  and  C_4
REMARK    3  A    between atoms: N_14  and  C_15
REMARK    4  A    between atoms: N_17  and  C_18
REMARK    5  A    between atoms: C_20  and  N_21
REMARK    6  A    between atoms: C_22  and  C_24
REMARK                            x       y       z     vdW  Elec       q    Type
REMARK                         _______ _______ _______ _____ _____    ______ ____
ROOT
ATOM      1  C   UNL     1       2.131   7.497  19.591  0.00  0.00    +0.000 A 
ATOM      2  C   UNL     1       2.123   6.144  19.335  0.00  0.00    +0.000 A 
ATOM      3  N   UNL     1       1.539   5.588  20.440  0.00  0.00    +0.000 N 
ATOM      4  C   UNL     1       1.241   6.594  21.303  0.00  0.00    +0.000 A 
ATOM      5  N   UNL     1       1.604   7.762  20.815  0.00  0.00    +0.000 NA
ENDROOT
BRANCH   1   8
ATOM      6  O   UNL     1       2.463  10.029  17.153  0.00  0.00    +0.000 OA
ATOM      7  C   UNL     1       1.853   9.257  17.900  0.00  0.00    +0.000 C 
ATOM      8  N   UNL     1       2.584   8.465  18.739  0.00  0.00    +0.000 N 
ATOM      9  H   UNL     1       3.581   8.610  18.680  0.00  0.00    +0.000 HD
BRANCH   7  10
ATOM     10  C   UNL     1       0.327   9.224  17.897  0.00  0.00    +0.000 C 
BRANCH  10  11
ATOM     11  C   UNL     1      -0.333  10.293  18.759  0.00  0.00    +0.000 A 
ATOM     12  C   UNL     1       0.472  11.011  19.667  0.00  0.00    +0.000 A 
ATOM     13  C   UNL     1      -0.055  12.032  20.448  0.00  0.00    +0.000 A 
ATOM     14  C   UNL     1      -1.380  12.410  20.282  0.00  0.00    +0.000 A 
ATOM     15  C   UNL     1      -2.196  11.768  19.342  0.00  0.00    +0.000 A 
ATOM     16  C   UNL     1      -3.512  12.217  19.149  0.00  0.00    +0.000 A 
ATOM     17  C   UNL     1      -4.394  11.530  18.316  0.00  0.00    +0.000 A 
ATOM     18  C   UNL     1      -3.958  10.401  17.644  0.00  0.00    +0.000 A 
ATOM     19  C   UNL     1      -2.627   9.991  17.761  0.00  0.00    +0.000 A 
ATOM     20  C   UNL     1      -1.704  10.661  18.602  0.00  0.00    +0.000 A 
ENDBRANCH  10  11
ENDBRANCH   7  10
ENDBRANCH   1   8
BRANCH   3  21
ATOM     21  C   UNL     1       1.234   4.187  20.579  0.00  0.00    +0.000 C 
ATOM     22  C   UNL     1       1.456   3.407  19.256  0.00  0.00    +0.000 C 
ATOM     23  C   UNL     1       2.809   2.900  19.801  0.00  0.00    +0.000 C 
ATOM     24  C   UNL     1       2.325   3.296  21.214  0.00  0.00    +0.000 C 
BRANCH  23  25
ATOM     25  N   UNL     1       3.960   3.666  19.282  0.00  0.00    +0.000 N 
ATOM     26  C   UNL     1       4.452   3.483  18.002  0.00  0.00    +0.000 C 
ATOM     27  O   UNL     1       4.030   2.624  17.235  0.00  0.00    +0.000 OA
ATOM     28  H   UNL     1       4.263   4.491  19.786  0.00  0.00    +0.000 HD
BRANCH  26  29
ATOM     29  C   UNL     1       5.501   4.438  17.562  0.00  0.00    +0.000 A 
ATOM     30  C   UNL     1       5.907   5.496  18.371  0.00  0.00    +0.000 A 
ATOM     31  C   UNL     1       6.767   6.423  17.820  0.00  0.00    +0.000 A 
ATOM     32  N   UNL     1       7.331   6.308  16.599  0.00  0.00    +0.000 NA
ATOM     33  C   UNL     1       6.981   5.230  15.870  0.00  0.00    +0.000 A 
ATOM     34  C   UNL     1       6.056   4.292  16.289  0.00  0.00    +0.000 A 
ENDBRANCH  26  29
ENDBRANCH  23  25
ENDBRANCH   3  21
TORSDOF 6
ENDMDL
MODEL 9
REMARK VINA RESULT:      -8.1      1.406      1.773
REMARK  Name = 
REMARK  6 active torsions:
REMARK  status: ('A' for Active; 'I' for Inactive)
REMARK    1  A    between atoms: C_2  and  C_3
REMARK    2  A    between atoms: C_3  and  C_4
REMARK    3  A    between atoms: N_14  and  C_15
REMARK    4  A    between atoms: N_17  and  C_18
REMARK    5  A    between atoms: C_20  and  N_21
REMARK    6  A    between atoms: C_22  and  C_24
REMARK                            x       y       z     vdW  Elec       q    Type
REMARK                         _______ _______ _______ _____ _____    ______ ____
ROOT
ATOM      1  C   UNL     1       2.254   7.270  18.986  0.00  0.00    +0.000 A 
ATOM      2  C   UNL     1       2.367   6.111  18.250  0.00  0.00    +0.000 A 
ATOM      3  N   UNL     1       2.035   5.114  19.126  0.00  0.00    +0.000 N 
ATOM      4  C   UNL     1       1.759   5.689  20.325  0.00  0.00    +0.000 A 
ATOM      5  N   UNL     1       1.898   6.997  20.269  0.00  0.00    +0.000 NA
ENDROOT
BRANCH   1   8
ATOM      6  O   UNL     1       1.954  10.668  18.075  0.00  0.00    +0.000 OA
ATOM      7  C   UNL     1       1.629   9.622  18.647  0.00  0.00    +0.000 C 
ATOM      8  N   UNL     1       2.446   8.536  18.509  0.00  0.00    +0.000 N 
ATOM      9  H   UNL     1       3.274   8.709  17.956  0.00  0.00    +0.000 HD
BRANCH   7  10
ATOM     10  C   UNL     1       0.366   9.568  19.503  0.00  0.00    +0.000 C 
BRANCH  10  11
ATOM     11  C   UNL     1      -0.830  10.306  18.915  0.00  0.00    +0.000 A 
ATOM     12  C   UNL     1      -1.270   9.946  17.625  0.00  0.00    +0.000 A 
ATOM     13  C   UNL     1      -2.384  10.544  17.049  0.00  0.00    +0.000 A 
ATOM     14  C   UNL     1      -3.129  11.458  17.781  0.00  0.00    +0.000 A 
ATOM     15  C   UNL     1      -2.765  11.793  19.092  0.00  0.00    +0.000 A 
ATOM     16  C   UNL     1      -3.575  12.669  19.831  0.00  0.00    +0.000 A 
ATOM     17  C   UNL     1      -3.185  13.124  21.090  0.00  0.00    +0.000 A 
ATOM     18  C   UNL     1      -1.991  12.683  21.635  0.00  0.00    +0.000 A 
ATOM     19  C   UNL     1      -1.216  11.746  20.947  0.00  0.00    +0.000 A 
ATOM     20  C   UNL     1      -1.578  11.265  19.664  0.00  0.00    +0.000 A 
ENDBRANCH  10  11
ENDBRANCH   7  10
ENDBRANCH   1   8
BRANCH   3  21
ATOM     21  C   UNL     1       1.926   3.723  18.768  0.00  0.00    +0.000 C 
ATOM     22  C   UNL     1       2.711   3.389  17.471  0.00  0.00    +0.000 C 
ATOM     23  C   UNL     1       3.854   2.810  18.332  0.00  0.00    +0.000 C 
ATOM     24  C   UNL     1       2.856   2.738  19.510  0.00  0.00    +0.000 C 
BRANCH  23  25
ATOM     25  N   UNL     1       4.978   3.754  18.504  0.00  0.00    +0.000 N 
ATOM     26  C   UNL     1       5.617   4.343  17.428  0.00  0.00    +0.000 C 
ATOM     27  O   UNL     1       5.360   4.071  16.261  0.00  0.00    +0.000 OA
ATOM     28  H   UNL     1       5.148   4.146  19.422  0.00  0.00    +0.000 HD
BRANCH  26  29
ATOM     29  C   UNL     1       6.614   5.395  17.757  0.00  0.00    +0.000 A 
ATOM     30  C   UNL     1       7.487   5.259  18.832  0.00  0.00    +0.000 A 
ATOM     31  C   UNL     1       8.266   6.349  19.159  0.00  0.00    +0.000 A 
ATOM     32  N   UNL     1       8.323   7.488  18.438  0.00  0.00    +0.000 NA
ATOM     33  C   UNL     1       7.526   7.560  17.354  0.00  0.00    +0.000 A 
ATOM     34  C   UNL     1       6.639   6.563  16.992  0.00  0.00    +0.000 A 
ENDBRANCH  26  29
ENDBRANCH  23  25
ENDBRANCH   3  21
TORSDOF 6
ENDMDL
