MODEL 1
REMARK VINA RESULT:      -8.0      0.000      0.000
REMARK  Name = 
REMARK  7 active torsions:
REMARK  status: ('A' for Active; 'I' for Inactive)
REMARK    1  A    between atoms: C_1  and  C_2
REMARK    2  A    between atoms: C_2  and  C_3
REMARK    3  A    between atoms: C_2  and  C_4
REMARK    4  A    between atoms: C_6  and  C_7
REMARK    5  A    between atoms: N_19  and  C_20
REMARK    6  A    between atoms: C_20  and  C_21
REMARK    7  A    between atoms: C_26  and  C_27
REMARK                            x       y       z     vdW  Elec       q    Type
REMARK                         _______ _______ _______ _____ _____    ______ ____
ROOT
ATOM      1  C   UNL     1       1.290  13.045  19.784  0.00  0.00    +0.000 C 
ATOM      2  N   UNL     1       1.695  11.711  19.327  0.00  0.00    +0.000 NA
ATOM      3  C   UNL     1       1.202  10.659  19.899  0.00  0.00    +0.000 C 
ATOM      4  C   UNL     1       0.277  10.708  21.079  0.00  0.00    +0.000 A 
ATOM      5  C   UNL     1       0.470   9.737  22.086  0.00  0.00    +0.000 A 
ATOM      6  C   UNL     1      -0.362   9.675  23.203  0.00  0.00    +0.000 A 
ATOM      7  C   UNL     1      -1.354  10.626  23.364  0.00  0.00    +0.000 A 
ATOM      8  C   UNL     1      -1.550  11.603  22.384  0.00  0.00    +0.000 A 
ATOM      9  C   UNL     1      -0.774  11.642  21.209  0.00  0.00    +0.000 A 
ATOM     10  N   UNL     1      -1.122  12.584  20.185  0.00  0.00    +0.000 N 
ATOM     11  C   UNL     1      -0.181  13.219  19.365  0.00  0.00    +0.000 C 
ATOM     12  O   UNL     1      -0.515  13.915  18.403  0.00  0.00    +0.000 OA
ENDROOT
BRANCH   3  13
ATOM     13  C   UNL     1       1.654   9.333  19.354  0.00  0.00    +0.000 A 
ATOM     14  C   UNL     1       1.991   9.241  17.997  0.00  0.00    +0.000 A 
ATOM     15  C   UNL     1       2.464   8.040  17.466  0.00  0.00    +0.000 A 
ATOM     16  C   UNL     1       2.599   6.920  18.286  0.00  0.00    +0.000 A 
ATOM     17  C   UNL     1       2.238   6.995  19.631  0.00  0.00    +0.000 A 
ATOM     18  C   UNL     1       1.755   8.194  20.164  0.00  0.00    +0.000 A 
ENDBRANCH   3  13
BRANCH   1  20
ATOM     19  C   UNL     1       3.167  14.730  20.143  0.00  0.00    +0.000 C 
ATOM     20  C   UNL     1       2.209  14.102  19.120  0.00  0.00    +0.000 C 
ATOM     21  C   UNL     1       3.048  13.501  17.983  0.00  0.00    +0.000 C 
ENDBRANCH   1  20
BRANCH  10  22
ATOM     22  C   UNL     1      -2.542  12.860  19.892  0.00  0.00    +0.000 C 
BRANCH  22  23
ATOM     23  C   UNL     1      -3.207  11.917  18.889  0.00  0.00    +0.000 A 
ATOM     24  C   UNL     1      -2.397  11.018  18.158  0.00  0.00    +0.000 A 
ATOM     25  C   UNL     1      -2.909  10.225  17.137  0.00  0.00    +0.000 A 
ATOM     26  C   UNL     1      -4.255  10.295  16.837  0.00  0.00    +0.000 A 
ATOM     27  C   UNL     1      -5.094  11.094  17.615  0.00  0.00    +0.000 A 
ATOM     28  C   UNL     1      -4.616  11.898  18.681  0.00  0.00    +0.000 A 
BRANCH  28  29
ATOM     29  C   UNL     1      -5.623  12.618  19.527  0.00  0.00    +0.000 A 
ATOM     30  C   UNL     1      -6.059  12.119  20.769  0.00  0.00    +0.000 A 
ATOM     31  C   UNL     1      -7.034  12.770  21.536  0.00  0.00    +0.000 A 
ATOM     32  C   UNL     1      -7.653  13.913  21.049  0.00  0.00    +0.000 A 
ATOM     33  C   UNL     1      -7.278  14.418  19.810  0.00  0.00    +0.000 A 
ATOM     34  C   UNL     1      -6.262  13.791  19.075  0.00  0.00    +0.000 A 
ENDBRANCH  28  29
ENDBRANCH  22  23
ENDBRANCH  10  22
TORSDOF 5
ENDMDL
MODEL 2
REMARK VINA RESULT:      -8.0      2.348      4.691
REMARK  Name = 
REMARK  7 active torsions:
REMARK  status: ('A' for Active; 'I' for Inactive)
REMARK    1  A    between atoms: C_1  and  C_2
REMARK    2  A    between atoms: C_2  and  C_3
REMARK    3  A    between atoms: C_2  and  C_4
REMARK    4  A    between atoms: C_6  and  C_7
REMARK    5  A    between atoms: N_19  and  C_20
REMARK    6  A    between atoms: C_20  and  C_21
REMARK    7  A    between atoms: C_26  and  C_27
REMARK                            x       y       z     vdW  Elec       q    Type
REMARK                         _______ _______ _______ _____ _____    ______ ____
ROOT
ATOM      1  C   UNL     1      -1.750  11.677  17.962  0.00  0.00    +0.000 C 
ATOM      2  N   UNL     1      -0.900  10.511  18.228  0.00  0.00    +0.000 NA
ATOM      3  C   UNL     1       0.332  10.682  18.587  0.00  0.00    +0.000 C 
ATOM      4  C   UNL     1       0.994  12.025  18.680  0.00  0.00    +0.000 A 
ATOM      5  C   UNL     1       2.331  12.114  18.234  0.00  0.00    +0.000 A 
ATOM      6  C   UNL     1       3.045  13.309  18.315  0.00  0.00    +0.000 A 
ATOM      7  C   UNL     1       2.411  14.449  18.779  0.00  0.00    +0.000 A 
ATOM      8  C   UNL     1       1.084  14.382  19.212  0.00  0.00    +0.000 A 
ATOM      9  C   UNL     1       0.363  13.171  19.212  0.00  0.00    +0.000 A 
ATOM     10  N   UNL     1      -0.945  13.150  19.799  0.00  0.00    +0.000 N 
ATOM     11  C   UNL     1      -1.995  12.354  19.323  0.00  0.00    +0.000 C 
ATOM     12  O   UNL     1      -3.063  12.249  19.929  0.00  0.00    +0.000 OA
ENDROOT
BRANCH   3  13
ATOM     13  C   UNL     1       1.124   9.435  18.860  0.00  0.00    +0.000 A 
ATOM     14  C   UNL     1       1.145   8.919  20.163  0.00  0.00    +0.000 A 
ATOM     15  C   UNL     1       1.827   7.735  20.445  0.00  0.00    +0.000 A 
ATOM     16  C   UNL     1       2.499   7.058  19.428  0.00  0.00    +0.000 A 
ATOM     17  C   UNL     1       2.509   7.580  18.135  0.00  0.00    +0.000 A 
ATOM     18  C   UNL     1       1.834   8.771  17.851  0.00  0.00    +0.000 A 
ENDBRANCH   3  13
BRANCH   1  20
ATOM     19  C   UNL     1      -3.004  11.290  15.778  0.00  0.00    +0.000 C 
ATOM     20  C   UNL     1      -3.071  11.195  17.310  0.00  0.00    +0.000 C 
ATOM     21  C   UNL     1      -3.402   9.745  17.687  0.00  0.00    +0.000 C 
ENDBRANCH   1  20
BRANCH  10  22
ATOM     22  C   UNL     1      -1.214  13.927  21.025  0.00  0.00    +0.000 C 
BRANCH  22  23
ATOM     23  C   UNL     1      -2.067  15.181  20.840  0.00  0.00    +0.000 A 
ATOM     24  C   UNL     1      -1.672  16.139  19.878  0.00  0.00    +0.000 A 
ATOM     25  C   UNL     1      -2.320  17.363  19.745  0.00  0.00    +0.000 A 
ATOM     26  C   UNL     1      -3.398  17.650  20.558  0.00  0.00    +0.000 A 
ATOM     27  C   UNL     1      -3.873  16.679  21.440  0.00  0.00    +0.000 A 
ATOM     28  C   UNL     1      -3.258  15.409  21.589  0.00  0.00    +0.000 A 
BRANCH  28  29
ATOM     29  C   UNL     1      -3.927  14.400  22.473  0.00  0.00    +0.000 A 
ATOM     30  C   UNL     1      -5.214  13.896  22.202  0.00  0.00    +0.000 A 
ATOM     31  C   UNL     1      -5.855  12.989  23.055  0.00  0.00    +0.000 A 
ATOM     32  C   UNL     1      -5.252  12.607  24.246  0.00  0.00    +0.000 A 
ATOM     33  C   UNL     1      -3.998  13.111  24.568  0.00  0.00    +0.000 A 
ATOM     34  C   UNL     1      -3.339  13.975  23.682  0.00  0.00    +0.000 A 
ENDBRANCH  28  29
ENDBRANCH  22  23
ENDBRANCH  10  22
TORSDOF 5
ENDMDL
MODEL 3
REMARK VINA RESULT:      -7.9      2.365      6.331
REMARK  Name = 
REMARK  7 active torsions:
REMARK  status: ('A' for Active; 'I' for Inactive)
REMARK    1  A    between atoms: C_1  and  C_2
REMARK    2  A    between atoms: C_2  and  C_3
REMARK    3  A    between atoms: C_2  and  C_4
REMARK    4  A    between atoms: C_6  and  C_7
REMARK    5  A    between atoms: N_19  and  C_20
REMARK    6  A    between atoms: C_20  and  C_21
REMARK    7  A    between atoms: C_26  and  C_27
REMARK                            x       y       z     vdW  Elec       q    Type
REMARK                         _______ _______ _______ _____ _____    ______ ____
ROOT
ATOM      1  C   UNL     1      -0.753  11.484  21.749  0.00  0.00    +0.000 C 
ATOM      2  N   UNL     1      -1.265  11.186  20.408  0.00  0.00    +0.000 NA
ATOM      3  C   UNL     1      -2.268  11.858  19.939  0.00  0.00    +0.000 C 
ATOM      4  C   UNL     1      -3.012  12.898  20.721  0.00  0.00    +0.000 A 
ATOM      5  C   UNL     1      -4.416  12.934  20.568  0.00  0.00    +0.000 A 
ATOM      6  C   UNL     1      -5.194  13.889  21.224  0.00  0.00    +0.000 A 
ATOM      7  C   UNL     1      -4.587  14.777  22.095  0.00  0.00    +0.000 A 
ATOM      8  C   UNL     1      -3.201  14.747  22.268  0.00  0.00    +0.000 A 
ATOM      9  C   UNL     1      -2.383  13.843  21.561  0.00  0.00    +0.000 A 
ATOM     10  N   UNL     1      -0.959  13.962  21.684  0.00  0.00    +0.000 N 
ATOM     11  C   UNL     1      -0.085  12.868  21.661  0.00  0.00    +0.000 C 
ATOM     12  O   UNL     1       1.139  13.008  21.628  0.00  0.00    +0.000 OA
ENDROOT
BRANCH   3  13
ATOM     13  C   UNL     1      -2.714  11.502  18.548  0.00  0.00    +0.000 A 
ATOM     14  C   UNL     1      -1.848  10.766  17.729  0.00  0.00    +0.000 A 
ATOM     15  C   UNL     1      -2.247  10.373  16.450  0.00  0.00    +0.000 A 
ATOM     16  C   UNL     1      -3.513  10.718  15.978  0.00  0.00    +0.000 A 
ATOM     17  C   UNL     1      -4.370  11.475  16.776  0.00  0.00    +0.000 A 
ATOM     18  C   UNL     1      -3.970  11.879  18.053  0.00  0.00    +0.000 A 
ENDBRANCH   3  13
BRANCH   1  20
ATOM     19  C   UNL     1      -0.310   9.490  23.273  0.00  0.00    +0.000 C 
ATOM     20  C   UNL     1       0.256  10.379  22.156  0.00  0.00    +0.000 C 
ATOM     21  C   UNL     1       0.633   9.480  20.971  0.00  0.00    +0.000 C 
ENDBRANCH   1  20
BRANCH  10  22
ATOM     22  C   UNL     1      -0.336  15.299  21.753  0.00  0.00    +0.000 C 
BRANCH  22  23
ATOM     23  C   UNL     1      -0.660  16.241  20.593  0.00  0.00    +0.000 A 
ATOM     24  C   UNL     1      -1.431  17.397  20.850  0.00  0.00    +0.000 A 
ATOM     25  C   UNL     1      -1.876  18.230  19.829  0.00  0.00    +0.000 A 
ATOM     26  C   UNL     1      -1.540  17.937  18.521  0.00  0.00    +0.000 A 
ATOM     27  C   UNL     1      -0.690  16.863  18.253  0.00  0.00    +0.000 A 
ATOM     28  C   UNL     1      -0.194  16.005  19.268  0.00  0.00    +0.000 A 
BRANCH  28  29
ATOM     29  C   UNL     1       0.810  14.961  18.879  0.00  0.00    +0.000 A 
ATOM     30  C   UNL     1       0.431  13.691  18.403  0.00  0.00    +0.000 A 
ATOM     31  C   UNL     1       1.370  12.701  18.085  0.00  0.00    +0.000 A 
ATOM     32  C   UNL     1       2.722  12.931  18.298  0.00  0.00    +0.000 A 
ATOM     33  C   UNL     1       3.135  14.159  18.801  0.00  0.00    +0.000 A 
ATOM     34  C   UNL     1       2.193  15.163  19.064  0.00  0.00    +0.000 A 
ENDBRANCH  28  29
ENDBRANCH  22  23
ENDBRANCH  10  22
TORSDOF 5
ENDMDL
MODEL 4
REMARK VINA RESULT:      -7.9      3.122      6.123
REMARK  Name = 
REMARK  7 active torsions:
REMARK  status: ('A' for Active; 'I' for Inactive)
REMARK    1  A    between atoms: C_1  and  C_2
REMARK    2  A    between atoms: C_2  and  C_3
REMARK    3  A    between atoms: C_2  and  C_4
REMARK    4  A    between atoms: C_6  and  C_7
REMARK    5  A    between atoms: N_19  and  C_20
REMARK    6  A    between atoms: C_20  and  C_21
REMARK    7  A    between atoms: C_26  and  C_27
REMARK                            x       y       z     vdW  Elec       q    Type
REMARK                         _______ _______ _______ _____ _____    ______ ____
ROOT
ATOM      1  C   UNL     1      -1.267  11.808  19.527  0.00  0.00    +0.000 C 
ATOM      2  N   UNL     1      -2.670  11.906  19.111  0.00  0.00    +0.000 NA
ATOM      3  C   UNL     1      -3.538  12.455  19.900  0.00  0.00    +0.000 C 
ATOM      4  C   UNL     1      -3.216  12.944  21.281  0.00  0.00    +0.000 A 
ATOM      5  C   UNL     1      -4.181  12.711  22.285  0.00  0.00    +0.000 A 
ATOM      6  C   UNL     1      -3.992  13.161  23.592  0.00  0.00    +0.000 A 
ATOM      7  C   UNL     1      -2.805  13.789  23.928  0.00  0.00    +0.000 A 
ATOM      8  C   UNL     1      -1.833  14.014  22.950  0.00  0.00    +0.000 A 
ATOM      9  C   UNL     1      -2.030  13.639  21.607  0.00  0.00    +0.000 A 
ATOM     10  N   UNL     1      -1.052  14.026  20.633  0.00  0.00    +0.000 N 
ATOM     11  C   UNL     1      -0.712  13.243  19.522  0.00  0.00    +0.000 C 
ATOM     12  O   UNL     1       0.027  13.661  18.628  0.00  0.00    +0.000 OA
ENDROOT
BRANCH   3  13
ATOM     13  C   UNL     1      -4.948  12.533  19.386  0.00  0.00    +0.000 A 
ATOM     14  C   UNL     1      -5.475  11.436  18.692  0.00  0.00    +0.000 A 
ATOM     15  C   UNL     1      -6.797  11.451  18.243  0.00  0.00    +0.000 A 
ATOM     16  C   UNL     1      -7.601  12.565  18.481  0.00  0.00    +0.000 A 
ATOM     17  C   UNL     1      -7.076  13.673  19.145  0.00  0.00    +0.000 A 
ATOM     18  C   UNL     1      -5.749  13.665  19.587  0.00  0.00    +0.000 A 
ENDBRANCH   3  13
BRANCH   1  20
ATOM     19  C   UNL     1       0.391   9.890  19.265  0.00  0.00    +0.000 C 
ATOM     20  C   UNL     1      -0.512  10.892  18.529  0.00  0.00    +0.000 C 
ATOM     21  C   UNL     1      -1.476  10.101  17.633  0.00  0.00    +0.000 C 
ENDBRANCH   1  20
BRANCH  10  22
ATOM     22  C   UNL     1      -0.409  15.352  20.723  0.00  0.00    +0.000 C 
BRANCH  22  23
ATOM     23  C   UNL     1      -0.928  16.407  19.747  0.00  0.00    +0.000 A 
ATOM     24  C   UNL     1      -0.280  16.560  18.500  0.00  0.00    +0.000 A 
ATOM     25  C   UNL     1      -0.609  17.583  17.617  0.00  0.00    +0.000 A 
ATOM     26  C   UNL     1      -1.615  18.469  17.952  0.00  0.00    +0.000 A 
ATOM     27  C   UNL     1      -2.342  18.273  19.127  0.00  0.00    +0.000 A 
ATOM     28  C   UNL     1      -2.055  17.228  20.042  0.00  0.00    +0.000 A 
BRANCH  28  29
ATOM     29  C   UNL     1      -2.979  17.038  21.208  0.00  0.00    +0.000 A 
ATOM     30  C   UNL     1      -4.264  16.480  21.068  0.00  0.00    +0.000 A 
ATOM     31  C   UNL     1      -5.143  16.347  22.151  0.00  0.00    +0.000 A 
ATOM     32  C   UNL     1      -4.784  16.832  23.402  0.00  0.00    +0.000 A 
ATOM     33  C   UNL     1      -3.539  17.424  23.573  0.00  0.00    +0.000 A 
ATOM     34  C   UNL     1      -2.644  17.503  22.496  0.00  0.00    +0.000 A 
ENDBRANCH  28  29
ENDBRANCH  22  23
ENDBRANCH  10  22
TORSDOF 5
ENDMDL
MODEL 5
REMARK VINA RESULT:      -7.8      2.125      4.528
REMARK  Name = 
REMARK  7 active torsions:
REMARK  status: ('A' for Active; 'I' for Inactive)
REMARK    1  A    between atoms: C_1  and  C_2
REMARK    2  A    between atoms: C_2  and  C_3
REMARK    3  A    between atoms: C_2  and  C_4
REMARK    4  A    between atoms: C_6  and  C_7
REMARK    5  A    between atoms: N_19  and  C_20
REMARK    6  A    between atoms: C_20  and  C_21
REMARK    7  A    between atoms: C_26  and  C_27
REMARK                            x       y       z     vdW  Elec       q    Type
REMARK                         _______ _______ _______ _____ _____    ______ ____
ROOT
ATOM      1  C   UNL     1      -1.869  11.561  17.611  0.00  0.00    +0.000 C 
ATOM      2  N   UNL     1      -1.043  10.456  18.108  0.00  0.00    +0.000 NA
ATOM      3  C   UNL     1       0.135  10.700  18.588  0.00  0.00    +0.000 C 
ATOM      4  C   UNL     1       0.763  12.062  18.603  0.00  0.00    +0.000 A 
ATOM      5  C   UNL     1       2.143  12.135  18.311  0.00  0.00    +0.000 A 
ATOM      6  C   UNL     1       2.826  13.351  18.337  0.00  0.00    +0.000 A 
ATOM      7  C   UNL     1       2.126  14.518  18.589  0.00  0.00    +0.000 A 
ATOM      8  C   UNL     1       0.758  14.465  18.867  0.00  0.00    +0.000 A 
ATOM      9  C   UNL     1       0.058  13.243  18.921  0.00  0.00    +0.000 A 
ATOM     10  N   UNL     1      -1.311  13.252  19.348  0.00  0.00    +0.000 N 
ATOM     11  C   UNL     1      -2.286  12.380  18.846  0.00  0.00    +0.000 C 
ATOM     12  O   UNL     1      -3.418  12.315  19.330  0.00  0.00    +0.000 OA
ENDROOT
BRANCH   3  13
ATOM     13  C   UNL     1       0.905   9.512  19.094  0.00  0.00    +0.000 A 
ATOM     14  C   UNL     1       0.797   9.165  20.448  0.00  0.00    +0.000 A 
ATOM     15  C   UNL     1       1.456   8.039  20.944  0.00  0.00    +0.000 A 
ATOM     16  C   UNL     1       2.233   7.255  20.093  0.00  0.00    +0.000 A 
ATOM     17  C   UNL     1       2.370   7.610  18.751  0.00  0.00    +0.000 A 
ATOM     18  C   UNL     1       1.719   8.742  18.253  0.00  0.00    +0.000 A 
ENDBRANCH   3  13
BRANCH   1  20
ATOM     19  C   UNL     1      -2.818  10.824  15.364  0.00  0.00    +0.000 C 
ATOM     20  C   UNL     1      -3.096  10.973  16.867  0.00  0.00    +0.000 C 
ATOM     21  C   UNL     1      -3.499   9.599  17.419  0.00  0.00    +0.000 C 
ENDBRANCH   1  20
BRANCH  10  22
ATOM     22  C   UNL     1      -1.736  14.155  20.436  0.00  0.00    +0.000 C 
BRANCH  22  23
ATOM     23  C   UNL     1      -2.236  13.471  21.708  0.00  0.00    +0.000 A 
ATOM     24  C   UNL     1      -1.457  12.439  22.278  0.00  0.00    +0.000 A 
ATOM     25  C   UNL     1      -1.907  11.682  23.355  0.00  0.00    +0.000 A 
ATOM     26  C   UNL     1      -3.144  11.957  23.905  0.00  0.00    +0.000 A 
ATOM     27  C   UNL     1      -3.883  13.041  23.430  0.00  0.00    +0.000 A 
ATOM     28  C   UNL     1      -3.449  13.853  22.351  0.00  0.00    +0.000 A 
BRANCH  28  29
ATOM     29  C   UNL     1      -4.264  15.064  22.007  0.00  0.00    +0.000 A 
ATOM     30  C   UNL     1      -4.008  16.329  22.568  0.00  0.00    +0.000 A 
ATOM     31  C   UNL     1      -4.800  17.448  22.281  0.00  0.00    +0.000 A 
ATOM     32  C   UNL     1      -5.919  17.319  21.468  0.00  0.00    +0.000 A 
ATOM     33  C   UNL     1      -6.227  16.079  20.924  0.00  0.00    +0.000 A 
ATOM     34  C   UNL     1      -5.397  14.976  21.172  0.00  0.00    +0.000 A 
ENDBRANCH  28  29
ENDBRANCH  22  23
ENDBRANCH  10  22
TORSDOF 5
ENDMDL
MODEL 6
REMARK VINA RESULT:      -7.8      1.976      7.486
REMARK  Name = 
REMARK  7 active torsions:
REMARK  status: ('A' for Active; 'I' for Inactive)
REMARK    1  A    between atoms: C_1  and  C_2
REMARK    2  A    between atoms: C_2  and  C_3
REMARK    3  A    between atoms: C_2  and  C_4
REMARK    4  A    between atoms: C_6  and  C_7
REMARK    5  A    between atoms: N_19  and  C_20
REMARK    6  A    between atoms: C_20  and  C_21
REMARK    7  A    between atoms: C_26  and  C_27
REMARK                            x       y       z     vdW  Elec       q    Type
REMARK                         _______ _______ _______ _____ _____    ______ ____
ROOT
ATOM      1  C   UNL     1      -1.530  15.106  19.750  0.00  0.00    +0.000 C 
ATOM      2  N   UNL     1      -2.555  15.009  20.796  0.00  0.00    +0.000 NA
ATOM      3  C   UNL     1      -3.341  13.981  20.831  0.00  0.00    +0.000 C 
ATOM      4  C   UNL     1      -3.329  12.887  19.805  0.00  0.00    +0.000 A 
ATOM      5  C   UNL     1      -4.580  12.369  19.404  0.00  0.00    +0.000 A 
ATOM      6  C   UNL     1      -4.672  11.325  18.485  0.00  0.00    +0.000 A 
ATOM      7  C   UNL     1      -3.519  10.830  17.901  0.00  0.00    +0.000 A 
ATOM      8  C   UNL     1      -2.274  11.341  18.275  0.00  0.00    +0.000 A 
ATOM      9  C   UNL     1      -2.146  12.343  19.257  0.00  0.00    +0.000 A 
ATOM     10  N   UNL     1      -0.832  12.719  19.691  0.00  0.00    +0.000 N 
ATOM     11  C   UNL     1      -0.484  14.023  20.066  0.00  0.00    +0.000 C 
ATOM     12  O   UNL     1       0.611  14.290  20.567  0.00  0.00    +0.000 OA
ENDROOT
BRANCH   3  13
ATOM     13  C   UNL     1      -4.347  13.952  21.947  0.00  0.00    +0.000 A 
ATOM     14  C   UNL     1      -5.355  14.925  21.973  0.00  0.00    +0.000 A 
ATOM     15  C   UNL     1      -6.337  14.901  22.965  0.00  0.00    +0.000 A 
ATOM     16  C   UNL     1      -6.317  13.906  23.941  0.00  0.00    +0.000 A 
ATOM     17  C   UNL     1      -5.300  12.951  23.941  0.00  0.00    +0.000 A 
ATOM     18  C   UNL     1      -4.309  12.979  22.954  0.00  0.00    +0.000 A 
ENDBRANCH   3  13
BRANCH   1  20
ATOM     19  C   UNL     1      -0.520  16.998  18.373  0.00  0.00    +0.000 C 
ATOM     20  C   UNL     1      -0.916  16.530  19.782  0.00  0.00    +0.000 C 
ATOM     21  C   UNL     1      -1.887  17.561  20.375  0.00  0.00    +0.000 C 
ENDBRANCH   1  20
BRANCH  10  22
ATOM     22  C   UNL     1       0.214  11.690  19.846  0.00  0.00    +0.000 C 
BRANCH  22  23
ATOM     23  C   UNL     1       0.046  10.749  21.040  0.00  0.00    +0.000 A 
ATOM     24  C   UNL     1      -0.796  11.143  22.105  0.00  0.00    +0.000 A 
ATOM     25  C   UNL     1      -0.896  10.406  23.280  0.00  0.00    +0.000 A 
ATOM     26  C   UNL     1      -0.170   9.237  23.409  0.00  0.00    +0.000 A 
ATOM     27  C   UNL     1       0.583   8.772  22.330  0.00  0.00    +0.000 A 
ATOM     28  C   UNL     1       0.691   9.481  21.106  0.00  0.00    +0.000 A 
BRANCH  28  29
ATOM     29  C   UNL     1       1.425   8.826  19.974  0.00  0.00    +0.000 A 
ATOM     30  C   UNL     1       1.495   9.398  18.690  0.00  0.00    +0.000 A 
ATOM     31  C   UNL     1       2.142   8.762  17.623  0.00  0.00    +0.000 A 
ATOM     32  C   UNL     1       2.683   7.495  17.793  0.00  0.00    +0.000 A 
ATOM     33  C   UNL     1       2.602   6.879  19.036  0.00  0.00    +0.000 A 
ATOM     34  C   UNL     1       2.003   7.547  20.113  0.00  0.00    +0.000 A 
ENDBRANCH  28  29
ENDBRANCH  22  23
ENDBRANCH  10  22
TORSDOF 5
ENDMDL
MODEL 7
REMARK VINA RESULT:      -7.8      7.321     11.533
REMARK  Name = 
REMARK  7 active torsions:
REMARK  status: ('A' for Active; 'I' for Inactive)
REMARK    1  A    between atoms: C_1  and  C_2
REMARK    2  A    between atoms: C_2  and  C_3
REMARK    3  A    between atoms: C_2  and  C_4
REMARK    4  A    between atoms: C_6  and  C_7
REMARK    5  A    between atoms: N_19  and  C_20
REMARK    6  A    between atoms: C_20  and  C_21
REMARK    7  A    between atoms: C_26  and  C_27
REMARK                            x       y       z     vdW  Elec       q    Type
REMARK                         _______ _______ _______ _____ _____    ______ ____
ROOT
ATOM      1  C   UNL     1       7.572  12.842  24.169  0.00  0.00    +0.000 C 
ATOM      2  N   UNL     1       6.366  13.331  23.492  0.00  0.00    +0.000 NA
ATOM      3  C   UNL     1       6.438  14.372  22.724  0.00  0.00    +0.000 C 
ATOM      4  C   UNL     1       7.686  15.181  22.532  0.00  0.00    +0.000 A 
ATOM      5  C   UNL     1       7.536  16.584  22.462  0.00  0.00    +0.000 A 
ATOM      6  C   UNL     1       8.631  17.420  22.246  0.00  0.00    +0.000 A 
ATOM      7  C   UNL     1       9.900  16.871  22.167  0.00  0.00    +0.000 A 
ATOM      8  C   UNL     1      10.067  15.487  22.248  0.00  0.00    +0.000 A 
ATOM      9  C   UNL     1       8.971  14.613  22.389  0.00  0.00    +0.000 A 
ATOM     10  N   UNL     1       9.204  13.199  22.326  0.00  0.00    +0.000 N 
ATOM     11  C   UNL     1       8.480  12.260  23.071  0.00  0.00    +0.000 C 
ATOM     12  O   UNL     1       8.605  11.047  22.894  0.00  0.00    +0.000 OA
ENDROOT
BRANCH   3  13
ATOM     13  C   UNL     1       5.160  14.791  22.053  0.00  0.00    +0.000 A 
ATOM     14  C   UNL     1       5.076  14.720  20.656  0.00  0.00    +0.000 A 
ATOM     15  C   UNL     1       3.890  15.052  20.000  0.00  0.00    +0.000 A 
ATOM     16  C   UNL     1       2.779  15.464  20.735  0.00  0.00    +0.000 A 
ATOM     17  C   UNL     1       2.863  15.567  22.123  0.00  0.00    +0.000 A 
ATOM     18  C   UNL     1       4.053  15.244  22.783  0.00  0.00    +0.000 A 
ENDBRANCH   3  13
BRANCH   1  20
ATOM     19  C   UNL     1       7.216  12.327  26.639  0.00  0.00    +0.000 C 
ATOM     20  C   UNL     1       7.161  11.768  25.210  0.00  0.00    +0.000 C 
ATOM     21  C   UNL     1       5.744  11.237  24.956  0.00  0.00    +0.000 C 
ENDBRANCH   1  20
BRANCH  10  22
ATOM     22  C   UNL     1      10.192  12.660  21.372  0.00  0.00    +0.000 C 
BRANCH  22  23
ATOM     23  C   UNL     1       9.613  11.996  20.123  0.00  0.00    +0.000 A 
ATOM     24  C   UNL     1       9.393  10.600  20.132  0.00  0.00    +0.000 A 
ATOM     25  C   UNL     1       8.994   9.907  18.995  0.00  0.00    +0.000 A 
ATOM     26  C   UNL     1       8.783  10.600  17.819  0.00  0.00    +0.000 A 
ATOM     27  C   UNL     1       8.889  11.991  17.812  0.00  0.00    +0.000 A 
ATOM     28  C   UNL     1       9.268  12.739  18.956  0.00  0.00    +0.000 A 
BRANCH  28  29
ATOM     29  C   UNL     1       9.228  14.235  18.867  0.00  0.00    +0.000 A 
ATOM     30  C   UNL     1       8.021  14.958  18.863  0.00  0.00    +0.000 A 
ATOM     31  C   UNL     1       7.985  16.352  18.733  0.00  0.00    +0.000 A 
ATOM     32  C   UNL     1       9.161  17.063  18.534  0.00  0.00    +0.000 A 
ATOM     33  C   UNL     1      10.371  16.382  18.494  0.00  0.00    +0.000 A 
ATOM     34  C   UNL     1      10.403  14.993  18.682  0.00  0.00    +0.000 A 
ENDBRANCH  28  29
ENDBRANCH  22  23
ENDBRANCH  10  22
TORSDOF 5
ENDMDL
MODEL 8
REMARK VINA RESULT:      -7.7      2.380      6.410
REMARK  Name = 
REMARK  7 active torsions:
REMARK  status: ('A' for Active; 'I' for Inactive)
REMARK    1  A    between atoms: C_1  and  C_2
REMARK    2  A    between atoms: C_2  and  C_3
REMARK    3  A    between atoms: C_2  and  C_4
REMARK    4  A    between atoms: C_6  and  C_7
REMARK    5  A    between atoms: N_19  and  C_20
REMARK    6  A    between atoms: C_20  and  C_21
REMARK    7  A    between atoms: C_26  and  C_27
REMARK                            x       y       z     vdW  Elec       q    Type
REMARK                         _______ _______ _______ _____ _____    ______ ____
ROOT
ATOM      1  C   UNL     1      -0.818  11.555  21.781  0.00  0.00    +0.000 C 
ATOM      2  N   UNL     1      -1.327  11.255  20.438  0.00  0.00    +0.000 NA
ATOM      3  C   UNL     1      -2.336  11.917  19.971  0.00  0.00    +0.000 C 
ATOM      4  C   UNL     1      -3.092  12.948  20.756  0.00  0.00    +0.000 A 
ATOM      5  C   UNL     1      -4.496  12.969  20.603  0.00  0.00    +0.000 A 
ATOM      6  C   UNL     1      -5.283  13.914  21.260  0.00  0.00    +0.000 A 
ATOM      7  C   UNL     1      -4.686  14.806  22.134  0.00  0.00    +0.000 A 
ATOM      8  C   UNL     1      -3.300  14.790  22.307  0.00  0.00    +0.000 A 
ATOM      9  C   UNL     1      -2.472  13.897  21.598  0.00  0.00    +0.000 A 
ATOM     10  N   UNL     1      -1.050  14.031  21.721  0.00  0.00    +0.000 N 
ATOM     11  C   UNL     1      -0.164  12.946  21.696  0.00  0.00    +0.000 C 
ATOM     12  O   UNL     1       1.058  13.099  21.663  0.00  0.00    +0.000 OA
ENDROOT
BRANCH   3  13
ATOM     13  C   UNL     1      -2.779  11.560  18.579  0.00  0.00    +0.000 A 
ATOM     14  C   UNL     1      -4.112  11.791  18.215  0.00  0.00    +0.000 A 
ATOM     15  C   UNL     1      -4.549  11.520  16.917  0.00  0.00    +0.000 A 
ATOM     16  C   UNL     1      -3.657  11.012  15.974  0.00  0.00    +0.000 A 
ATOM     17  C   UNL     1      -2.335  10.752  16.336  0.00  0.00    +0.000 A 
ATOM     18  C   UNL     1      -1.897  11.013  17.638  0.00  0.00    +0.000 A 
ENDBRANCH   3  13
BRANCH   1  20
ATOM     19  C   UNL     1      -0.366   9.542  23.278  0.00  0.00    +0.000 C 
ATOM     20  C   UNL     1       0.203  10.460  22.185  0.00  0.00    +0.000 C 
ATOM     21  C   UNL     1       0.613   9.588  20.990  0.00  0.00    +0.000 C 
ENDBRANCH   1  20
BRANCH  10  22
ATOM     22  C   UNL     1      -0.441  15.374  21.793  0.00  0.00    +0.000 C 
BRANCH  22  23
ATOM     23  C   UNL     1      -0.724  16.294  20.606  0.00  0.00    +0.000 A 
ATOM     24  C   UNL     1      -1.531  17.437  20.806  0.00  0.00    +0.000 A 
ATOM     25  C   UNL     1      -1.940  18.247  19.752  0.00  0.00    +0.000 A 
ATOM     26  C   UNL     1      -1.531  17.944  18.468  0.00  0.00    +0.000 A 
ATOM     27  C   UNL     1      -0.647  16.885  18.259  0.00  0.00    +0.000 A 
ATOM     28  C   UNL     1      -0.186  16.051  19.309  0.00  0.00    +0.000 A 
BRANCH  28  29
ATOM     29  C   UNL     1       0.858  15.023  18.987  0.00  0.00    +0.000 A 
ATOM     30  C   UNL     1       2.236  15.285  19.105  0.00  0.00    +0.000 A 
ATOM     31  C   UNL     1       3.209  14.339  18.759  0.00  0.00    +0.000 A 
ATOM     32  C   UNL     1       2.830  13.117  18.218  0.00  0.00    +0.000 A 
ATOM     33  C   UNL     1       1.481  12.834  18.051  0.00  0.00    +0.000 A 
ATOM     34  C   UNL     1       0.512  13.765  18.452  0.00  0.00    +0.000 A 
ENDBRANCH  28  29
ENDBRANCH  22  23
ENDBRANCH  10  22
TORSDOF 5
ENDMDL
MODEL 9
REMARK VINA RESULT:      -7.7      8.177     12.088
REMARK  Name = 
REMARK  7 active torsions:
REMARK  status: ('A' for Active; 'I' for Inactive)
REMARK    1  A    between atoms: C_1  and  C_2
REMARK    2  A    between atoms: C_2  and  C_3
REMARK    3  A    between atoms: C_2  and  C_4
REMARK    4  A    between atoms: C_6  and  C_7
REMARK    5  A    between atoms: N_19  and  C_20
REMARK    6  A    between atoms: C_20  and  C_21
REMARK    7  A    between atoms: C_26  and  C_27
REMARK                            x       y       z     vdW  Elec       q    Type
REMARK                         _______ _______ _______ _____ _____    ______ ____
ROOT
ATOM      1  C   UNL     1       7.594  14.014  23.564  0.00  0.00    +0.000 C 
ATOM      2  N   UNL     1       6.541  14.490  22.660  0.00  0.00    +0.000 NA
ATOM      3  C   UNL     1       6.833  15.335  21.723  0.00  0.00    +0.000 C 
ATOM      4  C   UNL     1       8.194  15.938  21.538  0.00  0.00    +0.000 A 
ATOM      5  C   UNL     1       8.248  17.304  21.184  0.00  0.00    +0.000 A 
ATOM      6  C   UNL     1       9.465  17.945  20.952  0.00  0.00    +0.000 A 
ATOM      7  C   UNL     1      10.647  17.249  21.140  0.00  0.00    +0.000 A 
ATOM      8  C   UNL     1      10.611  15.900  21.504  0.00  0.00    +0.000 A 
ATOM      9  C   UNL     1       9.396  15.207  21.670  0.00  0.00    +0.000 A 
ATOM     10  N   UNL     1       9.436  13.794  21.907  0.00  0.00    +0.000 N 
ATOM     11  C   UNL     1       8.518  13.118  22.721  0.00  0.00    +0.000 C 
ATOM     12  O   UNL     1       8.490  11.888  22.795  0.00  0.00    +0.000 OA
ENDROOT
BRANCH   3  13
ATOM     13  C   UNL     1       5.700  15.754  20.829  0.00  0.00    +0.000 A 
ATOM     14  C   UNL     1       4.685  16.562  21.358  0.00  0.00    +0.000 A 
ATOM     15  C   UNL     1       3.643  17.013  20.546  0.00  0.00    +0.000 A 
ATOM     16  C   UNL     1       3.604  16.655  19.200  0.00  0.00    +0.000 A 
ATOM     17  C   UNL     1       4.593  15.826  18.671  0.00  0.00    +0.000 A 
ATOM     18  C   UNL     1       5.633  15.365  19.484  0.00  0.00    +0.000 A 
ENDBRANCH   3  13
BRANCH   1  20
ATOM     19  C   UNL     1       7.867  13.158  25.949  0.00  0.00    +0.000 C 
ATOM     20  C   UNL     1       6.935  13.232  24.730  0.00  0.00    +0.000 C 
ATOM     21  C   UNL     1       5.612  13.870  25.174  0.00  0.00    +0.000 C 
ENDBRANCH   1  20
BRANCH  10  22
ATOM     22  C   UNL     1      10.430  12.959  21.205  0.00  0.00    +0.000 C 
BRANCH  22  23
ATOM     23  C   UNL     1       9.892  12.123  20.043  0.00  0.00    +0.000 A 
ATOM     24  C   UNL     1       9.485  10.793  20.292  0.00  0.00    +0.000 A 
ATOM     25  C   UNL     1       9.110   9.931  19.267  0.00  0.00    +0.000 A 
ATOM     26  C   UNL     1       9.112  10.389  17.963  0.00  0.00    +0.000 A 
ATOM     27  C   UNL     1       9.406  11.728  17.705  0.00  0.00    +0.000 A 
ATOM     28  C   UNL     1       9.768  12.646  18.723  0.00  0.00    +0.000 A 
BRANCH  28  29
ATOM     29  C   UNL     1       9.940  14.087  18.346  0.00  0.00    +0.000 A 
ATOM     30  C   UNL     1       8.846  14.937  18.097  0.00  0.00    +0.000 A 
ATOM     31  C   UNL     1       9.011  16.270  17.699  0.00  0.00    +0.000 A 
ATOM     32  C   UNL     1      10.284  16.776  17.474  0.00  0.00    +0.000 A 
ATOM     33  C   UNL     1      11.389  15.958  17.673  0.00  0.00    +0.000 A 
ATOM     34  C   UNL     1      11.217  14.642  18.124  0.00  0.00    +0.000 A 
ENDBRANCH  28  29
ENDBRANCH  22  23
ENDBRANCH  10  22
TORSDOF 5
ENDMDL
