MODEL 1
REMARK VINA RESULT:      -7.1      0.000      0.000
REMARK  Name = 
REMARK  6 active torsions:
REMARK  status: ('A' for Active; 'I' for Inactive)
REMARK    1  A    between atoms: C_1  and  C_2
REMARK    2  A    between atoms: C_2  and  O_3
REMARK    3  A    between atoms: O_3  and  C_4
REMARK    4  A    between atoms: C_4  and  C_6
REMARK    5  A    between atoms: C_10  and  C_11
REMARK    6  A    between atoms: N_14  and  C_15
REMARK                            x       y       z     vdW  Elec       q    Type
REMARK                         _______ _______ _______ _____ _____    ______ ____
ROOT
ATOM      1  C   UNL     1       6.427   4.625  16.107  0.00  0.00    +0.000 A 
ATOM      2  C   UNL     1       7.387   4.926  17.077  0.00  0.00    +0.000 A 
ATOM      3  C   UNL     1       7.049   4.740  18.404  0.00  0.00    +0.000 A 
ATOM      4  N   UNL     1       5.844   4.288  18.812  0.00  0.00    +0.000 NA
ATOM      5  C   UNL     1       4.921   4.002  17.856  0.00  0.00    +0.000 A 
ATOM      6  C   UNL     1       5.176   4.161  16.502  0.00  0.00    +0.000 A 
ENDROOT
BRANCH   5   7
ATOM      7  C   UNL     1       3.632   3.483  18.328  0.00  0.00    +0.000 A 
ATOM      8  C   UNL     1       2.681   2.739  17.576  0.00  0.00    +0.000 A 
ATOM      9  C   UNL     1       1.639   2.487  18.435  0.00  0.00    +0.000 A 
ATOM     10  N   UNL     1       1.991   3.065  19.617  0.00  0.00    +0.000 N 
ATOM     11  C   UNL     1       1.220   3.083  20.836  0.00  0.00    +0.000 C 
ATOM     12  N   UNL     1       3.187   3.673  19.585  0.00  0.00    +0.000 NA
ENDBRANCH   5   7
BRANCH   1  13
ATOM     13  C   UNL     1       6.719   4.698  14.656  0.00  0.00    +0.000 C 
ATOM     14  O   UNL     1       7.627   5.360  14.181  0.00  0.00    +0.000 OA
BRANCH  13  15
ATOM     15  O   UNL     1       5.763   4.034  13.961  0.00  0.00    +0.000 OA
BRANCH  15  17
ATOM     16  C   UNL     1       4.902   3.231  11.887  0.00  0.00    +0.000 C 
ATOM     17  C   UNL     1       6.161   3.573  12.663  0.00  0.00    +0.000 C 
ENDBRANCH  15  17
ENDBRANCH  13  15
ENDBRANCH   1  13
TORSDOF 4
ENDMDL
MODEL 2
REMARK VINA RESULT:      -6.9      2.503      4.271
REMARK  Name = 
REMARK  6 active torsions:
REMARK  status: ('A' for Active; 'I' for Inactive)
REMARK    1  A    between atoms: C_1  and  C_2
REMARK    2  A    between atoms: C_2  and  O_3
REMARK    3  A    between atoms: O_3  and  C_4
REMARK    4  A    between atoms: C_4  and  C_6
REMARK    5  A    between atoms: C_10  and  C_11
REMARK    6  A    between atoms: N_14  and  C_15
REMARK                            x       y       z     vdW  Elec       q    Type
REMARK                         _______ _______ _______ _____ _____    ______ ____
ROOT
ATOM      1  C   UNL     1       6.161   3.802  12.658  0.00  0.00    +0.000 A 
ATOM      2  C   UNL     1       7.238   4.493  12.099  0.00  0.00    +0.000 A 
ATOM      3  C   UNL     1       8.024   5.258  12.939  0.00  0.00    +0.000 A 
ATOM      4  N   UNL     1       7.806   5.376  14.265  0.00  0.00    +0.000 NA
ATOM      5  C   UNL     1       6.753   4.699  14.794  0.00  0.00    +0.000 A 
ATOM      6  C   UNL     1       5.912   3.909  14.023  0.00  0.00    +0.000 A 
ENDROOT
BRANCH   5   7
ATOM      7  C   UNL     1       6.559   4.820  16.243  0.00  0.00    +0.000 A 
ATOM      8  C   UNL     1       7.307   5.629  17.143  0.00  0.00    +0.000 A 
ATOM      9  C   UNL     1       6.767   5.404  18.386  0.00  0.00    +0.000 A 
ATOM     10  N   UNL     1       5.760   4.508  18.191  0.00  0.00    +0.000 N 
ATOM     11  C   UNL     1       4.891   3.949  19.198  0.00  0.00    +0.000 C 
ATOM     12  N   UNL     1       5.609   4.136  16.910  0.00  0.00    +0.000 NA
ENDBRANCH   5   7
BRANCH   1  13
ATOM     13  C   UNL     1       5.314   2.880  11.864  0.00  0.00    +0.000 C 
ATOM     14  O   UNL     1       5.710   1.820  11.409  0.00  0.00    +0.000 OA
BRANCH  13  15
ATOM     15  O   UNL     1       4.107   3.452  11.631  0.00  0.00    +0.000 OA
BRANCH  15  17
ATOM     16  C   UNL     1       2.976   4.177   9.661  0.00  0.00    +0.000 C 
ATOM     17  C   UNL     1       3.419   2.971  10.469  0.00  0.00    +0.000 C 
ENDBRANCH  15  17
ENDBRANCH  13  15
ENDBRANCH   1  13
TORSDOF 4
ENDMDL
MODEL 3
REMARK VINA RESULT:      -6.8      1.383      1.532
REMARK  Name = 
REMARK  6 active torsions:
REMARK  status: ('A' for Active; 'I' for Inactive)
REMARK    1  A    between atoms: C_1  and  C_2
REMARK    2  A    between atoms: C_2  and  O_3
REMARK    3  A    between atoms: O_3  and  C_4
REMARK    4  A    between atoms: C_4  and  C_6
REMARK    5  A    between atoms: C_10  and  C_11
REMARK    6  A    between atoms: N_14  and  C_15
REMARK                            x       y       z     vdW  Elec       q    Type
REMARK                         _______ _______ _______ _____ _____    ______ ____
ROOT
ATOM      1  C   UNL     1       5.272   5.189  15.985  0.00  0.00    +0.000 A 
ATOM      2  C   UNL     1       5.194   6.546  16.307  0.00  0.00    +0.000 A 
ATOM      3  C   UNL     1       4.337   6.924  17.322  0.00  0.00    +0.000 A 
ATOM      4  N   UNL     1       3.571   6.056  18.015  0.00  0.00    +0.000 NA
ATOM      5  C   UNL     1       3.656   4.739  17.689  0.00  0.00    +0.000 A 
ATOM      6  C   UNL     1       4.490   4.273  16.682  0.00  0.00    +0.000 A 
ENDROOT
BRANCH   5   7
ATOM      7  C   UNL     1       2.836   3.816  18.480  0.00  0.00    +0.000 A 
ATOM      8  C   UNL     1       2.036   2.746  17.991  0.00  0.00    +0.000 A 
ATOM      9  C   UNL     1       1.453   2.178  19.099  0.00  0.00    +0.000 A 
ATOM     10  N   UNL     1       1.906   2.898  20.161  0.00  0.00    +0.000 N 
ATOM     11  C   UNL     1       1.574   2.697  21.550  0.00  0.00    +0.000 C 
ATOM     12  N   UNL     1       2.742   3.893  19.822  0.00  0.00    +0.000 NA
ENDBRANCH   5   7
BRANCH   1  13
ATOM     13  C   UNL     1       6.228   4.667  14.979  0.00  0.00    +0.000 C 
ATOM     14  O   UNL     1       7.437   4.803  15.061  0.00  0.00    +0.000 OA
BRANCH  13  15
ATOM     15  O   UNL     1       5.549   4.145  13.928  0.00  0.00    +0.000 OA
BRANCH  15  17
ATOM     16  C   UNL     1       5.452   2.990  11.844  0.00  0.00    +0.000 C 
ATOM     17  C   UNL     1       6.365   3.663  12.853  0.00  0.00    +0.000 C 
ENDBRANCH  15  17
ENDBRANCH  13  15
ENDBRANCH   1  13
TORSDOF 4
ENDMDL
MODEL 4
REMARK VINA RESULT:      -6.8      3.066      4.539
REMARK  Name = 
REMARK  6 active torsions:
REMARK  status: ('A' for Active; 'I' for Inactive)
REMARK    1  A    between atoms: C_1  and  C_2
REMARK    2  A    between atoms: C_2  and  O_3
REMARK    3  A    between atoms: O_3  and  C_4
REMARK    4  A    between atoms: C_4  and  C_6
REMARK    5  A    between atoms: C_10  and  C_11
REMARK    6  A    between atoms: N_14  and  C_15
REMARK                            x       y       z     vdW  Elec       q    Type
REMARK                         _______ _______ _______ _____ _____    ______ ____
ROOT
ATOM      1  C   UNL     1       6.235   3.618  12.526  0.00  0.00    +0.000 A 
ATOM      2  C   UNL     1       7.225   4.407  11.934  0.00  0.00    +0.000 A 
ATOM      3  C   UNL     1       7.947   5.260  12.746  0.00  0.00    +0.000 A 
ATOM      4  N   UNL     1       7.745   5.375  14.075  0.00  0.00    +0.000 NA
ATOM      5  C   UNL     1       6.776   4.603  14.636  0.00  0.00    +0.000 A 
ATOM      6  C   UNL     1       6.004   3.721  13.894  0.00  0.00    +0.000 A 
ENDROOT
BRANCH   5   7
ATOM      7  C   UNL     1       6.601   4.726  16.087  0.00  0.00    +0.000 A 
ATOM      8  C   UNL     1       5.474   4.317  16.852  0.00  0.00    +0.000 A 
ATOM      9  C   UNL     1       5.767   4.643  18.155  0.00  0.00    +0.000 A 
ATOM     10  N   UNL     1       7.003   5.213  18.120  0.00  0.00    +0.000 N 
ATOM     11  C   UNL     1       7.750   5.732  19.240  0.00  0.00    +0.000 C 
ATOM     12  N   UNL     1       7.534   5.277  16.889  0.00  0.00    +0.000 NA
ENDBRANCH   5   7
BRANCH   1  13
ATOM     13  C   UNL     1       5.469   2.604  11.763  0.00  0.00    +0.000 C 
ATOM     14  O   UNL     1       5.978   1.630  11.234  0.00  0.00    +0.000 OA
BRANCH  13  15
ATOM     15  O   UNL     1       4.176   2.994  11.648  0.00  0.00    +0.000 OA
BRANCH  15  17
ATOM     16  C   UNL     1       2.861   3.540   9.736  0.00  0.00    +0.000 C 
ATOM     17  C   UNL     1       3.936   4.032  10.689  0.00  0.00    +0.000 C 
ENDBRANCH  15  17
ENDBRANCH  13  15
ENDBRANCH   1  13
TORSDOF 4
ENDMDL
MODEL 5
REMARK VINA RESULT:      -6.6      0.912      1.232
REMARK  Name = 
REMARK  6 active torsions:
REMARK  status: ('A' for Active; 'I' for Inactive)
REMARK    1  A    between atoms: C_1  and  C_2
REMARK    2  A    between atoms: C_2  and  O_3
REMARK    3  A    between atoms: O_3  and  C_4
REMARK    4  A    between atoms: C_4  and  C_6
REMARK    5  A    between atoms: C_10  and  C_11
REMARK    6  A    between atoms: N_14  and  C_15
REMARK                            x       y       z     vdW  Elec       q    Type
REMARK                         _______ _______ _______ _____ _____    ______ ____
ROOT
ATOM      1  C   UNL     1       6.642   4.739  16.365  0.00  0.00    +0.000 A 
ATOM      2  C   UNL     1       7.641   4.946  17.319  0.00  0.00    +0.000 A 
ATOM      3  C   UNL     1       7.281   4.921  18.652  0.00  0.00    +0.000 A 
ATOM      4  N   UNL     1       6.019   4.712  19.081  0.00  0.00    +0.000 NA
ATOM      5  C   UNL     1       5.057   4.516  18.141  0.00  0.00    +0.000 A 
ATOM      6  C   UNL     1       5.331   4.526  16.781  0.00  0.00    +0.000 A 
ENDROOT
BRANCH   5   7
ATOM      7  C   UNL     1       3.700   4.260  18.638  0.00  0.00    +0.000 A 
ATOM      8  C   UNL     1       2.988   5.013  19.612  0.00  0.00    +0.000 A 
ATOM      9  C   UNL     1       1.772   4.389  19.752  0.00  0.00    +0.000 A 
ATOM     10  N   UNL     1       1.802   3.332  18.895  0.00  0.00    +0.000 N 
ATOM     11  C   UNL     1       0.757   2.361  18.680  0.00  0.00    +0.000 C 
ATOM     12  N   UNL     1       2.950   3.226  18.207  0.00  0.00    +0.000 NA
ENDBRANCH   5   7
BRANCH   1  13
ATOM     13  C   UNL     1       6.937   4.652  14.915  0.00  0.00    +0.000 C 
ATOM     14  O   UNL     1       7.710   5.396  14.336  0.00  0.00    +0.000 OA
BRANCH  13  15
ATOM     15  O   UNL     1       6.135   3.723  14.338  0.00  0.00    +0.000 OA
BRANCH  15  17
ATOM     16  C   UNL     1       4.921   3.500  12.298  0.00  0.00    +0.000 C 
ATOM     17  C   UNL     1       6.303   3.566  12.923  0.00  0.00    +0.000 C 
ENDBRANCH  15  17
ENDBRANCH  13  15
ENDBRANCH   1  13
TORSDOF 4
ENDMDL
MODEL 6
REMARK VINA RESULT:      -6.5      1.912      3.077
REMARK  Name = 
REMARK  6 active torsions:
REMARK  status: ('A' for Active; 'I' for Inactive)
REMARK    1  A    between atoms: C_1  and  C_2
REMARK    2  A    between atoms: C_2  and  O_3
REMARK    3  A    between atoms: O_3  and  C_4
REMARK    4  A    between atoms: C_4  and  C_6
REMARK    5  A    between atoms: C_10  and  C_11
REMARK    6  A    between atoms: N_14  and  C_15
REMARK                            x       y       z     vdW  Elec       q    Type
REMARK                         _______ _______ _______ _____ _____    ______ ____
ROOT
ATOM      1  C   UNL     1       5.190   5.339  16.513  0.00  0.00    +0.000 A 
ATOM      2  C   UNL     1       4.928   6.710  16.580  0.00  0.00    +0.000 A 
ATOM      3  C   UNL     1       3.848   7.128  17.333  0.00  0.00    +0.000 A 
ATOM      4  N   UNL     1       3.033   6.286  18.002  0.00  0.00    +0.000 NA
ATOM      5  C   UNL     1       3.299   4.955  17.925  0.00  0.00    +0.000 A 
ATOM      6  C   UNL     1       4.362   4.449  17.190  0.00  0.00    +0.000 A 
ENDROOT
BRANCH   5   7
ATOM      7  C   UNL     1       2.415   4.067  18.688  0.00  0.00    +0.000 A 
ATOM      8  C   UNL     1       1.346   3.278  18.179  0.00  0.00    +0.000 A 
ATOM      9  C   UNL     1       0.812   2.627  19.265  0.00  0.00    +0.000 A 
ATOM     10  N   UNL     1       1.549   3.034  20.335  0.00  0.00    +0.000 N 
ATOM     11  C   UNL     1       1.373   2.635  21.710  0.00  0.00    +0.000 C 
ATOM     12  N   UNL     1       2.524   3.901  20.020  0.00  0.00    +0.000 NA
ENDBRANCH   5   7
BRANCH   1  13
ATOM     13  C   UNL     1       6.376   4.793  15.811  0.00  0.00    +0.000 C 
ATOM     14  O   UNL     1       6.310   4.007  14.883  0.00  0.00    +0.000 OA
BRANCH  13  15
ATOM     15  O   UNL     1       7.508   5.202  16.437  0.00  0.00    +0.000 OA
BRANCH  15  17
ATOM     16  C   UNL     1       7.800   5.704  18.749  0.00  0.00    +0.000 C 
ATOM     17  C   UNL     1       7.752   4.596  17.713  0.00  0.00    +0.000 C 
ENDBRANCH  15  17
ENDBRANCH  13  15
ENDBRANCH   1  13
TORSDOF 4
ENDMDL
MODEL 7
REMARK VINA RESULT:      -6.4      1.700      2.049
REMARK  Name = 
REMARK  6 active torsions:
REMARK  status: ('A' for Active; 'I' for Inactive)
REMARK    1  A    between atoms: C_1  and  C_2
REMARK    2  A    between atoms: C_2  and  O_3
REMARK    3  A    between atoms: O_3  and  C_4
REMARK    4  A    between atoms: C_4  and  C_6
REMARK    5  A    between atoms: C_10  and  C_11
REMARK    6  A    between atoms: N_14  and  C_15
REMARK                            x       y       z     vdW  Elec       q    Type
REMARK                         _______ _______ _______ _____ _____    ______ ____
ROOT
ATOM      1  C   UNL     1       5.951   5.861  16.997  0.00  0.00    +0.000 A 
ATOM      2  C   UNL     1       7.150   5.785  17.709  0.00  0.00    +0.000 A 
ATOM      3  C   UNL     1       7.090   5.440  19.045  0.00  0.00    +0.000 A 
ATOM      4  N   UNL     1       5.939   5.179  19.699  0.00  0.00    +0.000 NA
ATOM      5  C   UNL     1       4.780   5.261  18.993  0.00  0.00    +0.000 A 
ATOM      6  C   UNL     1       4.749   5.600  17.648  0.00  0.00    +0.000 A 
ENDROOT
BRANCH   5   7
ATOM      7  C   UNL     1       3.548   4.940  19.721  0.00  0.00    +0.000 A 
ATOM      8  C   UNL     1       2.440   5.803  19.953  0.00  0.00    +0.000 A 
ATOM      9  C   UNL     1       1.538   5.065  20.681  0.00  0.00    +0.000 A 
ATOM     10  N   UNL     1       2.115   3.844  20.851  0.00  0.00    +0.000 N 
ATOM     11  C   UNL     1       1.562   2.716  21.559  0.00  0.00    +0.000 C 
ATOM     12  N   UNL     1       3.327   3.736  20.283  0.00  0.00    +0.000 NA
ENDBRANCH   5   7
BRANCH   1  13
ATOM     13  C   UNL     1       5.911   6.129  15.539  0.00  0.00    +0.000 C 
ATOM     14  O   UNL     1       5.099   6.867  15.009  0.00  0.00    +0.000 OA
BRANCH  13  15
ATOM     15  O   UNL     1       6.815   5.343  14.903  0.00  0.00    +0.000 OA
BRANCH  15  17
ATOM     16  C   UNL     1       5.923   3.830  13.291  0.00  0.00    +0.000 C 
ATOM     17  C   UNL     1       6.415   3.979  14.719  0.00  0.00    +0.000 C 
ENDBRANCH  15  17
ENDBRANCH  13  15
ENDBRANCH   1  13
TORSDOF 4
ENDMDL
MODEL 8
REMARK VINA RESULT:      -6.4      1.510      1.778
REMARK  Name = 
REMARK  6 active torsions:
REMARK  status: ('A' for Active; 'I' for Inactive)
REMARK    1  A    between atoms: C_1  and  C_2
REMARK    2  A    between atoms: C_2  and  O_3
REMARK    3  A    between atoms: O_3  and  C_4
REMARK    4  A    between atoms: C_4  and  C_6
REMARK    5  A    between atoms: C_10  and  C_11
REMARK    6  A    between atoms: N_14  and  C_15
REMARK                            x       y       z     vdW  Elec       q    Type
REMARK                         _______ _______ _______ _____ _____    ______ ____
ROOT
ATOM      1  C   UNL     1       5.474   5.324  15.936  0.00  0.00    +0.000 A 
ATOM      2  C   UNL     1       5.096   6.666  16.027  0.00  0.00    +0.000 A 
ATOM      3  C   UNL     1       4.291   7.043  17.084  0.00  0.00    +0.000 A 
ATOM      4  N   UNL     1       3.848   6.187  18.028  0.00  0.00    +0.000 NA
ATOM      5  C   UNL     1       4.221   4.884  17.924  0.00  0.00    +0.000 A 
ATOM      6  C   UNL     1       5.027   4.419  16.894  0.00  0.00    +0.000 A 
ENDROOT
BRANCH   5   7
ATOM      7  C   UNL     1       3.751   3.983  18.982  0.00  0.00    +0.000 A 
ATOM      8  C   UNL     1       4.418   2.832  19.487  0.00  0.00    +0.000 A 
ATOM      9  C   UNL     1       3.590   2.314  20.454  0.00  0.00    +0.000 A 
ATOM     10  N   UNL     1       2.507   3.138  20.489  0.00  0.00    +0.000 N 
ATOM     11  C   UNL     1       1.350   3.013  21.341  0.00  0.00    +0.000 C 
ATOM     12  N   UNL     1       2.574   4.155  19.614  0.00  0.00    +0.000 NA
ENDBRANCH   5   7
BRANCH   1  13
ATOM     13  C   UNL     1       6.410   4.834  14.897  0.00  0.00    +0.000 C 
ATOM     14  O   UNL     1       7.575   5.185  14.816  0.00  0.00    +0.000 OA
BRANCH  13  15
ATOM     15  O   UNL     1       5.744   4.057  14.007  0.00  0.00    +0.000 OA
BRANCH  15  17
ATOM     16  C   UNL     1       5.584   2.897  11.930  0.00  0.00    +0.000 C 
ATOM     17  C   UNL     1       6.371   3.924  12.725  0.00  0.00    +0.000 C 
ENDBRANCH  15  17
ENDBRANCH  13  15
ENDBRANCH   1  13
TORSDOF 4
ENDMDL
MODEL 9
REMARK VINA RESULT:      -6.4      1.078      1.263
REMARK  Name = 
REMARK  6 active torsions:
REMARK  status: ('A' for Active; 'I' for Inactive)
REMARK    1  A    between atoms: C_1  and  C_2
REMARK    2  A    between atoms: C_2  and  O_3
REMARK    3  A    between atoms: O_3  and  C_4
REMARK    4  A    between atoms: C_4  and  C_6
REMARK    5  A    between atoms: C_10  and  C_11
REMARK    6  A    between atoms: N_14  and  C_15
REMARK                            x       y       z     vdW  Elec       q    Type
REMARK                         _______ _______ _______ _____ _____    ______ ____
ROOT
ATOM      1  C   UNL     1       6.586   5.030  16.207  0.00  0.00    +0.000 A 
ATOM      2  C   UNL     1       7.258   5.951  17.015  0.00  0.00    +0.000 A 
ATOM      3  C   UNL     1       6.863   6.068  18.333  0.00  0.00    +0.000 A 
ATOM      4  N   UNL     1       5.863   5.346  18.880  0.00  0.00    +0.000 NA
ATOM      5  C   UNL     1       5.217   4.456  18.081  0.00  0.00    +0.000 A 
ATOM      6  C   UNL     1       5.549   4.275  16.746  0.00  0.00    +0.000 A 
ENDROOT
BRANCH   5   7
ATOM      7  C   UNL     1       4.156   3.663  18.711  0.00  0.00    +0.000 A 
ATOM      8  C   UNL     1       4.270   2.847  19.871  0.00  0.00    +0.000 A 
ATOM      9  C   UNL     1       3.024   2.302  20.069  0.00  0.00    +0.000 A 
ATOM     10  N   UNL     1       2.246   2.790  19.063  0.00  0.00    +0.000 N 
ATOM     11  C   UNL     1       0.852   2.505  18.829  0.00  0.00    +0.000 C 
ATOM     12  N   UNL     1       2.899   3.614  18.228  0.00  0.00    +0.000 NA
ENDBRANCH   5   7
BRANCH   1  13
ATOM     13  C   UNL     1       6.994   4.758  14.808  0.00  0.00    +0.000 C 
ATOM     14  O   UNL     1       7.776   5.455  14.184  0.00  0.00    +0.000 OA
BRANCH  13  15
ATOM     15  O   UNL     1       6.278   3.717  14.315  0.00  0.00    +0.000 OA
BRANCH  15  17
ATOM     16  C   UNL     1       5.986   2.943  12.079  0.00  0.00    +0.000 C 
ATOM     17  C   UNL     1       5.567   3.986  13.100  0.00  0.00    +0.000 C 
ENDBRANCH  15  17
ENDBRANCH  13  15
ENDBRANCH   1  13
TORSDOF 4
ENDMDL
