MODEL 1
REMARK VINA RESULT:      -5.7      0.000      0.000
REMARK  Name = 
REMARK  2 active torsions:
REMARK  status: ('A' for Active; 'I' for Inactive)
REMARK    1  A    between atoms: S_1  and  C_2
REMARK    2  A    between atoms: C_5  and  C_6
REMARK                            x       y       z     vdW  Elec       q    Type
REMARK                         _______ _______ _______ _____ _____    ______ ____
ROOT
ATOM      1  C   UNL     1       3.752   3.222  18.840  0.00  0.00    +0.000 A 
ATOM      2  N   UNL     1       4.870   3.090  19.575  0.00  0.00    +0.000 NA
ATOM      3  N   UNL     1       5.696   4.037  19.162  0.00  0.00    +0.000 NA
ATOM      4  C   UNL     1       5.055   4.710  18.187  0.00  0.00    +0.000 A 
ATOM      5  O   UNL     1       3.858   4.209  17.982  0.00  0.00    +0.000 OA
ENDROOT
BRANCH   4   6
ATOM      6  C   UNL     1       5.658   5.887  17.455  0.00  0.00    +0.000 C 
ATOM      7  C   UNL     1       5.091   6.043  16.031  0.00  0.00    +0.000 C 
ATOM      8  C   UNL     1       5.586   4.920  15.105  0.00  0.00    +0.000 C 
ATOM      9  C   UNL     1       7.119   4.855  15.140  0.00  0.00    +0.000 C 
ATOM     10  N   UNL     1       7.593   4.653  16.519  0.00  0.00    +0.000 NA
ATOM     11  C   UNL     1       7.193   5.783  17.371  0.00  0.00    +0.000 C 
ATOM     12  H   UNL     1       8.639   4.605  16.504  0.00  0.00    +0.000 HD
ENDBRANCH   4   6
BRANCH   1  13
ATOM     13  S   UNL     1       2.304   2.194  19.037  0.00  0.00    +0.000 S 
ATOM     14  H   UNL     1       2.938   1.392  20.007  0.00  0.00    +0.000 HD
ENDBRANCH   1  13
TORSDOF 2
ENDMDL
MODEL 2
REMARK VINA RESULT:      -5.5      2.742      4.576
REMARK  Name = 
REMARK  2 active torsions:
REMARK  status: ('A' for Active; 'I' for Inactive)
REMARK    1  A    between atoms: S_1  and  C_2
REMARK    2  A    between atoms: C_5  and  C_6
REMARK                            x       y       z     vdW  Elec       q    Type
REMARK                         _______ _______ _______ _____ _____    ______ ____
ROOT
ATOM      1  C   UNL     1       6.155   5.342  18.110  0.00  0.00    +0.000 A 
ATOM      2  N   UNL     1       6.237   4.649  19.259  0.00  0.00    +0.000 NA
ATOM      3  N   UNL     1       5.282   3.736  19.208  0.00  0.00    +0.000 NA
ATOM      4  C   UNL     1       4.648   3.905  18.031  0.00  0.00    +0.000 A 
ATOM      5  O   UNL     1       5.181   4.897  17.352  0.00  0.00    +0.000 OA
ENDROOT
BRANCH   4   6
ATOM      6  C   UNL     1       3.490   3.046  17.579  0.00  0.00    +0.000 C 
ATOM      7  C   UNL     1       2.178   3.845  17.466  0.00  0.00    +0.000 C 
ATOM      8  C   UNL     1       1.641   4.240  18.852  0.00  0.00    +0.000 C 
ATOM      9  C   UNL     1       1.514   2.991  19.735  0.00  0.00    +0.000 C 
ATOM     10  N   UNL     1       2.810   2.304  19.844  0.00  0.00    +0.000 NA
ATOM     11  C   UNL     1       3.265   1.849  18.521  0.00  0.00    +0.000 C 
ATOM     12  H   UNL     1       2.688   1.465  20.458  0.00  0.00    +0.000 HD
ENDBRANCH   4   6
BRANCH   1  13
ATOM     13  S   UNL     1       7.258   6.676  17.670  0.00  0.00    +0.000 S 
ATOM     14  H   UNL     1       7.009   7.353  18.882  0.00  0.00    +0.000 HD
ENDBRANCH   1  13
TORSDOF 2
ENDMDL
MODEL 3
REMARK VINA RESULT:      -5.5      1.270      1.327
REMARK  Name = 
REMARK  2 active torsions:
REMARK  status: ('A' for Active; 'I' for Inactive)
REMARK    1  A    between atoms: S_1  and  C_2
REMARK    2  A    between atoms: C_5  and  C_6
REMARK                            x       y       z     vdW  Elec       q    Type
REMARK                         _______ _______ _______ _____ _____    ______ ____
ROOT
ATOM      1  C   UNL     1       3.080   3.319  20.035  0.00  0.00    +0.000 A 
ATOM      2  N   UNL     1       4.190   2.561  20.054  0.00  0.00    +0.000 NA
ATOM      3  N   UNL     1       5.150   3.303  19.528  0.00  0.00    +0.000 NA
ATOM      4  C   UNL     1       4.592   4.485  19.204  0.00  0.00    +0.000 A 
ATOM      5  O   UNL     1       3.314   4.498  19.511  0.00  0.00    +0.000 OA
ENDROOT
BRANCH   4   6
ATOM      6  C   UNL     1       5.364   5.626  18.581  0.00  0.00    +0.000 C 
ATOM      7  C   UNL     1       4.985   5.850  17.105  0.00  0.00    +0.000 C 
ATOM      8  C   UNL     1       5.505   4.710  16.214  0.00  0.00    +0.000 C 
ATOM      9  C   UNL     1       7.013   4.529  16.429  0.00  0.00    +0.000 C 
ATOM     10  N   UNL     1       7.302   4.266  17.848  0.00  0.00    +0.000 NA
ATOM     11  C   UNL     1       6.885   5.407  18.678  0.00  0.00    +0.000 C 
ATOM     12  H   UNL     1       8.335   4.140  17.957  0.00  0.00    +0.000 HD
ENDBRANCH   4   6
BRANCH   1  13
ATOM     13  S   UNL     1       1.498   2.785  20.672  0.00  0.00    +0.000 S 
ATOM     14  H   UNL     1       0.796   3.498  19.680  0.00  0.00    +0.000 HD
ENDBRANCH   1  13
TORSDOF 2
ENDMDL
MODEL 4
REMARK VINA RESULT:      -5.5      1.333      1.444
REMARK  Name = 
REMARK  2 active torsions:
REMARK  status: ('A' for Active; 'I' for Inactive)
REMARK    1  A    between atoms: S_1  and  C_2
REMARK    2  A    between atoms: C_5  and  C_6
REMARK                            x       y       z     vdW  Elec       q    Type
REMARK                         _______ _______ _______ _____ _____    ______ ____
ROOT
ATOM      1  C   UNL     1       3.395   4.509  19.824  0.00  0.00    +0.000 A 
ATOM      2  N   UNL     1       4.094   3.365  19.727  0.00  0.00    +0.000 NA
ATOM      3  N   UNL     1       5.258   3.690  19.191  0.00  0.00    +0.000 NA
ATOM      4  C   UNL     1       5.228   5.020  18.977  0.00  0.00    +0.000 A 
ATOM      5  O   UNL     1       4.079   5.528  19.362  0.00  0.00    +0.000 OA
ENDROOT
BRANCH   4   6
ATOM      6  C   UNL     1       6.382   5.793  18.380  0.00  0.00    +0.000 C 
ATOM      7  C   UNL     1       5.926   6.760  17.271  0.00  0.00    +0.000 C 
ATOM      8  C   UNL     1       5.486   5.999  16.010  0.00  0.00    +0.000 C 
ATOM      9  C   UNL     1       6.604   5.048  15.560  0.00  0.00    +0.000 C 
ATOM     10  N   UNL     1       6.955   4.118  16.645  0.00  0.00    +0.000 NA
ATOM     11  C   UNL     1       7.464   4.856  17.811  0.00  0.00    +0.000 C 
ATOM     12  H   UNL     1       7.711   3.481  16.302  0.00  0.00    +0.000 HD
ENDBRANCH   4   6
BRANCH   1  13
ATOM     13  S   UNL     1       1.754   4.617  20.522  0.00  0.00    +0.000 S 
ATOM     14  H   UNL     1       1.378   3.376  19.969  0.00  0.00    +0.000 HD
ENDBRANCH   1  13
TORSDOF 2
ENDMDL
MODEL 5
REMARK VINA RESULT:      -5.5      2.930      4.310
REMARK  Name = 
REMARK  2 active torsions:
REMARK  status: ('A' for Active; 'I' for Inactive)
REMARK    1  A    between atoms: S_1  and  C_2
REMARK    2  A    between atoms: C_5  and  C_6
REMARK                            x       y       z     vdW  Elec       q    Type
REMARK                         _______ _______ _______ _____ _____    ______ ____
ROOT
ATOM      1  C   UNL     1       6.451   4.320  13.767  0.00  0.00    +0.000 A 
ATOM      2  N   UNL     1       7.543   5.059  14.029  0.00  0.00    +0.000 NA
ATOM      3  N   UNL     1       7.347   5.596  15.221  0.00  0.00    +0.000 NA
ATOM      4  C   UNL     1       6.141   5.170  15.644  0.00  0.00    +0.000 A 
ATOM      5  O   UNL     1       5.583   4.386  14.749  0.00  0.00    +0.000 OA
ENDROOT
BRANCH   4   6
ATOM      6  C   UNL     1       5.544   5.554  16.978  0.00  0.00    +0.000 C 
ATOM      7  C   UNL     1       6.058   6.918  17.478  0.00  0.00    +0.000 C 
ATOM      8  C   UNL     1       7.534   6.838  17.903  0.00  0.00    +0.000 C 
ATOM      9  C   UNL     1       7.719   5.710  18.927  0.00  0.00    +0.000 C 
ATOM     10  N   UNL     1       7.258   4.428  18.370  0.00  0.00    +0.000 NA
ATOM     11  C   UNL     1       5.822   4.491  18.057  0.00  0.00    +0.000 C 
ATOM     12  H   UNL     1       7.406   3.683  19.090  0.00  0.00    +0.000 HD
ENDBRANCH   4   6
BRANCH   1  13
ATOM     13  S   UNL     1       6.235   3.353  12.281  0.00  0.00    +0.000 S 
ATOM     14  H   UNL     1       7.576   2.918  12.305  0.00  0.00    +0.000 HD
ENDBRANCH   1  13
TORSDOF 2
ENDMDL
MODEL 6
REMARK VINA RESULT:      -5.4      2.736      4.317
REMARK  Name = 
REMARK  2 active torsions:
REMARK  status: ('A' for Active; 'I' for Inactive)
REMARK    1  A    between atoms: S_1  and  C_2
REMARK    2  A    between atoms: C_5  and  C_6
REMARK                            x       y       z     vdW  Elec       q    Type
REMARK                         _______ _______ _______ _____ _____    ______ ____
ROOT
ATOM      1  C   UNL     1       6.383   4.733  14.580  0.00  0.00    +0.000 A 
ATOM      2  N   UNL     1       7.568   5.287  14.889  0.00  0.00    +0.000 NA
ATOM      3  N   UNL     1       7.394   5.907  16.044  0.00  0.00    +0.000 NA
ATOM      4  C   UNL     1       6.109   5.712  16.398  0.00  0.00    +0.000 A 
ATOM      5  O   UNL     1       5.480   4.992  15.496  0.00  0.00    +0.000 OA
ENDROOT
BRANCH   4   6
ATOM      6  C   UNL     1       5.506   6.255  17.673  0.00  0.00    +0.000 C 
ATOM      7  C   UNL     1       5.883   5.410  18.904  0.00  0.00    +0.000 C 
ATOM      8  C   UNL     1       5.178   4.044  18.883  0.00  0.00    +0.000 C 
ATOM      9  C   UNL     1       3.664   4.243  18.728  0.00  0.00    +0.000 C 
ATOM     10  N   UNL     1       3.369   5.012  17.508  0.00  0.00    +0.000 NA
ATOM     11  C   UNL     1       3.972   6.351  17.585  0.00  0.00    +0.000 C 
ATOM     12  H   UNL     1       2.331   5.121  17.430  0.00  0.00    +0.000 HD
ENDBRANCH   4   6
BRANCH   1  13
ATOM     13  S   UNL     1       6.096   3.747  13.118  0.00  0.00    +0.000 S 
ATOM     14  H   UNL     1       6.143   2.545  13.854  0.00  0.00    +0.000 HD
ENDBRANCH   1  13
TORSDOF 2
ENDMDL
MODEL 7
REMARK VINA RESULT:      -5.3      2.593      4.239
REMARK  Name = 
REMARK  2 active torsions:
REMARK  status: ('A' for Active; 'I' for Inactive)
REMARK    1  A    between atoms: S_1  and  C_2
REMARK    2  A    between atoms: C_5  and  C_6
REMARK                            x       y       z     vdW  Elec       q    Type
REMARK                         _______ _______ _______ _____ _____    ______ ____
ROOT
ATOM      1  C   UNL     1       6.683   4.625  16.191  0.00  0.00    +0.000 A 
ATOM      2  N   UNL     1       7.706   4.565  17.061  0.00  0.00    +0.000 NA
ATOM      3  N   UNL     1       7.163   4.481  18.263  0.00  0.00    +0.000 NA
ATOM      4  C   UNL     1       5.827   4.496  18.085  0.00  0.00    +0.000 A 
ATOM      5  O   UNL     1       5.527   4.589  16.809  0.00  0.00    +0.000 OA
ENDROOT
BRANCH   4   6
ATOM      6  C   UNL     1       4.836   4.408  19.223  0.00  0.00    +0.000 C 
ATOM      7  C   UNL     1       4.426   2.955  19.529  0.00  0.00    +0.000 C 
ATOM      8  C   UNL     1       3.543   2.375  18.413  0.00  0.00    +0.000 C 
ATOM      9  C   UNL     1       2.345   3.301  18.164  0.00  0.00    +0.000 C 
ATOM     10  N   UNL     1       2.804   4.657  17.826  0.00  0.00    +0.000 NA
ATOM     11  C   UNL     1       3.568   5.235  18.943  0.00  0.00    +0.000 C 
ATOM     12  H   UNL     1       1.964   5.257  17.656  0.00  0.00    +0.000 HD
ENDBRANCH   4   6
BRANCH   1  13
ATOM     13  S   UNL     1       6.887   4.713  14.418  0.00  0.00    +0.000 S 
ATOM     14  H   UNL     1       7.416   6.018  14.489  0.00  0.00    +0.000 HD
ENDBRANCH   1  13
TORSDOF 2
ENDMDL
MODEL 8
REMARK VINA RESULT:      -5.3      3.045      5.119
REMARK  Name = 
REMARK  2 active torsions:
REMARK  status: ('A' for Active; 'I' for Inactive)
REMARK    1  A    between atoms: S_1  and  C_2
REMARK    2  A    between atoms: C_5  and  C_6
REMARK                            x       y       z     vdW  Elec       q    Type
REMARK                         _______ _______ _______ _____ _____    ______ ____
ROOT
ATOM      1  C   UNL     1       5.939   5.055  19.040  0.00  0.00    +0.000 A 
ATOM      2  N   UNL     1       5.754   3.735  18.864  0.00  0.00    +0.000 NA
ATOM      3  N   UNL     1       4.449   3.536  18.915  0.00  0.00    +0.000 NA
ATOM      4  C   UNL     1       3.882   4.741  19.124  0.00  0.00    +0.000 A 
ATOM      5  O   UNL     1       4.798   5.680  19.206  0.00  0.00    +0.000 OA
ENDROOT
BRANCH   4   6
ATOM      6  C   UNL     1       2.389   4.949  19.235  0.00  0.00    +0.000 C 
ATOM      7  C   UNL     1       1.932   5.138  20.694  0.00  0.00    +0.000 C 
ATOM      8  C   UNL     1       2.038   3.826  21.488  0.00  0.00    +0.000 C 
ATOM      9  C   UNL     1       1.277   2.712  20.756  0.00  0.00    +0.000 C 
ATOM     10  N   UNL     1       1.796   2.548  19.388  0.00  0.00    +0.000 NA
ATOM     11  C   UNL     1       1.601   3.782  18.612  0.00  0.00    +0.000 C 
ATOM     12  H   UNL     1       1.261   1.777  18.923  0.00  0.00    +0.000 HD
ENDBRANCH   4   6
BRANCH   1  13
ATOM     13  S   UNL     1       7.540   5.848  19.019  0.00  0.00    +0.000 S 
ATOM     14  H   UNL     1       7.009   7.027  18.456  0.00  0.00    +0.000 HD
ENDBRANCH   1  13
TORSDOF 2
ENDMDL
MODEL 9
REMARK VINA RESULT:      -5.3      3.187      4.366
REMARK  Name = 
REMARK  2 active torsions:
REMARK  status: ('A' for Active; 'I' for Inactive)
REMARK    1  A    between atoms: S_1  and  C_2
REMARK    2  A    between atoms: C_5  and  C_6
REMARK                            x       y       z     vdW  Elec       q    Type
REMARK                         _______ _______ _______ _____ _____    ______ ____
ROOT
ATOM      1  C   UNL     1       6.510   4.111  13.790  0.00  0.00    +0.000 A 
ATOM      2  N   UNL     1       7.330   5.172  13.881  0.00  0.00    +0.000 NA
ATOM      3  N   UNL     1       7.380   5.490  15.163  0.00  0.00    +0.000 NA
ATOM      4  C   UNL     1       6.586   4.614  15.810  0.00  0.00    +0.000 A 
ATOM      5  O   UNL     1       6.044   3.764  14.966  0.00  0.00    +0.000 OA
ENDROOT
BRANCH   4   6
ATOM      6  C   UNL     1       6.377   4.630  17.307  0.00  0.00    +0.000 C 
ATOM      7  C   UNL     1       5.012   4.044  17.712  0.00  0.00    +0.000 C 
ATOM      8  C   UNL     1       3.860   4.980  17.312  0.00  0.00    +0.000 C 
ATOM      9  C   UNL     1       4.108   6.383  17.881  0.00  0.00    +0.000 C 
ATOM     10  N   UNL     1       5.402   6.906  17.415  0.00  0.00    +0.000 NA
ATOM     11  C   UNL     1       6.502   6.051  17.887  0.00  0.00    +0.000 C 
ATOM     12  H   UNL     1       5.534   7.864  17.815  0.00  0.00    +0.000 HD
ENDBRANCH   4   6
BRANCH   1  13
ATOM     13  S   UNL     1       6.134   3.271  12.259  0.00  0.00    +0.000 S 
ATOM     14  H   UNL     1       6.382   2.006  12.829  0.00  0.00    +0.000 HD
ENDBRANCH   1  13
TORSDOF 2
ENDMDL
