MODEL 1
REMARK VINA RESULT:      -7.9      0.000      0.000
REMARK  Name = 
REMARK  5 active torsions:
REMARK  status: ('A' for Active; 'I' for Inactive)
REMARK    1  A    between atoms: C_1  and  C_2
REMARK    2  A    between atoms: N_7  and  C_8
REMARK    3  A    between atoms: C_20  and  C_21
REMARK    4  A    between atoms: C_21  and  O_22
REMARK    5  A    between atoms: C_21  and  C_23
REMARK                            x       y       z     vdW  Elec       q    Type
REMARK                         _______ _______ _______ _____ _____    ______ ____
ROOT
ATOM      1  C   UNL     1       2.787   2.467  19.418  0.00  0.00    +0.000 C 
ATOM      2  C   UNL     1       2.648   4.106  18.991  0.00  0.00    +0.000 C 
ATOM      3  C   UNL     1       2.916   3.905  17.517  0.00  0.00    +0.000 C 
ATOM      4  C   UNL     1       4.297   4.249  17.364  0.00  0.00    +0.000 A 
ATOM      5  C   UNL     1       5.187   3.947  16.355  0.00  0.00    +0.000 A 
ATOM      6  N   UNL     1       6.336   4.550  16.585  0.00  0.00    +0.000 NA
ATOM      7  N   UNL     1       6.186   5.218  17.784  0.00  0.00    +0.000 N 
ATOM      8  C   UNL     1       5.028   4.748  18.445  0.00  0.00    +0.000 A 
ATOM      9  C   UNL     1       4.583   4.713  19.870  0.00  0.00    +0.000 C 
ATOM     10  C   UNL     1       3.282   4.444  20.306  0.00  0.00    +0.000 C 
ATOM     11  C   UNL     1       1.567   4.082  20.786  0.00  0.00    +0.000 C 
ATOM     12  C   UNL     1       0.631   4.920  19.799  0.00  0.00    +0.000 C 
ATOM     13  C   UNL     1       1.853   5.564  19.320  0.00  0.00    +0.000 C 
ENDROOT
BRANCH   7  14
ATOM     14  C   UNL     1       7.118   6.291  17.965  0.00  0.00    +0.000 A 
ATOM     15  C   UNL     1       8.044   6.367  19.005  0.00  0.00    +0.000 A 
ATOM     16  C   UNL     1       8.769   7.565  19.183  0.00  0.00    +0.000 A 
ATOM     17  C   UNL     1       8.570   8.660  18.333  0.00  0.00    +0.000 A 
ATOM     18  F   UNL     1       9.217   9.812  18.558  0.00  0.00    +0.000 F 
ATOM     19  C   UNL     1       7.631   8.613  17.324  0.00  0.00    +0.000 A 
ATOM     20  C   UNL     1       6.926   7.435  17.135  0.00  0.00    +0.000 A 
ENDBRANCH   7  14
BRANCH  13  21
ATOM     21  C   UNL     1       2.131   7.029  18.865  0.00  0.00    +0.000 C 
BRANCH  21  22
ATOM     22  C   UNL     1       1.585   8.082  19.720  0.00  0.00    +0.000 A 
ATOM     23  C   UNL     1       1.480   7.932  21.080  0.00  0.00    +0.000 A 
ATOM     24  C   UNL     1       0.430   8.746  21.510  0.00  0.00    +0.000 A 
ATOM     25  C   UNL     1      -0.464   8.590  22.575  0.00  0.00    +0.000 A 
ATOM     26  C   UNL     1      -0.461   9.768  23.283  0.00  0.00    +0.000 A 
ATOM     27  C   UNL     1      -0.820  10.890  22.552  0.00  0.00    +0.000 A 
ATOM     28  C   UNL     1      -0.526  10.936  21.176  0.00  0.00    +0.000 A 
ATOM     29  C   UNL     1       0.250   9.870  20.687  0.00  0.00    +0.000 A 
ATOM     30  S   UNL     1       1.057   9.612  19.194  0.00  0.00    +0.000 S 
ENDBRANCH  21  22
BRANCH  21  31
ATOM     31  O   UNL     1       1.862   7.306  17.502  0.00  0.00    +0.000 OA
ATOM     32  H   UNL     1       1.352   6.551  17.192  0.00  0.00    +0.000 HD
ENDBRANCH  21  31
ENDBRANCH  13  21
TORSDOF 4
ENDMDL
MODEL 2
REMARK VINA RESULT:      -7.6      5.130      9.038
REMARK  Name = 
REMARK  5 active torsions:
REMARK  status: ('A' for Active; 'I' for Inactive)
REMARK    1  A    between atoms: C_1  and  C_2
REMARK    2  A    between atoms: N_7  and  C_8
REMARK    3  A    between atoms: C_20  and  C_21
REMARK    4  A    between atoms: C_21  and  O_22
REMARK    5  A    between atoms: C_21  and  C_23
REMARK                            x       y       z     vdW  Elec       q    Type
REMARK                         _______ _______ _______ _____ _____    ______ ____
ROOT
ATOM      1  C   UNL     1      -3.287  13.234  22.564  0.00  0.00    +0.000 C 
ATOM      2  C   UNL     1      -1.736  13.618  21.985  0.00  0.00    +0.000 C 
ATOM      3  C   UNL     1      -2.146  13.781  20.540  0.00  0.00    +0.000 C 
ATOM      4  C   UNL     1      -1.783  12.536  19.933  0.00  0.00    +0.000 A 
ATOM      5  C   UNL     1      -2.202  11.960  18.752  0.00  0.00    +0.000 A 
ATOM      6  N   UNL     1      -1.533  10.845  18.542  0.00  0.00    +0.000 NA
ATOM      7  N   UNL     1      -0.698  10.688  19.631  0.00  0.00    +0.000 N 
ATOM      8  C   UNL     1      -1.103  11.561  20.666  0.00  0.00    +0.000 A 
ATOM      9  C   UNL     1      -0.939  11.564  22.151  0.00  0.00    +0.000 C 
ATOM     10  C   UNL     1      -1.183  12.655  22.990  0.00  0.00    +0.000 C 
ATOM     11  C   UNL     1      -1.527  14.120  24.009  0.00  0.00    +0.000 C 
ATOM     12  C   UNL     1      -0.879  15.366  23.248  0.00  0.00    +0.000 C 
ATOM     13  C   UNL     1      -0.273  14.393  22.342  0.00  0.00    +0.000 C 
ENDROOT
BRANCH   7  14
ATOM     14  C   UNL     1       0.422   9.830  19.378  0.00  0.00    +0.000 A 
ATOM     15  C   UNL     1       1.022   9.661  18.131  0.00  0.00    +0.000 A 
ATOM     16  C   UNL     1       1.988   8.643  17.973  0.00  0.00    +0.000 A 
ATOM     17  C   UNL     1       2.344   7.817  19.047  0.00  0.00    +0.000 A 
ATOM     18  F   UNL     1       3.212   6.813  18.863  0.00  0.00    +0.000 F 
ATOM     19  C   UNL     1       1.733   7.949  20.277  0.00  0.00    +0.000 A 
ATOM     20  C   UNL     1       0.794   8.955  20.441  0.00  0.00    +0.000 A 
ENDBRANCH   7  14
BRANCH  13  21
ATOM     21  C   UNL     1       1.116  14.375  21.633  0.00  0.00    +0.000 C 
BRANCH  21  22
ATOM     22  C   UNL     1       1.311  15.369  20.579  0.00  0.00    +0.000 A 
ATOM     23  C   UNL     1       0.352  16.303  20.275  0.00  0.00    +0.000 A 
ATOM     24  C   UNL     1       0.525  16.658  18.935  0.00  0.00    +0.000 A 
ATOM     25  C   UNL     1      -0.407  17.063  17.974  0.00  0.00    +0.000 A 
ATOM     26  C   UNL     1       0.077  18.214  17.400  0.00  0.00    +0.000 A 
ATOM     27  C   UNL     1       1.321  18.091  16.800  0.00  0.00    +0.000 A 
ATOM     28  C   UNL     1       2.243  17.163  17.318  0.00  0.00    +0.000 A 
ATOM     29  C   UNL     1       1.859  16.531  18.514  0.00  0.00    +0.000 A 
ATOM     30  S   UNL     1       2.714  15.549  19.634  0.00  0.00    +0.000 S 
ENDBRANCH  21  22
BRANCH  21  31
ATOM     31  O   UNL     1       1.566  13.102  21.206  0.00  0.00    +0.000 OA
ATOM     32  H   UNL     1       2.514  13.206  21.077  0.00  0.00    +0.000 HD
ENDBRANCH  21  31
ENDBRANCH  13  21
TORSDOF 4
ENDMDL
MODEL 3
REMARK VINA RESULT:      -7.6      1.114      1.310
REMARK  Name = 
REMARK  5 active torsions:
REMARK  status: ('A' for Active; 'I' for Inactive)
REMARK    1  A    between atoms: C_1  and  C_2
REMARK    2  A    between atoms: N_7  and  C_8
REMARK    3  A    between atoms: C_20  and  C_21
REMARK    4  A    between atoms: C_21  and  O_22
REMARK    5  A    between atoms: C_21  and  C_23
REMARK                            x       y       z     vdW  Elec       q    Type
REMARK                         _______ _______ _______ _____ _____    ______ ____
ROOT
ATOM      1  C   UNL     1       4.036   3.141  18.481  0.00  0.00    +0.000 C 
ATOM      2  C   UNL     1       3.663   4.774  18.199  0.00  0.00    +0.000 C 
ATOM      3  C   UNL     1       4.088   4.782  16.749  0.00  0.00    +0.000 C 
ATOM      4  C   UNL     1       5.400   5.354  16.775  0.00  0.00    +0.000 A 
ATOM      5  C   UNL     1       6.414   5.310  15.840  0.00  0.00    +0.000 A 
ATOM      6  N   UNL     1       7.420   6.057  16.244  0.00  0.00    +0.000 NA
ATOM      7  N   UNL     1       7.056   6.556  17.479  0.00  0.00    +0.000 N 
ATOM      8  C   UNL     1       5.940   5.840  17.968  0.00  0.00    +0.000 A 
ATOM      9  C   UNL     1       5.384   5.578  19.329  0.00  0.00    +0.000 C 
ATOM     10  C   UNL     1       4.113   5.061  19.599  0.00  0.00    +0.000 C 
ATOM     11  C   UNL     1       2.448   4.383  19.861  0.00  0.00    +0.000 C 
ATOM     12  C   UNL     1       1.475   5.166  18.865  0.00  0.00    +0.000 C 
ATOM     13  C   UNL     1       2.608   6.043  18.580  0.00  0.00    +0.000 C 
ENDROOT
BRANCH   7  14
ATOM     14  C   UNL     1       7.775   7.737  17.857  0.00  0.00    +0.000 A 
ATOM     15  C   UNL     1       8.638   7.821  18.950  0.00  0.00    +0.000 A 
ATOM     16  C   UNL     1       9.131   9.088  19.330  0.00  0.00    +0.000 A 
ATOM     17  C   UNL     1       8.769  10.243  18.625  0.00  0.00    +0.000 A 
ATOM     18  F   UNL     1       9.192  11.445  19.040  0.00  0.00    +0.000 F 
ATOM     19  C   UNL     1       7.889  10.180  17.565  0.00  0.00    +0.000 A 
ATOM     20  C   UNL     1       7.411   8.938  17.178  0.00  0.00    +0.000 A 
ENDBRANCH   7  14
BRANCH  13  21
ATOM     21  C   UNL     1       2.676   7.575  18.296  0.00  0.00    +0.000 C 
BRANCH  21  22
ATOM     22  C   UNL     1       1.973   8.435  19.247  0.00  0.00    +0.000 A 
ATOM     23  C   UNL     1       1.799   8.077  20.560  0.00  0.00    +0.000 A 
ATOM     24  C   UNL     1       0.647   8.719  21.020  0.00  0.00    +0.000 A 
ATOM     25  C   UNL     1      -0.291   8.325  21.980  0.00  0.00    +0.000 A 
ATOM     26  C   UNL     1      -0.453   9.382  22.845  0.00  0.00    +0.000 A 
ATOM     27  C   UNL     1      -0.878  10.562  22.254  0.00  0.00    +0.000 A 
ATOM     28  C   UNL     1      -0.505  10.837  20.925  0.00  0.00    +0.000 A 
ATOM     29  C   UNL     1       0.405   9.930  20.352  0.00  0.00    +0.000 A 
ATOM     30  S   UNL     1       1.326   9.971  18.903  0.00  0.00    +0.000 S 
ENDBRANCH  21  22
BRANCH  21  31
ATOM     31  O   UNL     1       2.385   7.963  16.966  0.00  0.00    +0.000 OA
ATOM     32  H   UNL     1       3.018   7.482  16.424  0.00  0.00    +0.000 HD
ENDBRANCH  21  31
ENDBRANCH  13  21
TORSDOF 4
ENDMDL
MODEL 4
REMARK VINA RESULT:      -7.5      3.501      7.375
REMARK  Name = 
REMARK  5 active torsions:
REMARK  status: ('A' for Active; 'I' for Inactive)
REMARK    1  A    between atoms: C_1  and  C_2
REMARK    2  A    between atoms: N_7  and  C_8
REMARK    3  A    between atoms: C_20  and  C_21
REMARK    4  A    between atoms: C_21  and  O_22
REMARK    5  A    between atoms: C_21  and  C_23
REMARK                            x       y       z     vdW  Elec       q    Type
REMARK                         _______ _______ _______ _____ _____    ______ ____
ROOT
ATOM      1  C   UNL     1       1.386   2.231  19.269  0.00  0.00    +0.000 C 
ATOM      2  C   UNL     1       2.753   3.197  18.974  0.00  0.00    +0.000 C 
ATOM      3  C   UNL     1       2.913   3.678  20.398  0.00  0.00    +0.000 C 
ATOM      4  C   UNL     1       2.314   4.978  20.394  0.00  0.00    +0.000 A 
ATOM      5  C   UNL     1       1.854   5.754  21.438  0.00  0.00    +0.000 A 
ATOM      6  N   UNL     1       1.462   6.925  20.979  0.00  0.00    +0.000 NA
ATOM      7  N   UNL     1       1.640   6.880  19.611  0.00  0.00    +0.000 N 
ATOM      8  C   UNL     1       1.846   5.541  19.205  0.00  0.00    +0.000 A 
ATOM      9  C   UNL     1       1.651   4.799  17.924  0.00  0.00    +0.000 C 
ATOM     10  C   UNL     1       2.161   3.528  17.639  0.00  0.00    +0.000 C 
ATOM     11  C   UNL     1       2.857   1.875  17.351  0.00  0.00    +0.000 C 
ATOM     12  C   UNL     1       4.357   1.911  17.898  0.00  0.00    +0.000 C 
ATOM     13  C   UNL     1       4.174   3.351  18.066  0.00  0.00    +0.000 C 
ENDROOT
BRANCH   7  14
ATOM     14  C   UNL     1       1.731   8.173  18.999  0.00  0.00    +0.000 A 
ATOM     15  C   UNL     1       2.554   8.479  17.916  0.00  0.00    +0.000 A 
ATOM     16  C   UNL     1       2.699   9.830  17.533  0.00  0.00    +0.000 A 
ATOM     17  C   UNL     1       2.029  10.849  18.222  0.00  0.00    +0.000 A 
ATOM     18  F   UNL     1       2.231  12.131  17.888  0.00  0.00    +0.000 F 
ATOM     19  C   UNL     1       1.241  10.566  19.317  0.00  0.00    +0.000 A 
ATOM     20  C   UNL     1       1.084   9.240  19.691  0.00  0.00    +0.000 A 
ENDBRANCH   7  14
BRANCH  13  21
ATOM     21  C   UNL     1       5.162   4.542  17.870  0.00  0.00    +0.000 C 
BRANCH  21  22
ATOM     22  C   UNL     1       5.644   4.758  16.507  0.00  0.00    +0.000 A 
ATOM     23  C   UNL     1       4.959   4.294  15.412  0.00  0.00    +0.000 A 
ATOM     24  C   UNL     1       5.891   4.094  14.390  0.00  0.00    +0.000 A 
ATOM     25  C   UNL     1       5.907   3.166  13.344  0.00  0.00    +0.000 A 
ATOM     26  C   UNL     1       6.140   3.866  12.185  0.00  0.00    +0.000 A 
ATOM     27  C   UNL     1       7.323   4.589  12.166  0.00  0.00    +0.000 A 
ATOM     28  C   UNL     1       7.830   5.106  13.373  0.00  0.00    +0.000 A 
ATOM     29  C   UNL     1       6.995   4.956  14.494  0.00  0.00    +0.000 A 
ATOM     30  S   UNL     1       7.047   5.619  16.077  0.00  0.00    +0.000 S 
ENDBRANCH  21  22
BRANCH  21  31
ATOM     31  O   UNL     1       6.234   4.604  18.793  0.00  0.00    +0.000 OA
ATOM     32  H   UNL     1       6.513   5.525  18.786  0.00  0.00    +0.000 HD
ENDBRANCH  21  31
ENDBRANCH  13  21
TORSDOF 4
ENDMDL
MODEL 5
REMARK VINA RESULT:      -7.5      0.785      1.212
REMARK  Name = 
REMARK  5 active torsions:
REMARK  status: ('A' for Active; 'I' for Inactive)
REMARK    1  A    between atoms: C_1  and  C_2
REMARK    2  A    between atoms: N_7  and  C_8
REMARK    3  A    between atoms: C_20  and  C_21
REMARK    4  A    between atoms: C_21  and  O_22
REMARK    5  A    between atoms: C_21  and  C_23
REMARK                            x       y       z     vdW  Elec       q    Type
REMARK                         _______ _______ _______ _____ _____    ______ ____
ROOT
ATOM      1  C   UNL     1       2.695   2.276  19.009  0.00  0.00    +0.000 C 
ATOM      2  C   UNL     1       2.587   3.970  18.914  0.00  0.00    +0.000 C 
ATOM      3  C   UNL     1       2.708   4.049  17.410  0.00  0.00    +0.000 C 
ATOM      4  C   UNL     1       4.082   4.383  17.189  0.00  0.00    +0.000 A 
ATOM      5  C   UNL     1       4.862   4.259  16.058  0.00  0.00    +0.000 A 
ATOM      6  N   UNL     1       6.051   4.779  16.282  0.00  0.00    +0.000 NA
ATOM      7  N   UNL     1       6.041   5.208  17.594  0.00  0.00    +0.000 N 
ATOM      8  C   UNL     1       4.931   4.648  18.266  0.00  0.00    +0.000 A 
ATOM      9  C   UNL     1       4.618   4.350  19.696  0.00  0.00    +0.000 C 
ATOM     10  C   UNL     1       3.353   4.034  20.200  0.00  0.00    +0.000 C 
ATOM     11  C   UNL     1       1.676   3.628  20.770  0.00  0.00    +0.000 C 
ATOM     12  C   UNL     1       0.690   4.661  20.057  0.00  0.00    +0.000 C 
ATOM     13  C   UNL     1       1.887   5.356  19.590  0.00  0.00    +0.000 C 
ENDROOT
BRANCH   7  14
ATOM     14  C   UNL     1       7.031   6.204  17.881  0.00  0.00    +0.000 A 
ATOM     15  C   UNL     1       7.896   6.167  18.974  0.00  0.00    +0.000 A 
ATOM     16  C   UNL     1       8.687   7.302  19.253  0.00  0.00    +0.000 A 
ATOM     17  C   UNL     1       8.613   8.447  18.449  0.00  0.00    +0.000 A 
ATOM     18  F   UNL     1       9.321   9.540  18.768  0.00  0.00    +0.000 F 
ATOM     19  C   UNL     1       7.735   8.512  17.387  0.00  0.00    +0.000 A 
ATOM     20  C   UNL     1       6.965   7.396  17.100  0.00  0.00    +0.000 A 
ENDBRANCH   7  14
BRANCH  13  21
ATOM     21  C   UNL     1       2.184   6.874  19.393  0.00  0.00    +0.000 C 
BRANCH  21  22
ATOM     22  C   UNL     1       1.334   7.796  20.145  0.00  0.00    +0.000 A 
ATOM     23  C   UNL     1       0.922   8.996  19.621  0.00  0.00    +0.000 A 
ATOM     24  C   UNL     1       0.694   9.863  20.692  0.00  0.00    +0.000 A 
ATOM     25  C   UNL     1       0.829  11.253  20.782  0.00  0.00    +0.000 A 
ATOM     26  C   UNL     1      -0.340  11.739  21.316  0.00  0.00    +0.000 A 
ATOM     27  C   UNL     1      -0.666  11.236  22.566  0.00  0.00    +0.000 A 
ATOM     28  C   UNL     1      -0.270   9.927  22.903  0.00  0.00    +0.000 A 
ATOM     29  C   UNL     1       0.312   9.184  21.861  0.00  0.00    +0.000 A 
ATOM     30  S   UNL     1       0.710   7.521  21.704  0.00  0.00    +0.000 S 
ENDBRANCH  21  22
BRANCH  21  31
ATOM     31  O   UNL     1       2.314   7.301  18.049  0.00  0.00    +0.000 OA
ATOM     32  H   UNL     1       1.479   7.067  17.633  0.00  0.00    +0.000 HD
ENDBRANCH  21  31
ENDBRANCH  13  21
TORSDOF 4
ENDMDL
MODEL 6
REMARK VINA RESULT:      -7.4      1.210      1.650
REMARK  Name = 
REMARK  5 active torsions:
REMARK  status: ('A' for Active; 'I' for Inactive)
REMARK    1  A    between atoms: C_1  and  C_2
REMARK    2  A    between atoms: N_7  and  C_8
REMARK    3  A    between atoms: C_20  and  C_21
REMARK    4  A    between atoms: C_21  and  O_22
REMARK    5  A    between atoms: C_21  and  C_23
REMARK                            x       y       z     vdW  Elec       q    Type
REMARK                         _______ _______ _______ _____ _____    ______ ____
ROOT
ATOM      1  C   UNL     1       4.048   2.900  18.377  0.00  0.00    +0.000 C 
ATOM      2  C   UNL     1       3.647   4.549  18.292  0.00  0.00    +0.000 C 
ATOM      3  C   UNL     1       3.920   4.699  16.814  0.00  0.00    +0.000 C 
ATOM      4  C   UNL     1       5.227   5.279  16.759  0.00  0.00    +0.000 A 
ATOM      5  C   UNL     1       6.138   5.335  15.725  0.00  0.00    +0.000 A 
ATOM      6  N   UNL     1       7.181   6.050  16.093  0.00  0.00    +0.000 NA
ATOM      7  N   UNL     1       6.947   6.426  17.401  0.00  0.00    +0.000 N 
ATOM      8  C   UNL     1       5.887   5.655  17.931  0.00  0.00    +0.000 A 
ATOM      9  C   UNL     1       5.475   5.258  19.311  0.00  0.00    +0.000 C 
ATOM     10  C   UNL     1       4.239   4.705  19.659  0.00  0.00    +0.000 C 
ATOM     11  C   UNL     1       2.610   3.988  20.025  0.00  0.00    +0.000 C 
ATOM     12  C   UNL     1       1.540   4.852  19.215  0.00  0.00    +0.000 C 
ATOM     13  C   UNL     1       2.637   5.765  18.900  0.00  0.00    +0.000 C 
ENDROOT
BRANCH   7  14
ATOM     14  C   UNL     1       7.701   7.572  17.814  0.00  0.00    +0.000 A 
ATOM     15  C   UNL     1       8.544   7.605  18.925  0.00  0.00    +0.000 A 
ATOM     16  C   UNL     1       9.076   8.846  19.338  0.00  0.00    +0.000 A 
ATOM     17  C   UNL     1       8.770  10.025  18.648  0.00  0.00    +0.000 A 
ATOM     18  F   UNL     1       9.229  11.203  19.093  0.00  0.00    +0.000 F 
ATOM     19  C   UNL     1       7.909  10.014  17.570  0.00  0.00    +0.000 A 
ATOM     20  C   UNL     1       7.394   8.797  17.152  0.00  0.00    +0.000 A 
ENDBRANCH   7  14
BRANCH  13  21
ATOM     21  C   UNL     1       2.674   7.317  18.759  0.00  0.00    +0.000 C 
BRANCH  21  22
ATOM     22  C   UNL     1       1.755   8.062  19.618  0.00  0.00    +0.000 A 
ATOM     23  C   UNL     1       1.138   9.213  19.197  0.00  0.00    +0.000 A 
ATOM     24  C   UNL     1       0.861   9.978  20.332  0.00  0.00    +0.000 A 
ATOM     25  C   UNL     1       0.800  11.365  20.500  0.00  0.00    +0.000 A 
ATOM     26  C   UNL     1      -0.388  11.644  21.135  0.00  0.00    +0.000 A 
ATOM     27  C   UNL     1      -0.550  11.032  22.368  0.00  0.00    +0.000 A 
ATOM     28  C   UNL     1       0.054   9.781  22.597  0.00  0.00    +0.000 A 
ATOM     29  C   UNL     1       0.664   9.189  21.477  0.00  0.00    +0.000 A 
ATOM     30  S   UNL     1       1.287   7.614  21.192  0.00  0.00    +0.000 S 
ENDBRANCH  21  22
BRANCH  21  31
ATOM     31  O   UNL     1       2.626   7.811  17.433  0.00  0.00    +0.000 OA
ATOM     32  H   UNL     1       2.259   7.089  16.914  0.00  0.00    +0.000 HD
ENDBRANCH  21  31
ENDBRANCH  13  21
TORSDOF 4
ENDMDL
MODEL 7
REMARK VINA RESULT:      -7.3      7.487     10.527
REMARK  Name = 
REMARK  5 active torsions:
REMARK  status: ('A' for Active; 'I' for Inactive)
REMARK    1  A    between atoms: C_1  and  C_2
REMARK    2  A    between atoms: N_7  and  C_8
REMARK    3  A    between atoms: C_20  and  C_21
REMARK    4  A    between atoms: C_21  and  O_22
REMARK    5  A    between atoms: C_21  and  C_23
REMARK                            x       y       z     vdW  Elec       q    Type
REMARK                         _______ _______ _______ _____ _____    ______ ____
ROOT
ATOM      1  C   UNL     1       0.005  14.032  22.358  0.00  0.00    +0.000 C 
ATOM      2  C   UNL     1      -1.564  13.407  22.174  0.00  0.00    +0.000 C 
ATOM      3  C   UNL     1      -1.176  11.958  22.355  0.00  0.00    +0.000 C 
ATOM      4  C   UNL     1      -1.095  11.450  21.019  0.00  0.00    +0.000 A 
ATOM      5  C   UNL     1      -0.470  10.324  20.526  0.00  0.00    +0.000 A 
ATOM      6  N   UNL     1      -0.734  10.198  19.242  0.00  0.00    +0.000 NA
ATOM      7  N   UNL     1      -1.512  11.286  18.902  0.00  0.00    +0.000 N 
ATOM      8  C   UNL     1      -1.450  12.252  19.932  0.00  0.00    +0.000 A 
ATOM      9  C   UNL     1      -1.660  13.730  19.990  0.00  0.00    +0.000 C 
ATOM     10  C   UNL     1      -1.812  14.481  21.160  0.00  0.00    +0.000 C 
ATOM     11  C   UNL     1      -1.998  15.381  22.727  0.00  0.00    +0.000 C 
ATOM     12  C   UNL     1      -2.985  14.515  23.635  0.00  0.00    +0.000 C 
ATOM     13  C   UNL     1      -3.211  13.684  22.454  0.00  0.00    +0.000 C 
ENDROOT
BRANCH   7  14
ATOM     14  C   UNL     1      -2.284  11.091  17.710  0.00  0.00    +0.000 A 
ATOM     15  C   UNL     1      -3.559  11.617  17.499  0.00  0.00    +0.000 A 
ATOM     16  C   UNL     1      -4.290  11.192  16.370  0.00  0.00    +0.000 A 
ATOM     17  C   UNL     1      -3.751  10.263  15.471  0.00  0.00    +0.000 A 
ATOM     18  F   UNL     1      -4.486   9.819  14.441  0.00  0.00    +0.000 F 
ATOM     19  C   UNL     1      -2.507   9.707  15.685  0.00  0.00    +0.000 A 
ATOM     20  C   UNL     1      -1.778  10.130  16.785  0.00  0.00    +0.000 A 
ENDBRANCH   7  14
BRANCH  13  21
ATOM     21  C   UNL     1      -4.492  12.964  21.934  0.00  0.00    +0.000 C 
BRANCH  21  22
ATOM     22  C   UNL     1      -5.323  13.726  21.003  0.00  0.00    +0.000 A 
ATOM     23  C   UNL     1      -6.254  13.120  20.197  0.00  0.00    +0.000 A 
ATOM     24  C   UNL     1      -6.414  13.926  19.067  0.00  0.00    +0.000 A 
ATOM     25  C   UNL     1      -6.731  13.587  17.747  0.00  0.00    +0.000 A 
ATOM     26  C   UNL     1      -7.769  14.402  17.358  0.00  0.00    +0.000 A 
ATOM     27  C   UNL     1      -7.502  15.760  17.425  0.00  0.00    +0.000 A 
ATOM     28  C   UNL     1      -6.608  16.237  18.402  0.00  0.00    +0.000 A 
ATOM     29  C   UNL     1      -6.165  15.282  19.334  0.00  0.00    +0.000 A 
ATOM     30  S   UNL     1      -5.302  15.417  20.813  0.00  0.00    +0.000 S 
ENDBRANCH  21  22
BRANCH  21  31
ATOM     31  O   UNL     1      -5.293  12.350  22.928  0.00  0.00    +0.000 OA
ATOM     32  H   UNL     1      -4.696  11.755  23.393  0.00  0.00    +0.000 HD
ENDBRANCH  21  31
ENDBRANCH  13  21
TORSDOF 4
ENDMDL
MODEL 8
REMARK VINA RESULT:      -7.3      2.967      6.796
REMARK  Name = 
REMARK  5 active torsions:
REMARK  status: ('A' for Active; 'I' for Inactive)
REMARK    1  A    between atoms: C_1  and  C_2
REMARK    2  A    between atoms: N_7  and  C_8
REMARK    3  A    between atoms: C_20  and  C_21
REMARK    4  A    between atoms: C_21  and  O_22
REMARK    5  A    between atoms: C_21  and  C_23
REMARK                            x       y       z     vdW  Elec       q    Type
REMARK                         _______ _______ _______ _____ _____    ______ ____
ROOT
ATOM      1  C   UNL     1       4.850   3.242  16.207  0.00  0.00    +0.000 C 
ATOM      2  C   UNL     1       5.519   4.264  17.388  0.00  0.00    +0.000 C 
ATOM      3  C   UNL     1       4.900   3.559  18.573  0.00  0.00    +0.000 C 
ATOM      4  C   UNL     1       3.759   4.360  18.896  0.00  0.00    +0.000 A 
ATOM      5  C   UNL     1       2.635   4.058  19.637  0.00  0.00    +0.000 A 
ATOM      6  N   UNL     1       1.881   5.131  19.753  0.00  0.00    +0.000 NA
ATOM      7  N   UNL     1       2.518   6.127  19.040  0.00  0.00    +0.000 N 
ATOM      8  C   UNL     1       3.514   5.555  18.217  0.00  0.00    +0.000 A 
ATOM      9  C   UNL     1       4.192   5.977  16.954  0.00  0.00    +0.000 C 
ATOM     10  C   UNL     1       5.348   5.397  16.423  0.00  0.00    +0.000 C 
ATOM     11  C   UNL     1       6.850   4.585  15.801  0.00  0.00    +0.000 C 
ATOM     12  C   UNL     1       7.813   4.384  17.059  0.00  0.00    +0.000 C 
ATOM     13  C   UNL     1       6.865   5.201  17.812  0.00  0.00    +0.000 C 
ENDROOT
BRANCH   7  14
ATOM     14  C   UNL     1       2.130   7.451  19.429  0.00  0.00    +0.000 A 
ATOM     15  C   UNL     1       1.671   7.800  20.699  0.00  0.00    +0.000 A 
ATOM     16  C   UNL     1       1.137   9.091  20.898  0.00  0.00    +0.000 A 
ATOM     17  C   UNL     1       1.070  10.012  19.844  0.00  0.00    +0.000 A 
ATOM     18  F   UNL     1       0.498  11.210  20.034  0.00  0.00    +0.000 F 
ATOM     19  C   UNL     1       1.487   9.670  18.575  0.00  0.00    +0.000 A 
ATOM     20  C   UNL     1       2.024   8.408  18.376  0.00  0.00    +0.000 A 
ENDBRANCH   7  14
BRANCH  13  21
ATOM     21  C   UNL     1       7.086   6.257  18.938  0.00  0.00    +0.000 C 
BRANCH  21  22
ATOM     22  C   UNL     1       7.692   7.521  18.522  0.00  0.00    +0.000 A 
ATOM     23  C   UNL     1       8.877   7.968  19.053  0.00  0.00    +0.000 A 
ATOM     24  C   UNL     1       8.876   9.362  18.961  0.00  0.00    +0.000 A 
ATOM     25  C   UNL     1       9.464  10.327  19.785  0.00  0.00    +0.000 A 
ATOM     26  C   UNL     1      10.170  11.179  18.969  0.00  0.00    +0.000 A 
ATOM     27  C   UNL     1       9.417  11.815  17.995  0.00  0.00    +0.000 A 
ATOM     28  C   UNL     1       8.291  11.160  17.461  0.00  0.00    +0.000 A 
ATOM     29  C   UNL     1       8.113   9.828  17.878  0.00  0.00    +0.000 A 
ATOM     30  S   UNL     1       7.077   8.571  17.333  0.00  0.00    +0.000 S 
ENDBRANCH  21  22
BRANCH  21  31
ATOM     31  O   UNL     1       7.704   5.773  20.116  0.00  0.00    +0.000 OA
ATOM     32  H   UNL     1       7.530   6.446  20.782  0.00  0.00    +0.000 HD
ENDBRANCH  21  31
ENDBRANCH  13  21
TORSDOF 4
ENDMDL
MODEL 9
REMARK VINA RESULT:      -7.2      4.655      8.003
REMARK  Name = 
REMARK  5 active torsions:
REMARK  status: ('A' for Active; 'I' for Inactive)
REMARK    1  A    between atoms: C_1  and  C_2
REMARK    2  A    between atoms: N_7  and  C_8
REMARK    3  A    between atoms: C_20  and  C_21
REMARK    4  A    between atoms: C_21  and  O_22
REMARK    5  A    between atoms: C_21  and  C_23
REMARK                            x       y       z     vdW  Elec       q    Type
REMARK                         _______ _______ _______ _____ _____    ______ ____
ROOT
ATOM      1  C   UNL     1      -2.786  12.197  19.468  0.00  0.00    +0.000 C 
ATOM      2  C   UNL     1      -1.265  11.508  19.154  0.00  0.00    +0.000 C 
ATOM      3  C   UNL     1      -0.800  11.498  20.592  0.00  0.00    +0.000 C 
ATOM      4  C   UNL     1       0.034  12.657  20.696  0.00  0.00    +0.000 A 
ATOM      5  C   UNL     1       0.457  13.357  21.806  0.00  0.00    +0.000 A 
ATOM      6  N   UNL     1       1.291  14.307  21.438  0.00  0.00    +0.000 NA
ATOM      7  N   UNL     1       1.371  14.235  20.061  0.00  0.00    +0.000 N 
ATOM      8  C   UNL     1       0.319  13.430  19.569  0.00  0.00    +0.000 A 
ATOM      9  C   UNL     1      -0.394  13.332  18.259  0.00  0.00    +0.000 C 
ATOM     10  C   UNL     1      -1.239  12.287  17.874  0.00  0.00    +0.000 C 
ATOM     11  C   UNL     1      -2.326  10.892  17.455  0.00  0.00    +0.000 C 
ATOM     12  C   UNL     1      -1.565   9.567  17.919  0.00  0.00    +0.000 C 
ATOM     13  C   UNL     1      -0.408  10.420  18.179  0.00  0.00    +0.000 C 
ENDROOT
BRANCH   7  14
ATOM     14  C   UNL     1       2.554  14.838  19.521  0.00  0.00    +0.000 A 
ATOM     15  C   UNL     1       2.696  15.252  18.197  0.00  0.00    +0.000 A 
ATOM     16  C   UNL     1       3.972  15.649  17.742  0.00  0.00    +0.000 A 
ATOM     17  C   UNL     1       5.078  15.635  18.601  0.00  0.00    +0.000 A 
ATOM     18  F   UNL     1       6.295  15.950  18.135  0.00  0.00    +0.000 F 
ATOM     19  C   UNL     1       4.961  15.194  19.903  0.00  0.00    +0.000 A 
ATOM     20  C   UNL     1       3.708  14.815  20.359  0.00  0.00    +0.000 A 
ENDBRANCH   7  14
BRANCH  13  21
ATOM     21  C   UNL     1       1.119  10.164  17.998  0.00  0.00    +0.000 C 
BRANCH  21  22
ATOM     22  C   UNL     1       1.649   8.964  18.643  0.00  0.00    +0.000 A 
ATOM     23  C   UNL     1       2.494   8.101  17.990  0.00  0.00    +0.000 A 
ATOM     24  C   UNL     1       2.329   6.840  18.567  0.00  0.00    +0.000 A 
ATOM     25  C   UNL     1       2.445   5.562  18.008  0.00  0.00    +0.000 A 
ATOM     26  C   UNL     1       3.268   4.833  18.833  0.00  0.00    +0.000 A 
ATOM     27  C   UNL     1       2.827   4.715  20.143  0.00  0.00    +0.000 A 
ATOM     28  C   UNL     1       2.067   5.756  20.707  0.00  0.00    +0.000 A 
ATOM     29  C   UNL     1       1.942   6.912  19.915  0.00  0.00    +0.000 A 
ATOM     30  S   UNL     1       1.353   8.490  20.250  0.00  0.00    +0.000 S 
ENDBRANCH  21  22
BRANCH  21  31
ATOM     31  O   UNL     1       1.959  11.276  18.250  0.00  0.00    +0.000 OA
ATOM     32  H   UNL     1       2.750  11.112  17.728  0.00  0.00    +0.000 HD
ENDBRANCH  21  31
ENDBRANCH  13  21
TORSDOF 4
ENDMDL
