MODEL 1
REMARK VINA RESULT:      -7.4      0.000      0.000
REMARK  Name = 
REMARK  4 active torsions:
REMARK  status: ('A' for Active; 'I' for Inactive)
REMARK    1  A    between atoms: C_1  and  C_2
REMARK    2  A    between atoms: C_4  and  N_5
REMARK    3  A    between atoms: C_16  and  O_17
REMARK    4  A    between atoms: C_18  and  O_19
REMARK                            x       y       z     vdW  Elec       q    Type
REMARK                         _______ _______ _______ _____ _____    ______ ____
ROOT
ATOM      1  N   UNL     1       4.125   4.494  17.941  0.00  0.00    +0.000 N 
ATOM      2  C   UNL     1       4.546   5.324  18.950  0.00  0.00    +0.000 A 
ATOM      3  N   UNL     1       5.606   6.025  18.608  0.00  0.00    +0.000 NA
ATOM      4  C   UNL     1       5.883   5.629  17.319  0.00  0.00    +0.000 A 
ATOM      5  C   UNL     1       6.879   6.016  16.408  0.00  0.00    +0.000 A 
ATOM      6  N   UNL     1       7.855   6.953  16.722  0.00  0.00    +0.000 N 
ATOM      7  N   UNL     1       6.876   5.475  15.173  0.00  0.00    +0.000 NA
ATOM      8  C   UNL     1       5.927   4.561  14.872  0.00  0.00    +0.000 A 
ATOM      9  I   UNL     1       6.007   3.723  12.944  0.00  0.00    +0.000 I 
ATOM     10  N   UNL     1       4.924   4.121  15.664  0.00  0.00    +0.000 NA
ATOM     11  C   UNL     1       4.966   4.689  16.876  0.00  0.00    +0.000 A 
ATOM     12  H   UNL     1       7.608   7.531  17.518  0.00  0.00    +0.000 HD
ATOM     13  H   UNL     1       8.226   7.415  15.904  0.00  0.00    +0.000 HD
ENDROOT
BRANCH   1  17
ATOM     14  C   UNL     1       1.322   4.279  20.834  0.00  0.00    +0.000 C 
ATOM     15  C   UNL     1       1.147   3.589  19.491  0.00  0.00    +0.000 C 
ATOM     16  O   UNL     1       1.828   4.352  18.472  0.00  0.00    +0.000 OA
ATOM     17  C   UNL     1       2.983   3.607  18.030  0.00  0.00    +0.000 C 
ATOM     18  C   UNL     1       3.162   2.407  18.958  0.00  0.00    +0.000 C 
ATOM     19  C   UNL     1       1.739   2.182  19.446  0.00  0.00    +0.000 C 
BRANCH  18  20
ATOM     20  O   UNL     1       3.664   1.261  18.266  0.00  0.00    +0.000 OA
ATOM     21  H   UNL     1       4.584   1.486  18.003  0.00  0.00    +0.000 HD
ENDBRANCH  18  20
BRANCH  19  22
ATOM     22  O   UNL     1       1.066   1.358  18.474  0.00  0.00    +0.000 OA
ATOM     23  H   UNL     1       0.105   1.508  18.544  0.00  0.00    +0.000 HD
ENDBRANCH  19  22
ENDBRANCH   1  17
TORSDOF 3
ENDMDL
MODEL 2
REMARK VINA RESULT:      -7.3      3.707      6.151
REMARK  Name = 
REMARK  4 active torsions:
REMARK  status: ('A' for Active; 'I' for Inactive)
REMARK    1  A    between atoms: C_1  and  C_2
REMARK    2  A    between atoms: C_4  and  N_5
REMARK    3  A    between atoms: C_16  and  O_17
REMARK    4  A    between atoms: C_18  and  O_19
REMARK                            x       y       z     vdW  Elec       q    Type
REMARK                         _______ _______ _______ _____ _____    ______ ____
ROOT
ATOM      1  N   UNL     1       4.319   4.540  18.366  0.00  0.00    +0.000 N 
ATOM      2  C   UNL     1       4.238   3.170  18.324  0.00  0.00    +0.000 A 
ATOM      3  N   UNL     1       3.251   2.706  19.060  0.00  0.00    +0.000 NA
ATOM      4  C   UNL     1       2.668   3.829  19.605  0.00  0.00    +0.000 A 
ATOM      5  C   UNL     1       1.571   3.997  20.465  0.00  0.00    +0.000 A 
ATOM      6  N   UNL     1       0.842   2.926  20.964  0.00  0.00    +0.000 N 
ATOM      7  N   UNL     1       1.195   5.248  20.803  0.00  0.00    +0.000 NA
ATOM      8  C   UNL     1       1.910   6.288  20.318  0.00  0.00    +0.000 A 
ATOM      9  I   UNL     1       1.300   8.209  20.921  0.00  0.00    +0.000 I 
ATOM     10  N   UNL     1       2.973   6.243  19.484  0.00  0.00    +0.000 NA
ATOM     11  C   UNL     1       3.304   4.982  19.174  0.00  0.00    +0.000 A 
ATOM     12  H   UNL     1       0.973   2.074  20.429  0.00  0.00    +0.000 HD
ATOM     13  H   UNL     1      -0.104   3.183  21.212  0.00  0.00    +0.000 HD
ENDROOT
BRANCH   1  17
ATOM     14  C   UNL     1       5.423   4.285  14.494  0.00  0.00    +0.000 C 
ATOM     15  C   UNL     1       5.813   5.466  15.366  0.00  0.00    +0.000 C 
ATOM     16  O   UNL     1       4.785   5.688  16.355  0.00  0.00    +0.000 OA
ATOM     17  C   UNL     1       5.304   5.326  17.653  0.00  0.00    +0.000 C 
ATOM     18  C   UNL     1       6.658   4.647  17.453  0.00  0.00    +0.000 C 
ATOM     19  C   UNL     1       7.115   5.255  16.135  0.00  0.00    +0.000 C 
BRANCH  18  20
ATOM     20  O   UNL     1       7.572   4.946  18.511  0.00  0.00    +0.000 OA
ATOM     21  H   UNL     1       8.459   4.676  18.186  0.00  0.00    +0.000 HD
ENDBRANCH  18  20
BRANCH  19  22
ATOM     22  O   UNL     1       7.762   6.509  16.431  0.00  0.00    +0.000 OA
ATOM     23  H   UNL     1       7.085   7.158  16.700  0.00  0.00    +0.000 HD
ENDBRANCH  19  22
ENDBRANCH   1  17
TORSDOF 3
ENDMDL
MODEL 3
REMARK VINA RESULT:      -6.9      4.716      5.881
REMARK  Name = 
REMARK  4 active torsions:
REMARK  status: ('A' for Active; 'I' for Inactive)
REMARK    1  A    between atoms: C_1  and  C_2
REMARK    2  A    between atoms: C_4  and  N_5
REMARK    3  A    between atoms: C_16  and  O_17
REMARK    4  A    between atoms: C_18  and  O_19
REMARK                            x       y       z     vdW  Elec       q    Type
REMARK                         _______ _______ _______ _____ _____    ______ ____
ROOT
ATOM      1  N   UNL     1       2.600   6.554  19.280  0.00  0.00    +0.000 N 
ATOM      2  C   UNL     1       3.069   6.821  18.018  0.00  0.00    +0.000 A 
ATOM      3  N   UNL     1       2.747   8.032  17.613  0.00  0.00    +0.000 NA
ATOM      4  C   UNL     1       2.034   8.570  18.661  0.00  0.00    +0.000 A 
ATOM      5  C   UNL     1       1.431   9.824  18.844  0.00  0.00    +0.000 A 
ATOM      6  N   UNL     1       1.454  10.813  17.870  0.00  0.00    +0.000 N 
ATOM      7  N   UNL     1       0.826  10.090  20.020  0.00  0.00    +0.000 NA
ATOM      8  C   UNL     1       0.802   9.123  20.965  0.00  0.00    +0.000 A 
ATOM      9  I   UNL     1      -0.199   9.586  22.757  0.00  0.00    +0.000 I 
ATOM     10  N   UNL     1       1.351   7.889  20.898  0.00  0.00    +0.000 NA
ATOM     11  C   UNL     1       1.944   7.676  19.716  0.00  0.00    +0.000 A 
ATOM     12  H   UNL     1       2.177  10.667  17.173  0.00  0.00    +0.000 HD
ATOM     13  H   UNL     1       1.358  11.742  18.257  0.00  0.00    +0.000 HD
ENDROOT
BRANCH   1  17
ATOM     14  C   UNL     1       4.260   3.138  17.921  0.00  0.00    +0.000 C 
ATOM     15  C   UNL     1       4.008   3.377  19.400  0.00  0.00    +0.000 C 
ATOM     16  O   UNL     1       4.118   4.789  19.680  0.00  0.00    +0.000 OA
ATOM     17  C   UNL     1       2.804   5.305  19.984  0.00  0.00    +0.000 C 
ATOM     18  C   UNL     1       1.780   4.213  19.682  0.00  0.00    +0.000 C 
ATOM     19  C   UNL     1       2.614   2.952  19.858  0.00  0.00    +0.000 C 
BRANCH  18  20
ATOM     20  O   UNL     1       0.678   4.241  20.593  0.00  0.00    +0.000 OA
ATOM     21  H   UNL     1      -0.016   4.786  20.161  0.00  0.00    +0.000 HD
ENDBRANCH  18  20
BRANCH  19  22
ATOM     22  O   UNL     1       2.601   2.609  21.258  0.00  0.00    +0.000 OA
ATOM     23  H   UNL     1       1.755   2.172  21.468  0.00  0.00    +0.000 HD
ENDBRANCH  19  22
ENDBRANCH   1  17
TORSDOF 3
ENDMDL
MODEL 4
REMARK VINA RESULT:      -6.8      1.788      2.497
REMARK  Name = 
REMARK  4 active torsions:
REMARK  status: ('A' for Active; 'I' for Inactive)
REMARK    1  A    between atoms: C_1  and  C_2
REMARK    2  A    between atoms: C_4  and  N_5
REMARK    3  A    between atoms: C_16  and  O_17
REMARK    4  A    between atoms: C_18  and  O_19
REMARK                            x       y       z     vdW  Elec       q    Type
REMARK                         _______ _______ _______ _____ _____    ______ ____
ROOT
ATOM      1  N   UNL     1       5.695   4.504  16.576  0.00  0.00    +0.000 N 
ATOM      2  C   UNL     1       6.662   5.310  17.123  0.00  0.00    +0.000 A 
ATOM      3  N   UNL     1       7.541   5.710  16.228  0.00  0.00    +0.000 NA
ATOM      4  C   UNL     1       7.122   5.134  15.049  0.00  0.00    +0.000 A 
ATOM      5  C   UNL     1       7.630   5.188  13.742  0.00  0.00    +0.000 A 
ATOM      6  N   UNL     1       8.776   5.900  13.415  0.00  0.00    +0.000 N 
ATOM      7  N   UNL     1       6.969   4.543  12.759  0.00  0.00    +0.000 NA
ATOM      8  C   UNL     1       5.855   3.848  13.082  0.00  0.00    +0.000 A 
ATOM      9  I   UNL     1       4.897   2.826  11.511  0.00  0.00    +0.000 I 
ATOM     10  N   UNL     1       5.276   3.732  14.298  0.00  0.00    +0.000 NA
ATOM     11  C   UNL     1       5.966   4.393  15.238  0.00  0.00    +0.000 A 
ATOM     12  H   UNL     1       9.023   6.596  14.111  0.00  0.00    +0.000 HD
ATOM     13  H   UNL     1       8.795   6.181  12.444  0.00  0.00    +0.000 HD
ENDROOT
BRANCH   1  17
ATOM     14  C   UNL     1       2.624   6.362  18.419  0.00  0.00    +0.000 C 
ATOM     15  C   UNL     1       2.626   4.864  18.171  0.00  0.00    +0.000 C 
ATOM     16  O   UNL     1       3.366   4.581  16.964  0.00  0.00    +0.000 OA
ATOM     17  C   UNL     1       4.598   3.919  17.320  0.00  0.00    +0.000 C 
ATOM     18  C   UNL     1       4.745   3.967  18.841  0.00  0.00    +0.000 C 
ATOM     19  C   UNL     1       3.293   4.060  19.286  0.00  0.00    +0.000 C 
BRANCH  18  20
ATOM     20  O   UNL     1       5.375   2.793  19.359  0.00  0.00    +0.000 OA
ATOM     21  H   UNL     1       6.150   3.108  19.875  0.00  0.00    +0.000 HD
ENDBRANCH  18  20
BRANCH  19  22
ATOM     22  O   UNL     1       2.768   2.720  19.356  0.00  0.00    +0.000 OA
ATOM     23  H   UNL     1       2.228   2.634  20.164  0.00  0.00    +0.000 HD
ENDBRANCH  19  22
ENDBRANCH   1  17
TORSDOF 3
ENDMDL
MODEL 5
REMARK VINA RESULT:      -6.7      2.233      3.260
REMARK  Name = 
REMARK  4 active torsions:
REMARK  status: ('A' for Active; 'I' for Inactive)
REMARK    1  A    between atoms: C_1  and  C_2
REMARK    2  A    between atoms: C_4  and  N_5
REMARK    3  A    between atoms: C_16  and  O_17
REMARK    4  A    between atoms: C_18  and  O_19
REMARK                            x       y       z     vdW  Elec       q    Type
REMARK                         _______ _______ _______ _____ _____    ______ ____
ROOT
ATOM      1  N   UNL     1       4.595   4.206  17.988  0.00  0.00    +0.000 N 
ATOM      2  C   UNL     1       4.403   3.211  17.063  0.00  0.00    +0.000 A 
ATOM      3  N   UNL     1       5.181   3.352  16.011  0.00  0.00    +0.000 NA
ATOM      4  C   UNL     1       5.908   4.493  16.268  0.00  0.00    +0.000 A 
ATOM      5  C   UNL     1       6.905   5.160  15.538  0.00  0.00    +0.000 A 
ATOM      6  N   UNL     1       7.339   4.721  14.294  0.00  0.00    +0.000 N 
ATOM      7  N   UNL     1       7.481   6.256  16.073  0.00  0.00    +0.000 NA
ATOM      8  C   UNL     1       7.053   6.682  17.283  0.00  0.00    +0.000 A 
ATOM      9  I   UNL     1       7.960   8.423  18.040  0.00  0.00    +0.000 I 
ATOM     10  N   UNL     1       6.110   6.119  18.071  0.00  0.00    +0.000 NA
ATOM     11  C   UNL     1       5.573   5.033  17.499  0.00  0.00    +0.000 A 
ATOM     12  H   UNL     1       7.104   3.751  14.112  0.00  0.00    +0.000 HD
ATOM     13  H   UNL     1       8.280   5.024  14.083  0.00  0.00    +0.000 HD
ENDROOT
BRANCH   1  17
ATOM     14  C   UNL     1       1.012   2.642  18.984  0.00  0.00    +0.000 C 
ATOM     15  C   UNL     1       1.959   3.211  20.026  0.00  0.00    +0.000 C 
ATOM     16  O   UNL     1       3.321   3.021  19.586  0.00  0.00    +0.000 OA
ATOM     17  C   UNL     1       3.881   4.307  19.244  0.00  0.00    +0.000 C 
ATOM     18  C   UNL     1       2.756   5.341  19.272  0.00  0.00    +0.000 C 
ATOM     19  C   UNL     1       1.784   4.710  20.258  0.00  0.00    +0.000 C 
BRANCH  18  20
ATOM     20  O   UNL     1       3.208   6.618  19.730  0.00  0.00    +0.000 OA
ATOM     21  H   UNL     1       3.422   6.503  20.682  0.00  0.00    +0.000 HD
ENDBRANCH  18  20
BRANCH  19  22
ATOM     22  O   UNL     1       2.196   5.090  21.586  0.00  0.00    +0.000 OA
ATOM     23  H   UNL     1       1.426   5.039  22.182  0.00  0.00    +0.000 HD
ENDBRANCH  19  22
ENDBRANCH   1  17
TORSDOF 3
ENDMDL
MODEL 6
REMARK VINA RESULT:      -6.5      3.986      6.415
REMARK  Name = 
REMARK  4 active torsions:
REMARK  status: ('A' for Active; 'I' for Inactive)
REMARK    1  A    between atoms: C_1  and  C_2
REMARK    2  A    between atoms: C_4  and  N_5
REMARK    3  A    between atoms: C_16  and  O_17
REMARK    4  A    between atoms: C_18  and  O_19
REMARK                            x       y       z     vdW  Elec       q    Type
REMARK                         _______ _______ _______ _____ _____    ______ ____
ROOT
ATOM      1  N   UNL     1       4.585   4.987  19.159  0.00  0.00    +0.000 N 
ATOM      2  C   UNL     1       4.593   3.628  18.967  0.00  0.00    +0.000 A 
ATOM      3  N   UNL     1       3.470   3.063  19.357  0.00  0.00    +0.000 NA
ATOM      4  C   UNL     1       2.702   4.105  19.825  0.00  0.00    +0.000 A 
ATOM      5  C   UNL     1       1.406   4.153  20.363  0.00  0.00    +0.000 A 
ATOM      6  N   UNL     1       0.628   3.016  20.539  0.00  0.00    +0.000 N 
ATOM      7  N   UNL     1       0.886   5.350  20.702  0.00  0.00    +0.000 NA
ATOM      8  C   UNL     1       1.647   6.454  20.533  0.00  0.00    +0.000 A 
ATOM      9  I   UNL     1       0.793   8.284  21.125  0.00  0.00    +0.000 I 
ATOM     10  N   UNL     1       2.897   6.526  20.022  0.00  0.00    +0.000 NA
ATOM     11  C   UNL     1       3.367   5.314  19.697  0.00  0.00    +0.000 A 
ATOM     12  H   UNL     1       0.945   2.229  19.982  0.00  0.00    +0.000 HD
ATOM     13  H   UNL     1      -0.362   3.220  20.542  0.00  0.00    +0.000 HD
ENDROOT
BRANCH   1  17
ATOM     14  C   UNL     1       6.832   5.046  15.809  0.00  0.00    +0.000 C 
ATOM     15  C   UNL     1       6.852   6.187  16.812  0.00  0.00    +0.000 C 
ATOM     16  O   UNL     1       5.559   6.288  17.445  0.00  0.00    +0.000 OA
ATOM     17  C   UNL     1       5.682   5.870  18.821  0.00  0.00    +0.000 C 
ATOM     18  C   UNL     1       7.077   5.280  19.018  0.00  0.00    +0.000 C 
ATOM     19  C   UNL     1       7.869   5.997  17.935  0.00  0.00    +0.000 C 
BRANCH  18  20
ATOM     20  O   UNL     1       7.601   5.558  20.319  0.00  0.00    +0.000 OA
ATOM     21  H   UNL     1       8.443   6.043  20.173  0.00  0.00    +0.000 HD
ENDBRANCH  18  20
BRANCH  19  22
ATOM     22  O   UNL     1       8.304   7.261  18.473  0.00  0.00    +0.000 OA
ATOM     23  H   UNL     1       8.983   7.098  19.154  0.00  0.00    +0.000 HD
ENDBRANCH  19  22
ENDBRANCH   1  17
TORSDOF 3
ENDMDL
MODEL 7
REMARK VINA RESULT:      -6.5      3.587      6.061
REMARK  Name = 
REMARK  4 active torsions:
REMARK  status: ('A' for Active; 'I' for Inactive)
REMARK    1  A    between atoms: C_1  and  C_2
REMARK    2  A    between atoms: C_4  and  N_5
REMARK    3  A    between atoms: C_16  and  O_17
REMARK    4  A    between atoms: C_18  and  O_19
REMARK                            x       y       z     vdW  Elec       q    Type
REMARK                         _______ _______ _______ _____ _____    ______ ____
ROOT
ATOM      1  N   UNL     1       4.431   3.917  18.329  0.00  0.00    +0.000 N 
ATOM      2  C   UNL     1       4.231   2.563  18.430  0.00  0.00    +0.000 A 
ATOM      3  N   UNL     1       3.187   2.268  19.175  0.00  0.00    +0.000 NA
ATOM      4  C   UNL     1       2.691   3.488  19.575  0.00  0.00    +0.000 A 
ATOM      5  C   UNL     1       1.590   3.842  20.371  0.00  0.00    +0.000 A 
ATOM      6  N   UNL     1       0.756   2.898  20.955  0.00  0.00    +0.000 N 
ATOM      7  N   UNL     1       1.317   5.149  20.560  0.00  0.00    +0.000 NA
ATOM      8  C   UNL     1       2.133   6.066  19.993  0.00  0.00    +0.000 A 
ATOM      9  I   UNL     1       1.678   8.087  20.365  0.00  0.00    +0.000 I 
ATOM     10  N   UNL     1       3.211   5.840  19.209  0.00  0.00    +0.000 NA
ATOM     11  C   UNL     1       3.437   4.529  19.047  0.00  0.00    +0.000 A 
ATOM     12  H   UNL     1       0.827   1.984  20.520  0.00  0.00    +0.000 HD
ATOM     13  H   UNL     1      -0.169   3.259  21.140  0.00  0.00    +0.000 HD
ENDROOT
BRANCH   1  17
ATOM     14  C   UNL     1       7.756   5.747  19.695  0.00  0.00    +0.000 C 
ATOM     15  C   UNL     1       7.596   5.355  18.236  0.00  0.00    +0.000 C 
ATOM     16  O   UNL     1       6.773   4.172  18.149  0.00  0.00    +0.000 OA
ATOM     17  C   UNL     1       5.500   4.534  17.571  0.00  0.00    +0.000 C 
ATOM     18  C   UNL     1       5.435   6.058  17.476  0.00  0.00    +0.000 C 
ATOM     19  C   UNL     1       6.909   6.423  17.388  0.00  0.00    +0.000 C 
BRANCH  18  20
ATOM     20  O   UNL     1       4.719   6.495  16.318  0.00  0.00    +0.000 OA
ATOM     21  H   UNL     1       5.116   6.016  15.558  0.00  0.00    +0.000 HD
ENDBRANCH  18  20
BRANCH  19  22
ATOM     22  O   UNL     1       7.303   6.331  16.004  0.00  0.00    +0.000 OA
ATOM     23  H   UNL     1       6.527   6.076  15.472  0.00  0.00    +0.000 HD
ENDBRANCH  19  22
ENDBRANCH   1  17
TORSDOF 3
ENDMDL
MODEL 8
REMARK VINA RESULT:      -6.4      3.550      6.117
REMARK  Name = 
REMARK  4 active torsions:
REMARK  status: ('A' for Active; 'I' for Inactive)
REMARK    1  A    between atoms: C_1  and  C_2
REMARK    2  A    between atoms: C_4  and  N_5
REMARK    3  A    between atoms: C_16  and  O_17
REMARK    4  A    between atoms: C_18  and  O_19
REMARK                            x       y       z     vdW  Elec       q    Type
REMARK                         _______ _______ _______ _____ _____    ______ ____
ROOT
ATOM      1  N   UNL     1       3.789   3.952  18.106  0.00  0.00    +0.000 N 
ATOM      2  C   UNL     1       3.862   2.597  18.313  0.00  0.00    +0.000 A 
ATOM      3  N   UNL     1       3.221   2.224  19.400  0.00  0.00    +0.000 NA
ATOM      4  C   UNL     1       2.712   3.393  19.920  0.00  0.00    +0.000 A 
ATOM      5  C   UNL     1       1.932   3.657  21.057  0.00  0.00    +0.000 A 
ATOM      6  N   UNL     1       1.530   2.659  21.935  0.00  0.00    +0.000 N 
ATOM      7  N   UNL     1       1.537   4.924  21.296  0.00  0.00    +0.000 NA
ATOM      8  C   UNL     1       1.932   5.894  20.441  0.00  0.00    +0.000 A 
ATOM      9  I   UNL     1       1.321   7.855  20.896  0.00  0.00    +0.000 I 
ATOM     10  N   UNL     1       2.675   5.754  19.319  0.00  0.00    +0.000 NA
ATOM     11  C   UNL     1       3.037   4.479  19.123  0.00  0.00    +0.000 A 
ATOM     12  H   UNL     1       1.585   1.730  21.531  0.00  0.00    +0.000 HD
ATOM     13  H   UNL     1       0.688   2.902  22.440  0.00  0.00    +0.000 HD
ENDROOT
BRANCH   1  17
ATOM     14  C   UNL     1       7.706   4.478  17.296  0.00  0.00    +0.000 C 
ATOM     15  C   UNL     1       6.626   4.761  16.265  0.00  0.00    +0.000 C 
ATOM     16  O   UNL     1       5.510   3.873  16.489  0.00  0.00    +0.000 OA
ATOM     17  C   UNL     1       4.397   4.645  16.989  0.00  0.00    +0.000 C 
ATOM     18  C   UNL     1       4.893   6.058  17.291  0.00  0.00    +0.000 C 
ATOM     19  C   UNL     1       6.070   6.181  16.336  0.00  0.00    +0.000 C 
BRANCH  18  20
ATOM     20  O   UNL     1       3.897   7.048  17.023  0.00  0.00    +0.000 OA
ATOM     21  H   UNL     1       3.272   6.636  16.385  0.00  0.00    +0.000 HD
ENDBRANCH  18  20
BRANCH  19  22
ATOM     22  O   UNL     1       5.557   6.611  15.059  0.00  0.00    +0.000 OA
ATOM     23  H   UNL     1       4.605   6.801  15.150  0.00  0.00    +0.000 HD
ENDBRANCH  19  22
ENDBRANCH   1  17
TORSDOF 3
ENDMDL
MODEL 9
REMARK VINA RESULT:      -6.4      3.604      5.780
REMARK  Name = 
REMARK  4 active torsions:
REMARK  status: ('A' for Active; 'I' for Inactive)
REMARK    1  A    between atoms: C_1  and  C_2
REMARK    2  A    between atoms: C_4  and  N_5
REMARK    3  A    between atoms: C_16  and  O_17
REMARK    4  A    between atoms: C_18  and  O_19
REMARK                            x       y       z     vdW  Elec       q    Type
REMARK                         _______ _______ _______ _____ _____    ______ ____
ROOT
ATOM      1  N   UNL     1       4.998   5.077  17.719  0.00  0.00    +0.000 N 
ATOM      2  C   UNL     1       5.045   3.893  18.414  0.00  0.00    +0.000 A 
ATOM      3  N   UNL     1       4.129   3.834  19.357  0.00  0.00    +0.000 NA
ATOM      4  C   UNL     1       3.461   5.035  19.269  0.00  0.00    +0.000 A 
ATOM      5  C   UNL     1       2.381   5.568  19.990  0.00  0.00    +0.000 A 
ATOM      6  N   UNL     1       1.771   4.885  21.034  0.00  0.00    +0.000 N 
ATOM      7  N   UNL     1       1.901   6.780  19.643  0.00  0.00    +0.000 NA
ATOM      8  C   UNL     1       2.500   7.443  18.629  0.00  0.00    +0.000 A 
ATOM      9  I   UNL     1       1.733   9.347  18.169  0.00  0.00    +0.000 I 
ATOM     10  N   UNL     1       3.536   7.026  17.867  0.00  0.00    +0.000 NA
ATOM     11  C   UNL     1       3.973   5.818  18.246  0.00  0.00    +0.000 A 
ATOM     12  H   UNL     1       1.964   3.889  21.023  0.00  0.00    +0.000 HD
ATOM     13  H   UNL     1       0.814   5.175  21.181  0.00  0.00    +0.000 HD
ENDROOT
BRANCH   1  17
ATOM     14  C   UNL     1       4.856   3.844  13.881  0.00  0.00    +0.000 C 
ATOM     15  C   UNL     1       5.729   5.007  14.320  0.00  0.00    +0.000 C 
ATOM     16  O   UNL     1       5.104   5.676  15.436  0.00  0.00    +0.000 OA
ATOM     17  C   UNL     1       5.883   5.420  16.625  0.00  0.00    +0.000 C 
ATOM     18  C   UNL     1       6.939   4.370  16.287  0.00  0.00    +0.000 C 
ATOM     19  C   UNL     1       7.118   4.584  14.792  0.00  0.00    +0.000 C 
BRANCH  18  20
ATOM     20  O   UNL     1       8.162   4.587  16.996  0.00  0.00    +0.000 OA
ATOM     21  H   UNL     1       8.219   5.557  17.145  0.00  0.00    +0.000 HD
ENDBRANCH  18  20
BRANCH  19  22
ATOM     22  O   UNL     1       8.081   5.641  14.611  0.00  0.00    +0.000 OA
ATOM     23  H   UNL     1       8.926   5.372  15.018  0.00  0.00    +0.000 HD
ENDBRANCH  19  22
ENDBRANCH   1  17
TORSDOF 3
ENDMDL
