MODEL 1
REMARK VINA RESULT:      -8.7      0.000      0.000
REMARK  Name = 
REMARK  5 active torsions:
REMARK  status: ('A' for Active; 'I' for Inactive)
REMARK    1  A    between atoms: C_1  and  C_2
REMARK    2  A    between atoms: C_2  and  N_3
REMARK    3  A    between atoms: C_6  and  C_7
REMARK    4  A    between atoms: N_10  and  C_11
REMARK    5  A    between atoms: C_15  and  C_16
REMARK                            x       y       z     vdW  Elec       q    Type
REMARK                         _______ _______ _______ _____ _____    ______ ____
ROOT
ATOM      1  N   UNL     1       6.732   5.624  17.474  0.00  0.00    +0.000 N 
ATOM      2  C   UNL     1       6.854   5.397  16.122  0.00  0.00    +0.000 A 
ATOM      3  O   UNL     1       7.710   5.867  15.385  0.00  0.00    +0.000 OA
ATOM      4  C   UNL     1       5.827   4.486  15.546  0.00  0.00    +0.000 A 
ATOM      5  N   UNL     1       4.806   4.048  16.210  0.00  0.00    +0.000 NA
ATOM      6  N   UNL     1       4.649   4.473  17.518  0.00  0.00    +0.000 N 
ATOM      7  C   UNL     1       5.608   5.253  18.209  0.00  0.00    +0.000 A 
ATOM      8  O   UNL     1       5.516   5.591  19.390  0.00  0.00    +0.000 OA
ENDROOT
BRANCH   6   9
ATOM      9  C   UNL     1       3.426   4.015  18.133  0.00  0.00    +0.000 A 
ATOM     10  C   UNL     1       2.232   3.883  17.409  0.00  0.00    +0.000 A 
ATOM     11  C   UNL     1       1.046   3.462  18.016  0.00  0.00    +0.000 A 
ATOM     12  C   UNL     1       1.025   3.162  19.373  0.00  0.00    +0.000 A 
ATOM     13  C   UNL     1       2.195   3.265  20.133  0.00  0.00    +0.000 A 
ATOM     14  C   UNL     1       3.390   3.675  19.502  0.00  0.00    +0.000 A 
BRANCH  13  15
ATOM     15  C   UNL     1       2.177   2.958  21.611  0.00  0.00    +0.000 C 
ATOM     16  F   UNL     1       0.976   2.489  22.052  0.00  0.00    +0.000 F 
ATOM     17  F   UNL     1       3.096   2.017  21.962  0.00  0.00    +0.000 F 
ATOM     18  F   UNL     1       2.448   4.054  22.373  0.00  0.00    +0.000 F 
ENDBRANCH  13  15
ENDBRANCH   6   9
BRANCH   1  20
ATOM     19  C   UNL     1       7.733   7.874  17.743  0.00  0.00    +0.000 C 
ATOM     20  C   UNL     1       7.769   6.406  18.142  0.00  0.00    +0.000 C 
ENDBRANCH   1  20
BRANCH   4  21
ATOM     21  C   UNL     1       5.882   4.000  14.190  0.00  0.00    +0.000 C 
ATOM     22  N   UNL     1       5.929   3.607  13.097  0.00  0.00    +0.000 NA
ENDBRANCH   4  21
TORSDOF 4
ENDMDL
MODEL 2
REMARK VINA RESULT:      -8.2      0.982      1.128
REMARK  Name = 
REMARK  5 active torsions:
REMARK  status: ('A' for Active; 'I' for Inactive)
REMARK    1  A    between atoms: C_1  and  C_2
REMARK    2  A    between atoms: C_2  and  N_3
REMARK    3  A    between atoms: C_6  and  C_7
REMARK    4  A    between atoms: N_10  and  C_11
REMARK    5  A    between atoms: C_15  and  C_16
REMARK                            x       y       z     vdW  Elec       q    Type
REMARK                         _______ _______ _______ _____ _____    ______ ____
ROOT
ATOM      1  N   UNL     1       6.888   5.521  17.385  0.00  0.00    +0.000 N 
ATOM      2  C   UNL     1       7.000   5.366  16.022  0.00  0.00    +0.000 A 
ATOM      3  O   UNL     1       7.750   5.989  15.283  0.00  0.00    +0.000 OA
ATOM      4  C   UNL     1       6.106   4.331  15.434  0.00  0.00    +0.000 A 
ATOM      5  N   UNL     1       5.185   3.717  16.105  0.00  0.00    +0.000 NA
ATOM      6  N   UNL     1       5.007   4.063  17.434  0.00  0.00    +0.000 N 
ATOM      7  C   UNL     1       5.858   4.954  18.132  0.00  0.00    +0.000 A 
ATOM      8  O   UNL     1       5.754   5.229  19.329  0.00  0.00    +0.000 OA
ENDROOT
BRANCH   6   9
ATOM      9  C   UNL     1       3.888   3.400  18.061  0.00  0.00    +0.000 A 
ATOM     10  C   UNL     1       3.336   2.219  17.543  0.00  0.00    +0.000 A 
ATOM     11  C   UNL     1       2.238   1.596  18.141  0.00  0.00    +0.000 A 
ATOM     12  C   UNL     1       1.661   2.143  19.280  0.00  0.00    +0.000 A 
ATOM     13  C   UNL     1       2.187   3.311  19.842  0.00  0.00    +0.000 A 
ATOM     14  C   UNL     1       3.307   3.921  19.236  0.00  0.00    +0.000 A 
BRANCH  13  15
ATOM     15  C   UNL     1       1.554   3.922  21.070  0.00  0.00    +0.000 C 
ATOM     16  F   UNL     1       0.924   3.012  21.865  0.00  0.00    +0.000 F 
ATOM     17  F   UNL     1       2.460   4.550  21.869  0.00  0.00    +0.000 F 
ATOM     18  F   UNL     1       0.613   4.856  20.760  0.00  0.00    +0.000 F 
ENDBRANCH  13  15
ENDBRANCH   6   9
BRANCH   1  20
ATOM     19  C   UNL     1       7.565   7.883  17.694  0.00  0.00    +0.000 C 
ATOM     20  C   UNL     1       7.814   6.427  18.058  0.00  0.00    +0.000 C 
ENDBRANCH   1  20
BRANCH   4  21
ATOM     21  C   UNL     1       6.191   3.910  14.058  0.00  0.00    +0.000 C 
ATOM     22  N   UNL     1       6.256   3.572  12.948  0.00  0.00    +0.000 NA
ENDBRANCH   4  21
TORSDOF 4
ENDMDL
MODEL 3
REMARK VINA RESULT:      -8.1      1.747      3.148
REMARK  Name = 
REMARK  5 active torsions:
REMARK  status: ('A' for Active; 'I' for Inactive)
REMARK    1  A    between atoms: C_1  and  C_2
REMARK    2  A    between atoms: C_2  and  N_3
REMARK    3  A    between atoms: C_6  and  C_7
REMARK    4  A    between atoms: N_10  and  C_11
REMARK    5  A    between atoms: C_15  and  C_16
REMARK                            x       y       z     vdW  Elec       q    Type
REMARK                         _______ _______ _______ _____ _____    ______ ____
ROOT
ATOM      1  N   UNL     1       5.797   4.587  15.954  0.00  0.00    +0.000 N 
ATOM      2  C   UNL     1       6.771   5.540  16.143  0.00  0.00    +0.000 A 
ATOM      3  O   UNL     1       7.827   5.623  15.531  0.00  0.00    +0.000 OA
ATOM      4  C   UNL     1       6.470   6.543  17.201  0.00  0.00    +0.000 A 
ATOM      5  N   UNL     1       5.450   6.461  17.993  0.00  0.00    +0.000 NA
ATOM      6  N   UNL     1       4.611   5.367  17.865  0.00  0.00    +0.000 N 
ATOM      7  C   UNL     1       4.732   4.404  16.835  0.00  0.00    +0.000 A 
ATOM      8  O   UNL     1       3.961   3.457  16.667  0.00  0.00    +0.000 OA
ENDROOT
BRANCH   6   9
ATOM      9  C   UNL     1       3.569   5.316  18.863  0.00  0.00    +0.000 A 
ATOM     10  C   UNL     1       2.862   6.460  19.261  0.00  0.00    +0.000 A 
ATOM     11  C   UNL     1       1.871   6.407  20.244  0.00  0.00    +0.000 A 
ATOM     12  C   UNL     1       1.561   5.201  20.859  0.00  0.00    +0.000 A 
ATOM     13  C   UNL     1       2.229   4.030  20.484  0.00  0.00    +0.000 A 
ATOM     14  C   UNL     1       3.217   4.096  19.477  0.00  0.00    +0.000 A 
BRANCH  13  15
ATOM     15  C   UNL     1       1.912   2.717  21.159  0.00  0.00    +0.000 C 
ATOM     16  F   UNL     1       0.825   2.779  21.979  0.00  0.00    +0.000 F 
ATOM     17  F   UNL     1       1.651   1.720  20.270  0.00  0.00    +0.000 F 
ATOM     18  F   UNL     1       2.936   2.271  21.937  0.00  0.00    +0.000 F 
ENDBRANCH  13  15
ENDBRANCH   6   9
BRANCH   1  20
ATOM     19  C   UNL     1       5.441   4.193  13.535  0.00  0.00    +0.000 C 
ATOM     20  C   UNL     1       5.956   3.639  14.855  0.00  0.00    +0.000 C 
ENDBRANCH   1  20
BRANCH   4  21
ATOM     21  C   UNL     1       7.287   7.707  17.434  0.00  0.00    +0.000 C 
ATOM     22  N   UNL     1       7.947   8.645  17.620  0.00  0.00    +0.000 NA
ENDBRANCH   4  21
TORSDOF 4
ENDMDL
MODEL 4
REMARK VINA RESULT:      -7.8      4.015      5.029
REMARK  Name = 
REMARK  5 active torsions:
REMARK  status: ('A' for Active; 'I' for Inactive)
REMARK    1  A    between atoms: C_1  and  C_2
REMARK    2  A    between atoms: C_2  and  N_3
REMARK    3  A    between atoms: C_6  and  C_7
REMARK    4  A    between atoms: N_10  and  C_11
REMARK    5  A    between atoms: C_15  and  C_16
REMARK                            x       y       z     vdW  Elec       q    Type
REMARK                         _______ _______ _______ _____ _____    ______ ____
ROOT
ATOM      1  N   UNL     1       4.086   4.252  19.040  0.00  0.00    +0.000 N 
ATOM      2  C   UNL     1       5.309   4.574  18.495  0.00  0.00    +0.000 A 
ATOM      3  O   UNL     1       6.294   3.849  18.453  0.00  0.00    +0.000 OA
ATOM      4  C   UNL     1       5.395   5.942  17.915  0.00  0.00    +0.000 A 
ATOM      5  N   UNL     1       4.459   6.828  18.030  0.00  0.00    +0.000 NA
ATOM      6  N   UNL     1       3.329   6.491  18.756  0.00  0.00    +0.000 N 
ATOM      7  C   UNL     1       3.085   5.194  19.268  0.00  0.00    +0.000 A 
ATOM      8  O   UNL     1       2.060   4.857  19.864  0.00  0.00    +0.000 OA
ENDROOT
BRANCH   6   9
ATOM      9  C   UNL     1       2.396   7.581  18.916  0.00  0.00    +0.000 A 
ATOM     10  C   UNL     1       2.044   8.422  17.850  0.00  0.00    +0.000 A 
ATOM     11  C   UNL     1       1.158   9.490  18.017  0.00  0.00    +0.000 A 
ATOM     12  C   UNL     1       0.601   9.746  19.263  0.00  0.00    +0.000 A 
ATOM     13  C   UNL     1       0.911   8.925  20.353  0.00  0.00    +0.000 A 
ATOM     14  C   UNL     1       1.795   7.839  20.165  0.00  0.00    +0.000 A 
BRANCH  13  15
ATOM     15  C   UNL     1       0.324   9.207  21.715  0.00  0.00    +0.000 C 
ATOM     16  F   UNL     1      -0.720   8.391  22.034  0.00  0.00    +0.000 F 
ATOM     17  F   UNL     1       1.232   9.058  22.718  0.00  0.00    +0.000 F 
ATOM     18  F   UNL     1      -0.154  10.477  21.823  0.00  0.00    +0.000 F 
ENDBRANCH  13  15
ENDBRANCH   6   9
BRANCH   1  20
ATOM     19  C   UNL     1       3.405   1.953  18.418  0.00  0.00    +0.000 C 
ATOM     20  C   UNL     1       3.878   2.889  19.520  0.00  0.00    +0.000 C 
ENDBRANCH   1  20
BRANCH   4  21
ATOM     21  C   UNL     1       6.533   6.403  17.159  0.00  0.00    +0.000 C 
ATOM     22  N   UNL     1       7.448   6.776  16.548  0.00  0.00    +0.000 NA
ENDBRANCH   4  21
TORSDOF 4
ENDMDL
MODEL 5
REMARK VINA RESULT:      -7.7      4.218      5.802
REMARK  Name = 
REMARK  5 active torsions:
REMARK  status: ('A' for Active; 'I' for Inactive)
REMARK    1  A    between atoms: C_1  and  C_2
REMARK    2  A    between atoms: C_2  and  N_3
REMARK    3  A    between atoms: C_6  and  C_7
REMARK    4  A    between atoms: N_10  and  C_11
REMARK    5  A    between atoms: C_15  and  C_16
REMARK                            x       y       z     vdW  Elec       q    Type
REMARK                         _______ _______ _______ _____ _____    ______ ____
ROOT
ATOM      1  N   UNL     1       2.810   3.568  19.879  0.00  0.00    +0.000 N 
ATOM      2  C   UNL     1       4.169   3.467  19.687  0.00  0.00    +0.000 A 
ATOM      3  O   UNL     1       4.865   2.493  19.941  0.00  0.00    +0.000 OA
ATOM      4  C   UNL     1       4.812   4.681  19.113  0.00  0.00    +0.000 A 
ATOM      5  N   UNL     1       4.192   5.804  18.938  0.00  0.00    +0.000 NA
ATOM      6  N   UNL     1       2.866   5.884  19.331  0.00  0.00    +0.000 N 
ATOM      7  C   UNL     1       2.118   4.774  19.792  0.00  0.00    +0.000 A 
ATOM      8  O   UNL     1       0.923   4.810  20.090  0.00  0.00    +0.000 OA
ENDROOT
BRANCH   6   9
ATOM      9  C   UNL     1       2.299   7.205  19.193  0.00  0.00    +0.000 A 
ATOM     10  C   UNL     1       2.277   7.881  17.965  0.00  0.00    +0.000 A 
ATOM     11  C   UNL     1       1.749   9.168  17.843  0.00  0.00    +0.000 A 
ATOM     12  C   UNL     1       1.226   9.816  18.956  0.00  0.00    +0.000 A 
ATOM     13  C   UNL     1       1.213   9.175  20.199  0.00  0.00    +0.000 A 
ATOM     14  C   UNL     1       1.736   7.868  20.303  0.00  0.00    +0.000 A 
BRANCH  13  15
ATOM     15  C   UNL     1       0.664   9.879  21.417  0.00  0.00    +0.000 C 
ATOM     16  F   UNL     1       0.917  11.218  21.430  0.00  0.00    +0.000 F 
ATOM     17  F   UNL     1      -0.687   9.755  21.530  0.00  0.00    +0.000 F 
ATOM     18  F   UNL     1       1.186   9.394  22.578  0.00  0.00    +0.000 F 
ENDBRANCH  13  15
ENDBRANCH   6   9
BRANCH   1  20
ATOM     19  C   UNL     1       1.840   2.381  21.825  0.00  0.00    +0.000 C 
ATOM     20  C   UNL     1       2.083   2.382  20.323  0.00  0.00    +0.000 C 
ENDBRANCH   1  20
BRANCH   4  21
ATOM     21  C   UNL     1       6.190   4.715  18.690  0.00  0.00    +0.000 C 
ATOM     22  N   UNL     1       7.300   4.739  18.349  0.00  0.00    +0.000 NA
ENDBRANCH   4  21
TORSDOF 4
ENDMDL
MODEL 6
REMARK VINA RESULT:      -7.7      4.107      6.852
REMARK  Name = 
REMARK  5 active torsions:
REMARK  status: ('A' for Active; 'I' for Inactive)
REMARK    1  A    between atoms: C_1  and  C_2
REMARK    2  A    between atoms: C_2  and  N_3
REMARK    3  A    between atoms: C_6  and  C_7
REMARK    4  A    between atoms: N_10  and  C_11
REMARK    5  A    between atoms: C_15  and  C_16
REMARK                            x       y       z     vdW  Elec       q    Type
REMARK                         _______ _______ _______ _____ _____    ______ ____
ROOT
ATOM      1  N   UNL     1       2.511   3.537  20.053  0.00  0.00    +0.000 N 
ATOM      2  C   UNL     1       3.116   2.698  20.961  0.00  0.00    +0.000 A 
ATOM      3  O   UNL     1       2.595   2.219  21.959  0.00  0.00    +0.000 OA
ATOM      4  C   UNL     1       4.535   2.368  20.659  0.00  0.00    +0.000 A 
ATOM      5  N   UNL     1       5.213   2.928  19.709  0.00  0.00    +0.000 NA
ATOM      6  N   UNL     1       4.589   3.905  18.952  0.00  0.00    +0.000 N 
ATOM      7  C   UNL     1       3.217   4.233  19.073  0.00  0.00    +0.000 A 
ATOM      8  O   UNL     1       2.628   5.055  18.369  0.00  0.00    +0.000 OA
ENDROOT
BRANCH   6   9
ATOM      9  C   UNL     1       5.461   4.541  17.993  0.00  0.00    +0.000 A 
ATOM     10  C   UNL     1       6.348   5.565  18.356  0.00  0.00    +0.000 A 
ATOM     11  C   UNL     1       7.171   6.192  17.418  0.00  0.00    +0.000 A 
ATOM     12  C   UNL     1       7.128   5.809  16.084  0.00  0.00    +0.000 A 
ATOM     13  C   UNL     1       6.270   4.782  15.677  0.00  0.00    +0.000 A 
ATOM     14  C   UNL     1       5.455   4.146  16.639  0.00  0.00    +0.000 A 
BRANCH  13  15
ATOM     15  C   UNL     1       6.202   4.370  14.225  0.00  0.00    +0.000 C 
ATOM     16  F   UNL     1       4.989   4.607  13.651  0.00  0.00    +0.000 F 
ATOM     17  F   UNL     1       7.113   5.024  13.453  0.00  0.00    +0.000 F 
ATOM     18  F   UNL     1       6.441   3.042  14.049  0.00  0.00    +0.000 F 
ENDBRANCH  13  15
ENDBRANCH   6   9
BRANCH   1  20
ATOM     19  C   UNL     1       0.224   2.908  19.337  0.00  0.00    +0.000 C 
ATOM     20  C   UNL     1       1.085   3.813  20.206  0.00  0.00    +0.000 C 
ENDBRANCH   1  20
BRANCH   4  21
ATOM     21  C   UNL     1       5.287   1.384  21.396  0.00  0.00    +0.000 C 
ATOM     22  N   UNL     1       5.895   0.590  21.988  0.00  0.00    +0.000 NA
ENDBRANCH   4  21
TORSDOF 4
ENDMDL
MODEL 7
REMARK VINA RESULT:      -7.7      4.216      5.769
REMARK  Name = 
REMARK  5 active torsions:
REMARK  status: ('A' for Active; 'I' for Inactive)
REMARK    1  A    between atoms: C_1  and  C_2
REMARK    2  A    between atoms: C_2  and  N_3
REMARK    3  A    between atoms: C_6  and  C_7
REMARK    4  A    between atoms: N_10  and  C_11
REMARK    5  A    between atoms: C_15  and  C_16
REMARK                            x       y       z     vdW  Elec       q    Type
REMARK                         _______ _______ _______ _____ _____    ______ ____
ROOT
ATOM      1  N   UNL     1       2.889   3.578  19.771  0.00  0.00    +0.000 N 
ATOM      2  C   UNL     1       4.262   3.596  19.666  0.00  0.00    +0.000 A 
ATOM      3  O   UNL     1       5.009   2.638  19.810  0.00  0.00    +0.000 OA
ATOM      4  C   UNL     1       4.848   4.926  19.344  0.00  0.00    +0.000 A 
ATOM      5  N   UNL     1       4.158   6.021  19.307  0.00  0.00    +0.000 NA
ATOM      6  N   UNL     1       2.809   5.952  19.610  0.00  0.00    +0.000 N 
ATOM      7  C   UNL     1       2.117   4.736  19.829  0.00  0.00    +0.000 A 
ATOM      8  O   UNL     1       0.906   4.648  20.040  0.00  0.00    +0.000 OA
ENDROOT
BRANCH   6   9
ATOM      9  C   UNL     1       2.156   7.239  19.645  0.00  0.00    +0.000 A 
ATOM     10  C   UNL     1       2.113   8.083  18.526  0.00  0.00    +0.000 A 
ATOM     11  C   UNL     1       1.501   9.338  18.575  0.00  0.00    +0.000 A 
ATOM     12  C   UNL     1       0.912   9.782  19.752  0.00  0.00    +0.000 A 
ATOM     13  C   UNL     1       0.916   8.968  20.889  0.00  0.00    +0.000 A 
ATOM     14  C   UNL     1       1.525   7.696  20.821  0.00  0.00    +0.000 A 
BRANCH  13  15
ATOM     15  C   UNL     1       0.294   9.450  22.178  0.00  0.00    +0.000 C 
ATOM     16  F   UNL     1       1.131   9.360  23.250  0.00  0.00    +0.000 F 
ATOM     17  F   UNL     1      -0.093  10.754  22.118  0.00  0.00    +0.000 F 
ATOM     18  F   UNL     1      -0.818   8.741  22.517  0.00  0.00    +0.000 F 
ENDBRANCH  13  15
ENDBRANCH   6   9
BRANCH   1  20
ATOM     19  C   UNL     1       1.594   1.770  18.680  0.00  0.00    +0.000 C 
ATOM     20  C   UNL     1       2.225   2.292  19.962  0.00  0.00    +0.000 C 
ENDBRANCH   1  20
BRANCH   4  21
ATOM     21  C   UNL     1       6.243   5.115  19.035  0.00  0.00    +0.000 C 
ATOM     22  N   UNL     1       7.367   5.271  18.785  0.00  0.00    +0.000 NA
ENDBRANCH   4  21
TORSDOF 4
ENDMDL
MODEL 8
REMARK VINA RESULT:      -7.7      4.349      5.704
REMARK  Name = 
REMARK  5 active torsions:
REMARK  status: ('A' for Active; 'I' for Inactive)
REMARK    1  A    between atoms: C_1  and  C_2
REMARK    2  A    between atoms: C_2  and  N_3
REMARK    3  A    between atoms: C_6  and  C_7
REMARK    4  A    between atoms: N_10  and  C_11
REMARK    5  A    between atoms: C_15  and  C_16
REMARK                            x       y       z     vdW  Elec       q    Type
REMARK                         _______ _______ _______ _____ _____    ______ ____
ROOT
ATOM      1  N   UNL     1       4.455   4.677  18.593  0.00  0.00    +0.000 N 
ATOM      2  C   UNL     1       3.919   3.634  19.314  0.00  0.00    +0.000 A 
ATOM      3  O   UNL     1       4.237   2.456  19.224  0.00  0.00    +0.000 OA
ATOM      4  C   UNL     1       2.857   4.022  20.281  0.00  0.00    +0.000 A 
ATOM      5  N   UNL     1       2.356   5.213  20.353  0.00  0.00    +0.000 NA
ATOM      6  N   UNL     1       2.817   6.169  19.463  0.00  0.00    +0.000 N 
ATOM      7  C   UNL     1       3.893   5.951  18.569  0.00  0.00    +0.000 A 
ATOM      8  O   UNL     1       4.358   6.805  17.812  0.00  0.00    +0.000 OA
ENDROOT
BRANCH   6   9
ATOM      9  C   UNL     1       2.121   7.430  19.554  0.00  0.00    +0.000 A 
ATOM     10  C   UNL     1       2.067   8.330  18.480  0.00  0.00    +0.000 A 
ATOM     11  C   UNL     1       1.412   9.560  18.583  0.00  0.00    +0.000 A 
ATOM     12  C   UNL     1       0.792   9.923  19.772  0.00  0.00    +0.000 A 
ATOM     13  C   UNL     1       0.807   9.051  20.866  0.00  0.00    +0.000 A 
ATOM     14  C   UNL     1       1.459   7.805  20.742  0.00  0.00    +0.000 A 
BRANCH  13  15
ATOM     15  C   UNL     1       0.152   9.445  22.168  0.00  0.00    +0.000 C 
ATOM     16  F   UNL     1      -0.897   8.646  22.510  0.00  0.00    +0.000 F 
ATOM     17  F   UNL     1       1.012   9.402  23.222  0.00  0.00    +0.000 F 
ATOM     18  F   UNL     1      -0.345  10.713  22.139  0.00  0.00    +0.000 F 
ENDBRANCH  13  15
ENDBRANCH   6   9
BRANCH   1  20
ATOM     19  C   UNL     1       5.145   3.921  16.337  0.00  0.00    +0.000 C 
ATOM     20  C   UNL     1       5.586   4.402  17.712  0.00  0.00    +0.000 C 
ENDBRANCH   1  20
BRANCH   4  21
ATOM     21  C   UNL     1       2.291   3.103  21.237  0.00  0.00    +0.000 C 
ATOM     22  N   UNL     1       1.835   2.365  22.009  0.00  0.00    +0.000 NA
ENDBRANCH   4  21
TORSDOF 4
ENDMDL
MODEL 9
REMARK VINA RESULT:      -7.7      4.121      5.566
REMARK  Name = 
REMARK  5 active torsions:
REMARK  status: ('A' for Active; 'I' for Inactive)
REMARK    1  A    between atoms: C_1  and  C_2
REMARK    2  A    between atoms: C_2  and  N_3
REMARK    3  A    between atoms: C_6  and  C_7
REMARK    4  A    between atoms: N_10  and  C_11
REMARK    5  A    between atoms: C_15  and  C_16
REMARK                            x       y       z     vdW  Elec       q    Type
REMARK                         _______ _______ _______ _____ _____    ______ ____
ROOT
ATOM      1  N   UNL     1       3.256   3.778  18.374  0.00  0.00    +0.000 N 
ATOM      2  C   UNL     1       4.542   3.759  18.864  0.00  0.00    +0.000 A 
ATOM      3  O   UNL     1       5.230   2.765  19.049  0.00  0.00    +0.000 OA
ATOM      4  C   UNL     1       5.110   5.098  19.183  0.00  0.00    +0.000 A 
ATOM      5  N   UNL     1       4.421   6.193  19.151  0.00  0.00    +0.000 NA
ATOM      6  N   UNL     1       3.077   6.108  18.828  0.00  0.00    +0.000 N 
ATOM      7  C   UNL     1       2.447   4.911  18.407  0.00  0.00    +0.000 A 
ATOM      8  O   UNL     1       1.268   4.826  18.058  0.00  0.00    +0.000 OA
ENDROOT
BRANCH   6   9
ATOM      9  C   UNL     1       2.376   7.366  18.926  0.00  0.00    +0.000 A 
ATOM     10  C   UNL     1       2.294   8.258  17.846  0.00  0.00    +0.000 A 
ATOM     11  C   UNL     1       1.635   9.485  17.955  0.00  0.00    +0.000 A 
ATOM     12  C   UNL     1       1.037   9.853  19.154  0.00  0.00    +0.000 A 
ATOM     13  C   UNL     1       1.080   8.989  20.253  0.00  0.00    +0.000 A 
ATOM     14  C   UNL     1       1.736   7.745  20.124  0.00  0.00    +0.000 A 
BRANCH  13  15
ATOM     15  C   UNL     1       0.449   9.388  21.566  0.00  0.00    +0.000 C 
ATOM     16  F   UNL     1      -0.603   8.600  21.923  0.00  0.00    +0.000 F 
ATOM     17  F   UNL     1       1.326   9.333  22.606  0.00  0.00    +0.000 F 
ATOM     18  F   UNL     1      -0.033  10.662  21.546  0.00  0.00    +0.000 F 
ENDBRANCH  13  15
ENDBRANCH   6   9
BRANCH   1  20
ATOM     19  C   UNL     1       1.877   1.823  19.018  0.00  0.00    +0.000 C 
ATOM     20  C   UNL     1       2.669   2.520  17.921  0.00  0.00    +0.000 C 
ENDBRANCH   1  20
BRANCH   4  21
ATOM     21  C   UNL     1       6.489   5.299  19.550  0.00  0.00    +0.000 C 
ATOM     22  N   UNL     1       7.600   5.462  19.849  0.00  0.00    +0.000 NA
ENDBRANCH   4  21
TORSDOF 4
ENDMDL
