MODEL 1
REMARK VINA RESULT:      -8.0      0.000      0.000
REMARK  Name = 
REMARK  6 active torsions:
REMARK  status: ('A' for Active; 'I' for Inactive)
REMARK    1  A    between atoms: C_2  and  C_23
REMARK    2  A    between atoms: N_3  and  C_4
REMARK    3  A    between atoms: C_4  and  N_6
REMARK    4  A    between atoms: C_10  and  O_11
REMARK    5  A    between atoms: O_11  and  C_12
REMARK    6  A    between atoms: C_12  and  C_13
REMARK                            x       y       z     vdW  Elec       q    Type
REMARK                         _______ _______ _______ _____ _____    ______ ____
ROOT
ATOM      1  N   UNL     1       1.696   8.305  19.631  0.00  0.00    +0.000 N 
ATOM      2  C   UNL     1       2.285   8.893  18.394  0.00  0.00    +0.000 C 
ATOM      3  C   UNL     1       2.838   7.760  17.543  0.00  0.00    +0.000 C 
ATOM      4  C   UNL     1       2.816   6.620  18.509  0.00  0.00    +0.000 A 
ATOM      5  C   UNL     1       3.311   5.344  18.257  0.00  0.00    +0.000 A 
ATOM      6  C   UNL     1       3.090   4.363  19.217  0.00  0.00    +0.000 A 
ATOM      7  C   UNL     1       2.363   4.669  20.381  0.00  0.00    +0.000 A 
ATOM      8  C   UNL     1       1.853   5.958  20.607  0.00  0.00    +0.000 A 
ATOM      9  C   UNL     1       2.113   6.949  19.679  0.00  0.00    +0.000 A 
ENDROOT
BRANCH   1  10
ATOM     10  C   UNL     1       0.875   9.049  20.487  0.00  0.00    +0.000 C 
ATOM     11  S   UNL     1       1.264   9.213  22.124  0.00  0.00    +0.000 S 
BRANCH  10  14
ATOM     12  O   UNL     1       0.245  11.878  19.718  0.00  0.00    +0.000 OA
ATOM     13  C   UNL     1      -0.539  10.941  19.608  0.00  0.00    +0.000 C 
ATOM     14  N   UNL     1      -0.272   9.597  19.903  0.00  0.00    +0.000 N 
ATOM     15  H   UNL     1      -1.072   8.987  19.935  0.00  0.00    +0.000 HD
BRANCH  13  16
ATOM     16  C   UNL     1      -1.899  11.278  19.101  0.00  0.00    +0.000 A 
ATOM     17  C   UNL     1      -2.728  12.213  19.728  0.00  0.00    +0.000 A 
ATOM     18  C   UNL     1      -4.037  12.405  19.267  0.00  0.00    +0.000 A 
ATOM     19  C   UNL     1      -4.521  11.668  18.187  0.00  0.00    +0.000 A 
ATOM     20  C   UNL     1      -3.702  10.734  17.559  0.00  0.00    +0.000 A 
ATOM     21  C   UNL     1      -2.397  10.537  18.017  0.00  0.00    +0.000 A 
ENDBRANCH  13  16
ENDBRANCH  10  14
ENDBRANCH   1  10
BRANCH   5  22
ATOM     22  O   UNL     1       3.898   5.162  17.038  0.00  0.00    +0.000 OA
BRANCH  22  23
ATOM     23  C   UNL     1       5.163   4.500  17.014  0.00  0.00    +0.000 C 
BRANCH  23  24
ATOM     24  C   UNL     1       6.242   5.422  17.546  0.00  0.00    +0.000 A 
ATOM     25  C   UNL     1       6.513   6.638  16.899  0.00  0.00    +0.000 A 
ATOM     26  C   UNL     1       7.477   7.515  17.403  0.00  0.00    +0.000 A 
ATOM     27  C   UNL     1       8.173   7.197  18.566  0.00  0.00    +0.000 A 
ATOM     28  C   UNL     1       7.903   6.002  19.230  0.00  0.00    +0.000 A 
ATOM     29  C   UNL     1       6.938   5.125  18.729  0.00  0.00    +0.000 A 
ENDBRANCH  23  24
ENDBRANCH  22  23
ENDBRANCH   5  22
TORSDOF 6
ENDMDL
MODEL 2
REMARK VINA RESULT:      -7.8      2.650      3.850
REMARK  Name = 
REMARK  6 active torsions:
REMARK  status: ('A' for Active; 'I' for Inactive)
REMARK    1  A    between atoms: C_2  and  C_23
REMARK    2  A    between atoms: N_3  and  C_4
REMARK    3  A    between atoms: C_4  and  N_6
REMARK    4  A    between atoms: C_10  and  O_11
REMARK    5  A    between atoms: O_11  and  C_12
REMARK    6  A    between atoms: C_12  and  C_13
REMARK                            x       y       z     vdW  Elec       q    Type
REMARK                         _______ _______ _______ _____ _____    ______ ____
ROOT
ATOM      1  N   UNL     1       0.655  10.001  19.716  0.00  0.00    +0.000 N 
ATOM      2  C   UNL     1       0.166   9.448  21.010  0.00  0.00    +0.000 C 
ATOM      3  C   UNL     1       0.943   8.174  21.309  0.00  0.00    +0.000 C 
ATOM      4  C   UNL     1       1.602   7.909  19.995  0.00  0.00    +0.000 A 
ATOM      5  C   UNL     1       2.375   6.791  19.696  0.00  0.00    +0.000 A 
ATOM      6  C   UNL     1       3.027   6.765  18.467  0.00  0.00    +0.000 A 
ATOM      7  C   UNL     1       2.917   7.858  17.590  0.00  0.00    +0.000 A 
ATOM      8  C   UNL     1       2.150   8.987  17.920  0.00  0.00    +0.000 A 
ATOM      9  C   UNL     1       1.460   8.996  19.118  0.00  0.00    +0.000 A 
ENDROOT
BRANCH   1  10
ATOM     10  C   UNL     1       0.335  11.298  19.295  0.00  0.00    +0.000 C 
ATOM     11  S   UNL     1       1.553  12.436  19.012  0.00  0.00    +0.000 S 
BRANCH  10  14
ATOM     12  O   UNL     1      -1.708  10.182  17.406  0.00  0.00    +0.000 OA
ATOM     13  C   UNL     1      -1.937  11.060  18.230  0.00  0.00    +0.000 C 
ATOM     14  N   UNL     1      -1.030  11.575  19.168  0.00  0.00    +0.000 N 
ATOM     15  H   UNL     1      -1.319  12.414  19.642  0.00  0.00    +0.000 HD
BRANCH  13  16
ATOM     16  C   UNL     1      -3.319  11.619  18.229  0.00  0.00    +0.000 A 
ATOM     17  C   UNL     1      -3.921  12.146  19.375  0.00  0.00    +0.000 A 
ATOM     18  C   UNL     1      -5.260  12.554  19.335  0.00  0.00    +0.000 A 
ATOM     19  C   UNL     1      -5.999  12.437  18.159  0.00  0.00    +0.000 A 
ATOM     20  C   UNL     1      -5.407  11.911  17.014  0.00  0.00    +0.000 A 
ATOM     21  C   UNL     1      -4.073  11.500  17.050  0.00  0.00    +0.000 A 
ENDBRANCH  13  16
ENDBRANCH  10  14
ENDBRANCH   1  10
BRANCH   5  22
ATOM     22  O   UNL     1       2.482   5.857  20.685  0.00  0.00    +0.000 OA
BRANCH  22  23
ATOM     23  C   UNL     1       1.612   4.727  20.616  0.00  0.00    +0.000 C 
BRANCH  23  24
ATOM     24  C   UNL     1       2.243   3.638  19.769  0.00  0.00    +0.000 A 
ATOM     25  C   UNL     1       1.683   3.296  18.529  0.00  0.00    +0.000 A 
ATOM     26  C   UNL     1       2.279   2.323  17.722  0.00  0.00    +0.000 A 
ATOM     27  C   UNL     1       3.447   1.689  18.136  0.00  0.00    +0.000 A 
ATOM     28  C   UNL     1       4.026   2.032  19.357  0.00  0.00    +0.000 A 
ATOM     29  C   UNL     1       3.433   3.005  20.163  0.00  0.00    +0.000 A 
ENDBRANCH  23  24
ENDBRANCH  22  23
ENDBRANCH   5  22
TORSDOF 6
ENDMDL
MODEL 3
REMARK VINA RESULT:      -7.8      3.767      9.027
REMARK  Name = 
REMARK  6 active torsions:
REMARK  status: ('A' for Active; 'I' for Inactive)
REMARK    1  A    between atoms: C_2  and  C_23
REMARK    2  A    between atoms: N_3  and  C_4
REMARK    3  A    between atoms: C_4  and  N_6
REMARK    4  A    between atoms: C_10  and  O_11
REMARK    5  A    between atoms: O_11  and  C_12
REMARK    6  A    between atoms: C_12  and  C_13
REMARK                            x       y       z     vdW  Elec       q    Type
REMARK                         _______ _______ _______ _____ _____    ______ ____
ROOT
ATOM      1  N   UNL     1       5.018   5.509  17.455  0.00  0.00    +0.000 N 
ATOM      2  C   UNL     1       4.635   6.848  16.925  0.00  0.00    +0.000 C 
ATOM      3  C   UNL     1       3.625   7.468  17.880  0.00  0.00    +0.000 C 
ATOM      4  C   UNL     1       3.255   6.296  18.729  0.00  0.00    +0.000 A 
ATOM      5  C   UNL     1       2.280   6.301  19.722  0.00  0.00    +0.000 A 
ATOM      6  C   UNL     1       2.154   5.161  20.510  0.00  0.00    +0.000 A 
ATOM      7  C   UNL     1       3.014   4.067  20.307  0.00  0.00    +0.000 A 
ATOM      8  C   UNL     1       4.006   4.091  19.313  0.00  0.00    +0.000 A 
ATOM      9  C   UNL     1       4.102   5.202  18.495  0.00  0.00    +0.000 A 
ENDROOT
BRANCH   1  10
ATOM     10  C   UNL     1       6.119   4.802  16.956  0.00  0.00    +0.000 C 
ATOM     11  S   UNL     1       7.553   4.702  17.846  0.00  0.00    +0.000 S 
BRANCH  10  14
ATOM     12  O   UNL     1       7.547   5.343  14.376  0.00  0.00    +0.000 OA
ATOM     13  C   UNL     1       6.613   4.558  14.496  0.00  0.00    +0.000 C 
ATOM     14  N   UNL     1       5.951   4.234  15.689  0.00  0.00    +0.000 N 
ATOM     15  H   UNL     1       5.092   3.717  15.588  0.00  0.00    +0.000 HD
BRANCH  13  16
ATOM     16  C   UNL     1       6.154   3.886  13.248  0.00  0.00    +0.000 A 
ATOM     17  C   UNL     1       4.813   3.855  12.856  0.00  0.00    +0.000 A 
ATOM     18  C   UNL     1       4.431   3.114  11.731  0.00  0.00    +0.000 A 
ATOM     19  C   UNL     1       5.381   2.402  10.999  0.00  0.00    +0.000 A 
ATOM     20  C   UNL     1       6.718   2.426  11.384  0.00  0.00    +0.000 A 
ATOM     21  C   UNL     1       7.103   3.161  12.507  0.00  0.00    +0.000 A 
ENDBRANCH  13  16
ENDBRANCH  10  14
ENDBRANCH   1  10
BRANCH   5  22
ATOM     22  O   UNL     1       1.594   7.470  19.879  0.00  0.00    +0.000 OA
BRANCH  22  23
ATOM     23  C   UNL     1       1.461   7.977  21.208  0.00  0.00    +0.000 C 
BRANCH  23  24
ATOM     24  C   UNL     1       0.546   9.186  21.212  0.00  0.00    +0.000 A 
ATOM     25  C   UNL     1       0.046   9.688  22.423  0.00  0.00    +0.000 A 
ATOM     26  C   UNL     1      -0.765  10.826  22.444  0.00  0.00    +0.000 A 
ATOM     27  C   UNL     1      -1.076  11.485  21.257  0.00  0.00    +0.000 A 
ATOM     28  C   UNL     1      -0.572  11.010  20.048  0.00  0.00    +0.000 A 
ATOM     29  C   UNL     1       0.241   9.874  20.026  0.00  0.00    +0.000 A 
ENDBRANCH  23  24
ENDBRANCH  22  23
ENDBRANCH   5  22
TORSDOF 6
ENDMDL
MODEL 4
REMARK VINA RESULT:      -7.7      0.176      1.302
REMARK  Name = 
REMARK  6 active torsions:
REMARK  status: ('A' for Active; 'I' for Inactive)
REMARK    1  A    between atoms: C_2  and  C_23
REMARK    2  A    between atoms: N_3  and  C_4
REMARK    3  A    between atoms: C_4  and  N_6
REMARK    4  A    between atoms: C_10  and  O_11
REMARK    5  A    between atoms: O_11  and  C_12
REMARK    6  A    between atoms: C_12  and  C_13
REMARK                            x       y       z     vdW  Elec       q    Type
REMARK                         _______ _______ _______ _____ _____    ______ ____
ROOT
ATOM      1  N   UNL     1       1.790   8.238  19.518  0.00  0.00    +0.000 N 
ATOM      2  C   UNL     1       2.421   8.784  18.284  0.00  0.00    +0.000 C 
ATOM      3  C   UNL     1       2.966   7.619  17.472  0.00  0.00    +0.000 C 
ATOM      4  C   UNL     1       2.894   6.502  18.461  0.00  0.00    +0.000 A 
ATOM      5  C   UNL     1       3.363   5.210  18.249  0.00  0.00    +0.000 A 
ATOM      6  C   UNL     1       3.096   4.256  19.225  0.00  0.00    +0.000 A 
ATOM      7  C   UNL     1       2.350   4.605  20.364  0.00  0.00    +0.000 A 
ATOM      8  C   UNL     1       1.866   5.911  20.550  0.00  0.00    +0.000 A 
ATOM      9  C   UNL     1       2.172   6.874  19.606  0.00  0.00    +0.000 A 
ENDROOT
BRANCH   1  10
ATOM     10  C   UNL     1       0.967   9.021  20.339  0.00  0.00    +0.000 C 
ATOM     11  S   UNL     1       1.393   9.324  21.946  0.00  0.00    +0.000 S 
BRANCH  10  14
ATOM     12  O   UNL     1      -0.024  11.818  19.908  0.00  0.00    +0.000 OA
ATOM     13  C   UNL     1      -0.655  10.809  19.615  0.00  0.00    +0.000 C 
ATOM     14  N   UNL     1      -0.213   9.485  19.748  0.00  0.00    +0.000 N 
ATOM     15  H   UNL     1      -0.917   8.774  19.637  0.00  0.00    +0.000 HD
BRANCH  13  16
ATOM     16  C   UNL     1      -2.020  11.027  19.056  0.00  0.00    +0.000 A 
ATOM     17  C   UNL     1      -2.506  10.318  17.954  0.00  0.00    +0.000 A 
ATOM     18  C   UNL     1      -3.754  10.646  17.409  0.00  0.00    +0.000 A 
ATOM     19  C   UNL     1      -4.515  11.678  17.958  0.00  0.00    +0.000 A 
ATOM     20  C   UNL     1      -4.037  12.390  19.054  0.00  0.00    +0.000 A 
ATOM     21  C   UNL     1      -2.792  12.068  19.599  0.00  0.00    +0.000 A 
ENDBRANCH  13  16
ENDBRANCH  10  14
ENDBRANCH   1  10
BRANCH   5  22
ATOM     22  O   UNL     1       3.974   4.986  17.049  0.00  0.00    +0.000 OA
BRANCH  22  23
ATOM     23  C   UNL     1       5.285   4.420  17.077  0.00  0.00    +0.000 C 
BRANCH  23  24
ATOM     24  C   UNL     1       6.277   5.433  17.614  0.00  0.00    +0.000 A 
ATOM     25  C   UNL     1       7.021   5.148  18.768  0.00  0.00    +0.000 A 
ATOM     26  C   UNL     1       7.968   6.056  19.250  0.00  0.00    +0.000 A 
ATOM     27  C   UNL     1       8.192   7.255  18.578  0.00  0.00    +0.000 A 
ATOM     28  C   UNL     1       7.474   7.545  17.419  0.00  0.00    +0.000 A 
ATOM     29  C   UNL     1       6.530   6.636  16.936  0.00  0.00    +0.000 A 
ENDBRANCH  23  24
ENDBRANCH  22  23
ENDBRANCH   5  22
TORSDOF 6
ENDMDL
MODEL 5
REMARK VINA RESULT:      -7.7      3.459      5.451
REMARK  Name = 
REMARK  6 active torsions:
REMARK  status: ('A' for Active; 'I' for Inactive)
REMARK    1  A    between atoms: C_2  and  C_23
REMARK    2  A    between atoms: N_3  and  C_4
REMARK    3  A    between atoms: C_4  and  N_6
REMARK    4  A    between atoms: C_10  and  O_11
REMARK    5  A    between atoms: O_11  and  C_12
REMARK    6  A    between atoms: C_12  and  C_13
REMARK                            x       y       z     vdW  Elec       q    Type
REMARK                         _______ _______ _______ _____ _____    ______ ____
ROOT
ATOM      1  N   UNL     1      -0.655  11.211  21.961  0.00  0.00    +0.000 N 
ATOM      2  C   UNL     1      -0.451  10.172  23.009  0.00  0.00    +0.000 C 
ATOM      3  C   UNL     1       0.497   9.117  22.457  0.00  0.00    +0.000 C 
ATOM      4  C   UNL     1       0.516   9.461  21.004  0.00  0.00    +0.000 A 
ATOM      5  C   UNL     1       1.176   8.736  20.016  0.00  0.00    +0.000 A 
ATOM      6  C   UNL     1       1.203   9.269  18.731  0.00  0.00    +0.000 A 
ATOM      7  C   UNL     1       0.603  10.514  18.474  0.00  0.00    +0.000 A 
ATOM      8  C   UNL     1      -0.039  11.241  19.490  0.00  0.00    +0.000 A 
ATOM      9  C   UNL     1      -0.113  10.692  20.757  0.00  0.00    +0.000 A 
ENDROOT
BRANCH   1  10
ATOM     10  C   UNL     1      -1.256  12.444  22.246  0.00  0.00    +0.000 C 
ATOM     11  S   UNL     1      -0.336  13.862  22.281  0.00  0.00    +0.000 S 
BRANCH  10  14
ATOM     12  O   UNL     1      -3.611  13.182  20.544  0.00  0.00    +0.000 OA
ATOM     13  C   UNL     1      -3.692  12.806  21.709  0.00  0.00    +0.000 C 
ATOM     14  N   UNL     1      -2.626  12.401  22.525  0.00  0.00    +0.000 N 
ATOM     15  H   UNL     1      -2.837  12.301  23.504  0.00  0.00    +0.000 HD
BRANCH  13  16
ATOM     16  C   UNL     1      -5.061  12.775  22.296  0.00  0.00    +0.000 A 
ATOM     17  C   UNL     1      -5.291  12.798  23.675  0.00  0.00    +0.000 A 
ATOM     18  C   UNL     1      -6.595  12.655  24.167  0.00  0.00    +0.000 A 
ATOM     19  C   UNL     1      -7.666  12.487  23.290  0.00  0.00    +0.000 A 
ATOM     20  C   UNL     1      -7.444  12.460  21.916  0.00  0.00    +0.000 A 
ATOM     21  C   UNL     1      -6.146  12.600  21.422  0.00  0.00    +0.000 A 
ENDBRANCH  13  16
ENDBRANCH  10  14
ENDBRANCH   1  10
BRANCH   5  22
ATOM     22  O   UNL     1       1.809   7.601  20.431  0.00  0.00    +0.000 OA
BRANCH  22  23
ATOM     23  C   UNL     1       2.424   6.790  19.429  0.00  0.00    +0.000 C 
BRANCH  23  24
ATOM     24  C   UNL     1       1.847   5.388  19.469  0.00  0.00    +0.000 A 
ATOM     25  C   UNL     1       1.776   4.621  18.297  0.00  0.00    +0.000 A 
ATOM     26  C   UNL     1       1.284   3.314  18.328  0.00  0.00    +0.000 A 
ATOM     27  C   UNL     1       0.869   2.751  19.532  0.00  0.00    +0.000 A 
ATOM     28  C   UNL     1       0.951   3.493  20.708  0.00  0.00    +0.000 A 
ATOM     29  C   UNL     1       1.445   4.799  20.679  0.00  0.00    +0.000 A 
ENDBRANCH  23  24
ENDBRANCH  22  23
ENDBRANCH   5  22
TORSDOF 6
ENDMDL
MODEL 6
REMARK VINA RESULT:      -7.6      0.934      1.415
REMARK  Name = 
REMARK  6 active torsions:
REMARK  status: ('A' for Active; 'I' for Inactive)
REMARK    1  A    between atoms: C_2  and  C_23
REMARK    2  A    between atoms: N_3  and  C_4
REMARK    3  A    between atoms: C_4  and  N_6
REMARK    4  A    between atoms: C_10  and  O_11
REMARK    5  A    between atoms: O_11  and  C_12
REMARK    6  A    between atoms: C_12  and  C_13
REMARK                            x       y       z     vdW  Elec       q    Type
REMARK                         _______ _______ _______ _____ _____    ______ ____
ROOT
ATOM      1  N   UNL     1       1.818   8.493  19.123  0.00  0.00    +0.000 N 
ATOM      2  C   UNL     1       2.621   8.729  17.890  0.00  0.00    +0.000 C 
ATOM      3  C   UNL     1       3.176   7.392  17.420  0.00  0.00    +0.000 C 
ATOM      4  C   UNL     1       2.916   6.524  18.608  0.00  0.00    +0.000 A 
ATOM      5  C   UNL     1       3.319   5.198  18.737  0.00  0.00    +0.000 A 
ATOM      6  C   UNL     1       2.879   4.494  19.852  0.00  0.00    +0.000 A 
ATOM      7  C   UNL     1       2.031   5.115  20.787  0.00  0.00    +0.000 A 
ATOM      8  C   UNL     1       1.619   6.448  20.627  0.00  0.00    +0.000 A 
ATOM      9  C   UNL     1       2.095   7.168  19.547  0.00  0.00    +0.000 A 
ENDROOT
BRANCH   1  10
ATOM     10  C   UNL     1       0.961   9.470  19.646  0.00  0.00    +0.000 C 
ATOM     11  S   UNL     1       1.173  10.046  21.222  0.00  0.00    +0.000 S 
BRANCH  10  14
ATOM     12  O   UNL     1      -1.492  11.094  20.225  0.00  0.00    +0.000 OA
ATOM     13  C   UNL     1      -1.228  10.608  19.131  0.00  0.00    +0.000 C 
ATOM     14  N   UNL     1      -0.071   9.889  18.800  0.00  0.00    +0.000 N 
ATOM     15  H   UNL     1      -0.093   9.403  17.918  0.00  0.00    +0.000 HD
BRANCH  13  16
ATOM     16  C   UNL     1      -2.239  10.819  18.056  0.00  0.00    +0.000 A 
ATOM     17  C   UNL     1      -3.394  11.582  18.246  0.00  0.00    +0.000 A 
ATOM     18  C   UNL     1      -4.359  11.652  17.233  0.00  0.00    +0.000 A 
ATOM     19  C   UNL     1      -4.177  10.961  16.036  0.00  0.00    +0.000 A 
ATOM     20  C   UNL     1      -3.031  10.196  15.840  0.00  0.00    +0.000 A 
ATOM     21  C   UNL     1      -2.067  10.122  16.848  0.00  0.00    +0.000 A 
ENDBRANCH  13  16
ENDBRANCH  10  14
ENDBRANCH   1  10
BRANCH   5  22
ATOM     22  O   UNL     1       4.047   4.692  17.699  0.00  0.00    +0.000 OA
BRANCH  22  23
ATOM     23  C   UNL     1       5.360   4.214  17.993  0.00  0.00    +0.000 C 
BRANCH  23  24
ATOM     24  C   UNL     1       6.326   5.379  18.097  0.00  0.00    +0.000 A 
ATOM     25  C   UNL     1       7.204   5.472  19.187  0.00  0.00    +0.000 A 
ATOM     26  C   UNL     1       8.126   6.518  19.273  0.00  0.00    +0.000 A 
ATOM     27  C   UNL     1       8.192   7.478  18.266  0.00  0.00    +0.000 A 
ATOM     28  C   UNL     1       7.339   7.388  17.167  0.00  0.00    +0.000 A 
ATOM     29  C   UNL     1       6.419   6.341  17.078  0.00  0.00    +0.000 A 
ENDBRANCH  23  24
ENDBRANCH  22  23
ENDBRANCH   5  22
TORSDOF 6
ENDMDL
MODEL 7
REMARK VINA RESULT:      -7.6      2.751      4.067
REMARK  Name = 
REMARK  6 active torsions:
REMARK  status: ('A' for Active; 'I' for Inactive)
REMARK    1  A    between atoms: C_2  and  C_23
REMARK    2  A    between atoms: N_3  and  C_4
REMARK    3  A    between atoms: C_4  and  N_6
REMARK    4  A    between atoms: C_10  and  O_11
REMARK    5  A    between atoms: O_11  and  C_12
REMARK    6  A    between atoms: C_12  and  C_13
REMARK                            x       y       z     vdW  Elec       q    Type
REMARK                         _______ _______ _______ _____ _____    ______ ____
ROOT
ATOM      1  N   UNL     1       0.429  10.241  20.269  0.00  0.00    +0.000 N 
ATOM      2  C   UNL     1       0.166   9.540  21.557  0.00  0.00    +0.000 C 
ATOM      3  C   UNL     1       1.019   8.281  21.598  0.00  0.00    +0.000 C 
ATOM      4  C   UNL     1       1.474   8.180  20.179  0.00  0.00    +0.000 A 
ATOM      5  C   UNL     1       2.224   7.135  19.649  0.00  0.00    +0.000 A 
ATOM      6  C   UNL     1       2.678   7.262  18.340  0.00  0.00    +0.000 A 
ATOM      7  C   UNL     1       2.399   8.431  17.610  0.00  0.00    +0.000 A 
ATOM      8  C   UNL     1       1.657   9.484  18.170  0.00  0.00    +0.000 A 
ATOM      9  C   UNL     1       1.162   9.341  19.453  0.00  0.00    +0.000 A 
ENDROOT
BRANCH   1  10
ATOM     10  C   UNL     1       0.007  11.558  20.042  0.00  0.00    +0.000 C 
ATOM     11  S   UNL     1       0.945  12.864  20.562  0.00  0.00    +0.000 S 
BRANCH  10  14
ATOM     12  O   UNL     1      -2.634  12.507  21.097  0.00  0.00    +0.000 OA
ATOM     13  C   UNL     1      -2.453  12.099  19.955  0.00  0.00    +0.000 C 
ATOM     14  N   UNL     1      -1.229  11.696  19.402  0.00  0.00    +0.000 N 
ATOM     15  H   UNL     1      -1.283  11.217  18.518  0.00  0.00    +0.000 HD
BRANCH  13  16
ATOM     16  C   UNL     1      -3.658  12.039  19.079  0.00  0.00    +0.000 A 
ATOM     17  C   UNL     1      -3.612  11.571  17.763  0.00  0.00    +0.000 A 
ATOM     18  C   UNL     1      -4.755  11.643  16.956  0.00  0.00    +0.000 A 
ATOM     19  C   UNL     1      -5.940  12.182  17.457  0.00  0.00    +0.000 A 
ATOM     20  C   UNL     1      -5.992  12.653  18.766  0.00  0.00    +0.000 A 
ATOM     21  C   UNL     1      -4.855  12.585  19.572  0.00  0.00    +0.000 A 
ENDBRANCH  13  16
ENDBRANCH  10  14
ENDBRANCH   1  10
BRANCH   5  22
ATOM     22  O   UNL     1       2.514   6.113  20.506  0.00  0.00    +0.000 OA
BRANCH  22  23
ATOM     23  C   UNL     1       1.657   4.971  20.476  0.00  0.00    +0.000 C 
BRANCH  23  24
ATOM     24  C   UNL     1       2.292   3.868  19.652  0.00  0.00    +0.000 A 
ATOM     25  C   UNL     1       3.435   3.205  20.123  0.00  0.00    +0.000 A 
ATOM     26  C   UNL     1       4.006   2.160  19.391  0.00  0.00    +0.000 A 
ATOM     27  C   UNL     1       3.435   1.755  18.188  0.00  0.00    +0.000 A 
ATOM     28  C   UNL     1       2.288   2.391  17.716  0.00  0.00    +0.000 A 
ATOM     29  C   UNL     1       1.716   3.433  18.447  0.00  0.00    +0.000 A 
ENDBRANCH  23  24
ENDBRANCH  22  23
ENDBRANCH   5  22
TORSDOF 6
ENDMDL
MODEL 8
REMARK VINA RESULT:      -7.6      2.855      4.552
REMARK  Name = 
REMARK  6 active torsions:
REMARK  status: ('A' for Active; 'I' for Inactive)
REMARK    1  A    between atoms: C_2  and  C_23
REMARK    2  A    between atoms: N_3  and  C_4
REMARK    3  A    between atoms: C_4  and  N_6
REMARK    4  A    between atoms: C_10  and  O_11
REMARK    5  A    between atoms: O_11  and  C_12
REMARK    6  A    between atoms: C_12  and  C_13
REMARK                            x       y       z     vdW  Elec       q    Type
REMARK                         _______ _______ _______ _____ _____    ______ ____
ROOT
ATOM      1  N   UNL     1      -0.217  10.794  20.621  0.00  0.00    +0.000 N 
ATOM      2  C   UNL     1      -0.324   9.951  21.845  0.00  0.00    +0.000 C 
ATOM      3  C   UNL     1       0.665   8.802  21.720  0.00  0.00    +0.000 C 
ATOM      4  C   UNL     1       1.044   8.886  20.278  0.00  0.00    +0.000 A 
ATOM      5  C   UNL     1       1.874   7.989  19.612  0.00  0.00    +0.000 A 
ATOM      6  C   UNL     1       2.232   8.289  18.302  0.00  0.00    +0.000 A 
ATOM      7  C   UNL     1       1.781   9.479  17.705  0.00  0.00    +0.000 A 
ATOM      8  C   UNL     1       0.962  10.382  18.401  0.00  0.00    +0.000 A 
ATOM      9  C   UNL     1       0.562  10.064  19.686  0.00  0.00    +0.000 A 
ENDROOT
BRANCH   1  10
ATOM     10  C   UNL     1      -0.797  12.067  20.545  0.00  0.00    +0.000 C 
ATOM     11  S   UNL     1      -0.012  13.411  21.208  0.00  0.00    +0.000 S 
BRANCH  10  14
ATOM     12  O   UNL     1      -3.479  12.814  21.656  0.00  0.00    +0.000 OA
ATOM     13  C   UNL     1      -3.290  12.436  20.505  0.00  0.00    +0.000 C 
ATOM     14  N   UNL     1      -2.050  12.128  19.927  0.00  0.00    +0.000 N 
ATOM     15  H   UNL     1      -2.085  11.658  19.037  0.00  0.00    +0.000 HD
BRANCH  13  16
ATOM     16  C   UNL     1      -4.502  12.304  19.648  0.00  0.00    +0.000 A 
ATOM     17  C   UNL     1      -5.791  12.568  20.118  0.00  0.00    +0.000 A 
ATOM     18  C   UNL     1      -6.898  12.320  19.296  0.00  0.00    +0.000 A 
ATOM     19  C   UNL     1      -6.723  11.809  18.011  0.00  0.00    +0.000 A 
ATOM     20  C   UNL     1      -5.442  11.541  17.536  0.00  0.00    +0.000 A 
ATOM     21  C   UNL     1      -4.336  11.784  18.353  0.00  0.00    +0.000 A 
ENDBRANCH  13  16
ENDBRANCH  10  14
ENDBRANCH   1  10
BRANCH   5  22
ATOM     22  O   UNL     1       2.325   6.933  20.350  0.00  0.00    +0.000 OA
BRANCH  22  23
ATOM     23  C   UNL     1       3.177   5.993  19.695  0.00  0.00    +0.000 C 
BRANCH  23  24
ATOM     24  C   UNL     1       2.412   4.716  19.404  0.00  0.00    +0.000 A 
ATOM     25  C   UNL     1       1.469   4.234  20.324  0.00  0.00    +0.000 A 
ATOM     26  C   UNL     1       0.729   3.081  20.049  0.00  0.00    +0.000 A 
ATOM     27  C   UNL     1       0.912   2.402  18.847  0.00  0.00    +0.000 A 
ATOM     28  C   UNL     1       1.831   2.879  17.914  0.00  0.00    +0.000 A 
ATOM     29  C   UNL     1       2.569   4.033  18.187  0.00  0.00    +0.000 A 
ENDBRANCH  23  24
ENDBRANCH  22  23
ENDBRANCH   5  22
TORSDOF 6
ENDMDL
MODEL 9
REMARK VINA RESULT:      -7.6      3.152      4.549
REMARK  Name = 
REMARK  6 active torsions:
REMARK  status: ('A' for Active; 'I' for Inactive)
REMARK    1  A    between atoms: C_2  and  C_23
REMARK    2  A    between atoms: N_3  and  C_4
REMARK    3  A    between atoms: C_4  and  N_6
REMARK    4  A    between atoms: C_10  and  O_11
REMARK    5  A    between atoms: O_11  and  C_12
REMARK    6  A    between atoms: C_12  and  C_13
REMARK                            x       y       z     vdW  Elec       q    Type
REMARK                         _______ _______ _______ _____ _____    ______ ____
ROOT
ATOM      1  N   UNL     1       0.089  11.779  19.519  0.00  0.00    +0.000 N 
ATOM      2  C   UNL     1       1.021  11.633  18.365  0.00  0.00    +0.000 C 
ATOM      3  C   UNL     1       1.514  10.194  18.330  0.00  0.00    +0.000 C 
ATOM      4  C   UNL     1       1.078   9.694  19.668  0.00  0.00    +0.000 A 
ATOM      5  C   UNL     1       1.365   8.435  20.187  0.00  0.00    +0.000 A 
ATOM      6  C   UNL     1       0.769   8.081  21.393  0.00  0.00    +0.000 A 
ATOM      7  C   UNL     1      -0.112   8.972  22.030  0.00  0.00    +0.000 A 
ATOM      8  C   UNL     1      -0.405  10.230  21.479  0.00  0.00    +0.000 A 
ATOM      9  C   UNL     1       0.223  10.606  20.307  0.00  0.00    +0.000 A 
ENDROOT
BRANCH   1  10
ATOM     10  C   UNL     1      -0.736  12.901  19.668  0.00  0.00    +0.000 C 
ATOM     11  S   UNL     1      -0.119  14.347  20.292  0.00  0.00    +0.000 S 
BRANCH  10  14
ATOM     12  O   UNL     1      -3.198  12.644  21.360  0.00  0.00    +0.000 OA
ATOM     13  C   UNL     1      -3.189  12.557  20.137  0.00  0.00    +0.000 C 
ATOM     14  N   UNL     1      -2.074  12.723  19.302  0.00  0.00    +0.000 N 
ATOM     15  H   UNL     1      -2.198  12.437  18.345  0.00  0.00    +0.000 HD
BRANCH  13  16
ATOM     16  C   UNL     1      -4.496  12.254  19.490  0.00  0.00    +0.000 A 
ATOM     17  C   UNL     1      -5.711  12.310  20.179  0.00  0.00    +0.000 A 
ATOM     18  C   UNL     1      -6.893  11.908  19.544  0.00  0.00    +0.000 A 
ATOM     19  C   UNL     1      -6.867  11.449  18.228  0.00  0.00    +0.000 A 
ATOM     20  C   UNL     1      -5.661  11.388  17.536  0.00  0.00    +0.000 A 
ATOM     21  C   UNL     1      -4.479  11.785  18.166  0.00  0.00    +0.000 A 
ENDBRANCH  13  16
ENDBRANCH  10  14
ENDBRANCH   1  10
BRANCH   5  22
ATOM     22  O   UNL     1       2.147   7.632  19.407  0.00  0.00    +0.000 OA
BRANCH  22  23
ATOM     23  C   UNL     1       2.776   6.518  20.041  0.00  0.00    +0.000 C 
BRANCH  23  24
ATOM     24  C   UNL     1       2.093   5.230  19.623  0.00  0.00    +0.000 A 
ATOM     25  C   UNL     1       2.118   4.821  18.281  0.00  0.00    +0.000 A 
ATOM     26  C   UNL     1       1.527   3.617  17.891  0.00  0.00    +0.000 A 
ATOM     27  C   UNL     1       0.915   2.798  18.837  0.00  0.00    +0.000 A 
ATOM     28  C   UNL     1       0.899   3.181  20.177  0.00  0.00    +0.000 A 
ATOM     29  C   UNL     1       1.491   4.383  20.569  0.00  0.00    +0.000 A 
ENDBRANCH  23  24
ENDBRANCH  22  23
ENDBRANCH   5  22
TORSDOF 6
ENDMDL
