MODEL 1
REMARK VINA RESULT:      -7.1      0.000      0.000
REMARK  Name = 
REMARK  6 active torsions:
REMARK  status: ('A' for Active; 'I' for Inactive)
REMARK    1  A    between atoms: C_1  and  C_2
REMARK    2  A    between atoms: C_2  and  C_3
REMARK    3  A    between atoms: N_8  and  S_9
REMARK    4  A    between atoms: S_9  and  C_12
REMARK    5  A    between atoms: C_14  and  C_15
REMARK    6  A    between atoms: C_19  and  S_20
REMARK                            x       y       z     vdW  Elec       q    Type
REMARK                         _______ _______ _______ _____ _____    ______ ____
ROOT
ATOM      1  S   UNL     1       5.019   4.462  18.108  0.00  0.00    +0.000 S 
ATOM      2  O   UNL     1       4.236   5.662  18.358  0.00  0.00    +0.000 OA
ATOM      3  O   UNL     1       6.031   4.082  19.081  0.00  0.00    +0.000 OA
ENDROOT
BRANCH   1   9
ATOM      4  C   UNL     1       1.714   3.643  20.561  0.00  0.00    +0.000 C 
ATOM      5  C   UNL     1       0.735   2.508  20.266  0.00  0.00    +0.000 C 
ATOM      6  C   UNL     1       0.752   2.179  18.782  0.00  0.00    +0.000 C 
ATOM      7  N   UNL     1       2.117   2.023  18.307  0.00  0.00    +0.000 N 
ATOM      8  C   UNL     1       3.102   2.899  18.683  0.00  0.00    +0.000 C 
ATOM      9  N   UNL     1       3.973   3.264  17.805  0.00  0.00    +0.000 NA
ATOM     10  N   UNL     1       2.999   3.276  19.992  0.00  0.00    +0.000 N 
ATOM     11  H   UNL     1       2.175   1.802  17.320  0.00  0.00    +0.000 HD
ATOM     12  H   UNL     1       3.762   3.880  20.312  0.00  0.00    +0.000 HD
BRANCH   4  14
ATOM     13  C   UNL     1       1.866   6.195  20.810  0.00  0.00    +0.000 C 
ATOM     14  C   UNL     1       1.331   5.027  20.004  0.00  0.00    +0.000 C 
ENDBRANCH   4  14
ENDBRANCH   1   9
BRANCH   1  15
ATOM     15  C   UNL     1       5.880   4.729  16.568  0.00  0.00    +0.000 A 
ATOM     16  C   UNL     1       5.438   4.004  15.446  0.00  0.00    +0.000 A 
ATOM     17  C   UNL     1       6.050   4.162  14.193  0.00  0.00    +0.000 A 
ATOM     18  C   UNL     1       5.544   3.378  13.018  0.00  0.00    +0.000 C 
ATOM     19  C   UNL     1       7.127   5.049  14.092  0.00  0.00    +0.000 A 
ATOM     20 CL   UNL     1       7.963   5.288  12.600  0.00  0.00    +0.000 Cl
ATOM     21  C   UNL     1       7.559   5.780  15.207  0.00  0.00    +0.000 A 
ATOM     22  C   UNL     1       6.942   5.637  16.458  0.00  0.00    +0.000 A 
BRANCH  22  23
ATOM     23  S   UNL     1       7.542   6.679  17.780  0.00  0.00    +0.000 S 
ATOM     24  H   UNL     1       6.638   7.663  17.670  0.00  0.00    +0.000 HD
ENDBRANCH  22  23
ENDBRANCH   1  15
TORSDOF 4
ENDMDL
MODEL 2
REMARK VINA RESULT:      -6.4      1.544      2.408
REMARK  Name = 
REMARK  6 active torsions:
REMARK  status: ('A' for Active; 'I' for Inactive)
REMARK    1  A    between atoms: C_1  and  C_2
REMARK    2  A    between atoms: C_2  and  C_3
REMARK    3  A    between atoms: N_8  and  S_9
REMARK    4  A    between atoms: S_9  and  C_12
REMARK    5  A    between atoms: C_14  and  C_15
REMARK    6  A    between atoms: C_19  and  S_20
REMARK                            x       y       z     vdW  Elec       q    Type
REMARK                         _______ _______ _______ _____ _____    ______ ____
ROOT
ATOM      1  S   UNL     1       4.673   4.261  17.876  0.00  0.00    +0.000 S 
ATOM      2  O   UNL     1       5.588   3.860  18.932  0.00  0.00    +0.000 OA
ATOM      3  O   UNL     1       3.634   3.328  17.472  0.00  0.00    +0.000 OA
ENDROOT
BRANCH   1   9
ATOM      4  C   UNL     1       1.329   4.732  20.368  0.00  0.00    +0.000 C 
ATOM      5  C   UNL     1       0.774   6.104  20.745  0.00  0.00    +0.000 C 
ATOM      6  C   UNL     1       1.868   7.154  20.639  0.00  0.00    +0.000 C 
ATOM      7  N   UNL     1       2.564   7.043  19.369  0.00  0.00    +0.000 N 
ATOM      8  C   UNL     1       2.930   5.821  18.867  0.00  0.00    +0.000 C 
ATOM      9  N   UNL     1       4.077   5.710  18.286  0.00  0.00    +0.000 NA
ATOM     10  N   UNL     1       1.983   4.861  19.077  0.00  0.00    +0.000 N 
ATOM     11  H   UNL     1       3.304   7.726  19.256  0.00  0.00    +0.000 HD
ATOM     12  H   UNL     1       2.208   3.955  18.654  0.00  0.00    +0.000 HD
BRANCH   4  14
ATOM     13  C   UNL     1       2.060   2.679  21.728  0.00  0.00    +0.000 C 
ATOM     14  C   UNL     1       2.345   4.120  21.351  0.00  0.00    +0.000 C 
ENDBRANCH   4  14
ENDBRANCH   1   9
BRANCH   1  15
ATOM     15  C   UNL     1       5.670   4.561  16.427  0.00  0.00    +0.000 A 
ATOM     16  C   UNL     1       5.268   3.945  15.227  0.00  0.00    +0.000 A 
ATOM     17  C   UNL     1       5.987   4.137  14.037  0.00  0.00    +0.000 A 
ATOM     18  C   UNL     1       5.522   3.472  12.775  0.00  0.00    +0.000 C 
ATOM     19  C   UNL     1       7.129   4.944  14.079  0.00  0.00    +0.000 A 
ATOM     20 CL   UNL     1       8.095   5.215  12.673  0.00  0.00    +0.000 Cl
ATOM     21  C   UNL     1       7.522   5.567  15.271  0.00  0.00    +0.000 A 
ATOM     22  C   UNL     1       6.799   5.391  16.460  0.00  0.00    +0.000 A 
BRANCH  22  23
ATOM     23  S   UNL     1       7.365   6.296  17.893  0.00  0.00    +0.000 S 
ATOM     24  H   UNL     1       7.638   7.459  17.286  0.00  0.00    +0.000 HD
ENDBRANCH  22  23
ENDBRANCH   1  15
TORSDOF 4
ENDMDL
MODEL 3
REMARK VINA RESULT:      -6.0      4.207      5.737
REMARK  Name = 
REMARK  6 active torsions:
REMARK  status: ('A' for Active; 'I' for Inactive)
REMARK    1  A    between atoms: C_1  and  C_2
REMARK    2  A    between atoms: C_2  and  C_3
REMARK    3  A    between atoms: N_8  and  S_9
REMARK    4  A    between atoms: S_9  and  C_12
REMARK    5  A    between atoms: C_14  and  C_15
REMARK    6  A    between atoms: C_19  and  S_20
REMARK                            x       y       z     vdW  Elec       q    Type
REMARK                         _______ _______ _______ _____ _____    ______ ____
ROOT
ATOM      1  S   UNL     1       2.483   7.041  18.475  0.00  0.00    +0.000 S 
ATOM      2  O   UNL     1       2.219   7.124  19.903  0.00  0.00    +0.000 OA
ATOM      3  O   UNL     1       1.545   6.305  17.642  0.00  0.00    +0.000 OA
ENDROOT
BRANCH   1   9
ATOM      4  C   UNL     1      -0.054  10.237  19.457  0.00  0.00    +0.000 C 
ATOM      5  C   UNL     1       0.183  11.658  18.950  0.00  0.00    +0.000 C 
ATOM      6  C   UNL     1       1.655  11.854  18.621  0.00  0.00    +0.000 C 
ATOM      7  N   UNL     1       2.146  10.762  17.799  0.00  0.00    +0.000 N 
ATOM      8  C   UNL     1       1.819   9.461  18.081  0.00  0.00    +0.000 C 
ATOM      9  N   UNL     1       2.725   8.552  17.946  0.00  0.00    +0.000 NA
ATOM     10  N   UNL     1       0.523   9.321  18.489  0.00  0.00    +0.000 N 
ATOM     11  H   UNL     1       3.126  10.852  17.556  0.00  0.00    +0.000 HD
ATOM     12  H   UNL     1       0.238   8.349  18.643  0.00  0.00    +0.000 HD
BRANCH   4  14
ATOM     13  C   UNL     1      -0.231   8.865  21.622  0.00  0.00    +0.000 C 
ATOM     14  C   UNL     1       0.546   9.903  20.836  0.00  0.00    +0.000 C 
ENDBRANCH   4  14
ENDBRANCH   1   9
BRANCH   1  15
ATOM     15  C   UNL     1       4.060   6.227  18.297  0.00  0.00    +0.000 A 
ATOM     16  C   UNL     1       5.133   6.997  17.810  0.00  0.00    +0.000 A 
ATOM     17  C   UNL     1       6.411   6.439  17.650  0.00  0.00    +0.000 A 
ATOM     18  C   UNL     1       7.533   7.294  17.137  0.00  0.00    +0.000 C 
ATOM     19  C   UNL     1       6.587   5.089  17.971  0.00  0.00    +0.000 A 
ATOM     20 CL   UNL     1       8.115   4.307  17.779  0.00  0.00    +0.000 Cl
ATOM     21  C   UNL     1       5.521   4.326  18.467  0.00  0.00    +0.000 A 
ATOM     22  C   UNL     1       4.245   4.881  18.643  0.00  0.00    +0.000 A 
BRANCH  22  23
ATOM     23  S   UNL     1       2.992   3.822  19.349  0.00  0.00    +0.000 S 
ATOM     24  H   UNL     1       2.549   3.268  18.211  0.00  0.00    +0.000 HD
ENDBRANCH  22  23
ENDBRANCH   1  15
TORSDOF 4
ENDMDL
MODEL 4
REMARK VINA RESULT:      -5.7      3.471      6.219
REMARK  Name = 
REMARK  6 active torsions:
REMARK  status: ('A' for Active; 'I' for Inactive)
REMARK    1  A    between atoms: C_1  and  C_2
REMARK    2  A    between atoms: C_2  and  C_3
REMARK    3  A    between atoms: N_8  and  S_9
REMARK    4  A    between atoms: S_9  and  C_12
REMARK    5  A    between atoms: C_14  and  C_15
REMARK    6  A    between atoms: C_19  and  S_20
REMARK                            x       y       z     vdW  Elec       q    Type
REMARK                         _______ _______ _______ _____ _____    ______ ____
ROOT
ATOM      1  S   UNL     1       2.772   3.425  18.143  0.00  0.00    +0.000 S 
ATOM      2  O   UNL     1       2.523   3.640  16.727  0.00  0.00    +0.000 OA
ATOM      3  O   UNL     1       2.026   2.379  18.824  0.00  0.00    +0.000 OA
ENDROOT
BRANCH   1   9
ATOM      4  C   UNL     1       5.561   5.324  15.647  0.00  0.00    +0.000 C 
ATOM      5  C   UNL     1       7.069   5.161  15.828  0.00  0.00    +0.000 C 
ATOM      6  C   UNL     1       7.382   4.788  17.268  0.00  0.00    +0.000 C 
ATOM      7  N   UNL     1       6.535   3.695  17.711  0.00  0.00    +0.000 N 
ATOM      8  C   UNL     1       5.195   3.675  17.422  0.00  0.00    +0.000 C 
ATOM      9  N   UNL     1       4.373   3.262  18.326  0.00  0.00    +0.000 NA
ATOM     10  N   UNL     1       4.923   4.125  16.162  0.00  0.00    +0.000 N 
ATOM     11  H   UNL     1       6.710   3.413  18.669  0.00  0.00    +0.000 HD
ATOM     12  H   UNL     1       3.934   4.059  15.901  0.00  0.00    +0.000 HD
BRANCH   4  14
ATOM     13  C   UNL     1       5.903   7.398  17.124  0.00  0.00    +0.000 C 
ATOM     14  C   UNL     1       4.923   6.536  16.352  0.00  0.00    +0.000 C 
ENDBRANCH   4  14
ENDBRANCH   1   9
BRANCH   1  15
ATOM     15  C   UNL     1       2.362   4.953  18.968  0.00  0.00    +0.000 A 
ATOM     16  C   UNL     1       2.324   6.121  18.184  0.00  0.00    +0.000 A 
ATOM     17  C   UNL     1       1.998   7.363  18.750  0.00  0.00    +0.000 A 
ATOM     18  C   UNL     1       1.958   8.585  17.880  0.00  0.00    +0.000 C 
ATOM     19  C   UNL     1       1.731   7.414  20.122  0.00  0.00    +0.000 A 
ATOM     20 CL   UNL     1       1.350   8.901  20.913  0.00  0.00    +0.000 Cl
ATOM     21  C   UNL     1       1.757   6.248  20.900  0.00  0.00    +0.000 A 
ATOM     22  C   UNL     1       2.068   5.002  20.338  0.00  0.00    +0.000 A 
BRANCH  22  23
ATOM     23  S   UNL     1       1.998   3.584  21.423  0.00  0.00    +0.000 S 
ATOM     24  H   UNL     1       0.689   3.319  21.304  0.00  0.00    +0.000 HD
ENDBRANCH  22  23
ENDBRANCH   1  15
TORSDOF 4
ENDMDL
MODEL 5
REMARK VINA RESULT:      -5.7      3.891      6.950
REMARK  Name = 
REMARK  6 active torsions:
REMARK  status: ('A' for Active; 'I' for Inactive)
REMARK    1  A    between atoms: C_1  and  C_2
REMARK    2  A    between atoms: C_2  and  C_3
REMARK    3  A    between atoms: N_8  and  S_9
REMARK    4  A    between atoms: S_9  and  C_12
REMARK    5  A    between atoms: C_14  and  C_15
REMARK    6  A    between atoms: C_19  and  S_20
REMARK                            x       y       z     vdW  Elec       q    Type
REMARK                         _______ _______ _______ _____ _____    ______ ____
ROOT
ATOM      1  S   UNL     1       2.959   5.449  19.651  0.00  0.00    +0.000 S 
ATOM      2  O   UNL     1       2.775   4.976  18.288  0.00  0.00    +0.000 OA
ATOM      3  O   UNL     1       2.448   4.633  20.740  0.00  0.00    +0.000 OA
ENDROOT
BRANCH   1   9
ATOM      4  C   UNL     1       5.918   4.035  17.032  0.00  0.00    +0.000 C 
ATOM      5  C   UNL     1       7.398   4.369  17.209  0.00  0.00    +0.000 C 
ATOM      6  C   UNL     1       7.549   5.666  17.988  0.00  0.00    +0.000 C 
ATOM      7  N   UNL     1       6.722   5.646  19.182  0.00  0.00    +0.000 N 
ATOM      8  C   UNL     1       5.434   5.179  19.144  0.00  0.00    +0.000 C 
ATOM      9  N   UNL     1       4.531   5.799  19.826  0.00  0.00    +0.000 NA
ATOM     10  N   UNL     1       5.296   4.081  18.343  0.00  0.00    +0.000 N 
ATOM     11  H   UNL     1       6.792   6.494  19.733  0.00  0.00    +0.000 HD
ATOM     12  H   UNL     1       4.354   3.677  18.350  0.00  0.00    +0.000 HD
BRANCH   4  14
ATOM     13  C   UNL     1       5.707   5.111  14.708  0.00  0.00    +0.000 C 
ATOM     14  C   UNL     1       5.121   4.968  16.100  0.00  0.00    +0.000 C 
ENDBRANCH   4  14
ENDBRANCH   1   9
BRANCH   1  15
ATOM     15  C   UNL     1       2.118   7.019  19.762  0.00  0.00    +0.000 A 
ATOM     16  C   UNL     1       1.324   7.247  20.901  0.00  0.00    +0.000 A 
ATOM     17  C   UNL     1       0.638   8.459  21.075  0.00  0.00    +0.000 A 
ATOM     18  C   UNL     1      -0.192   8.670  22.307  0.00  0.00    +0.000 C 
ATOM     19  C   UNL     1       0.749   9.430  20.074  0.00  0.00    +0.000 A 
ATOM     20 CL   UNL     1      -0.082  10.940  20.185  0.00  0.00    +0.000 Cl
ATOM     21  C   UNL     1       1.550   9.207  18.946  0.00  0.00    +0.000 A 
ATOM     22  C   UNL     1       2.250   8.004  18.773  0.00  0.00    +0.000 A 
BRANCH  22  23
ATOM     23  S   UNL     1       3.290   7.873  17.327  0.00  0.00    +0.000 S 
ATOM     24  H   UNL     1       3.231   9.154  16.936  0.00  0.00    +0.000 HD
ENDBRANCH  22  23
ENDBRANCH   1  15
TORSDOF 4
ENDMDL
MODEL 6
REMARK VINA RESULT:      -5.7      1.502      2.130
REMARK  Name = 
REMARK  6 active torsions:
REMARK  status: ('A' for Active; 'I' for Inactive)
REMARK    1  A    between atoms: C_1  and  C_2
REMARK    2  A    between atoms: C_2  and  C_3
REMARK    3  A    between atoms: N_8  and  S_9
REMARK    4  A    between atoms: S_9  and  C_12
REMARK    5  A    between atoms: C_14  and  C_15
REMARK    6  A    between atoms: C_19  and  S_20
REMARK                            x       y       z     vdW  Elec       q    Type
REMARK                         _______ _______ _______ _____ _____    ______ ____
ROOT
ATOM      1  S   UNL     1       4.093   4.511  17.188  0.00  0.00    +0.000 S 
ATOM      2  O   UNL     1       3.086   3.593  16.681  0.00  0.00    +0.000 OA
ATOM      3  O   UNL     1       3.677   5.850  17.573  0.00  0.00    +0.000 OA
ENDROOT
BRANCH   1   9
ATOM      4  C   UNL     1       2.163   2.958  20.576  0.00  0.00    +0.000 C 
ATOM      5  C   UNL     1       2.917   2.239  21.692  0.00  0.00    +0.000 C 
ATOM      6  C   UNL     1       4.213   1.657  21.153  0.00  0.00    +0.000 C 
ATOM      7  N   UNL     1       4.944   2.654  20.389  0.00  0.00    +0.000 N 
ATOM      8  C   UNL     1       4.302   3.474  19.498  0.00  0.00    +0.000 C 
ATOM      9  N   UNL     1       4.881   3.744  18.377  0.00  0.00    +0.000 NA
ATOM     10  N   UNL     1       3.084   3.892  19.952  0.00  0.00    +0.000 N 
ATOM     11  H   UNL     1       5.818   2.307  20.009  0.00  0.00    +0.000 HD
ATOM     12  H   UNL     1       2.614   4.557  19.329  0.00  0.00    +0.000 HD
BRANCH   4  14
ATOM     13  C   UNL     1       0.438   2.688  18.691  0.00  0.00    +0.000 C 
ATOM     14  C   UNL     1       1.580   2.061  19.467  0.00  0.00    +0.000 C 
ENDBRANCH   4  14
ENDBRANCH   1   9
BRANCH   1  15
ATOM     15  C   UNL     1       5.297   4.713  15.887  0.00  0.00    +0.000 A 
ATOM     16  C   UNL     1       5.076   4.013  14.687  0.00  0.00    +0.000 A 
ATOM     17  C   UNL     1       5.966   4.124  13.608  0.00  0.00    +0.000 A 
ATOM     18  C   UNL     1       5.692   3.369  12.340  0.00  0.00    +0.000 C 
ATOM     19  C   UNL     1       7.093   4.938  13.763  0.00  0.00    +0.000 A 
ATOM     20 CL   UNL     1       8.260   5.114  12.502  0.00  0.00    +0.000 Cl
ATOM     21  C   UNL     1       7.307   5.645  14.954  0.00  0.00    +0.000 A 
ATOM     22  C   UNL     1       6.413   5.549  16.031  0.00  0.00    +0.000 A 
BRANCH  22  23
ATOM     23  S   UNL     1       6.763   6.556  17.465  0.00  0.00    +0.000 S 
ATOM     24  H   UNL     1       6.460   7.750  16.936  0.00  0.00    +0.000 HD
ENDBRANCH  22  23
ENDBRANCH   1  15
TORSDOF 4
ENDMDL
MODEL 7
REMARK VINA RESULT:      -5.6      1.307      1.413
REMARK  Name = 
REMARK  6 active torsions:
REMARK  status: ('A' for Active; 'I' for Inactive)
REMARK    1  A    between atoms: C_1  and  C_2
REMARK    2  A    between atoms: C_2  and  C_3
REMARK    3  A    between atoms: N_8  and  S_9
REMARK    4  A    between atoms: S_9  and  C_12
REMARK    5  A    between atoms: C_14  and  C_15
REMARK    6  A    between atoms: C_19  and  S_20
REMARK                            x       y       z     vdW  Elec       q    Type
REMARK                         _______ _______ _______ _____ _____    ______ ____
ROOT
ATOM      1  S   UNL     1       5.824   4.962  19.196  0.00  0.00    +0.000 S 
ATOM      2  O   UNL     1       4.773   5.946  19.397  0.00  0.00    +0.000 OA
ATOM      3  O   UNL     1       7.045   5.085  19.978  0.00  0.00    +0.000 OA
ENDROOT
BRANCH   1   9
ATOM      4  C   UNL     1       1.671   4.386  19.371  0.00  0.00    +0.000 C 
ATOM      5  C   UNL     1       1.040   3.002  19.511  0.00  0.00    +0.000 C 
ATOM      6  C   UNL     1       1.990   1.942  18.979  0.00  0.00    +0.000 C 
ATOM      7  N   UNL     1       3.322   2.126  19.527  0.00  0.00    +0.000 N 
ATOM      8  C   UNL     1       3.888   3.371  19.611  0.00  0.00    +0.000 C 
ATOM      9  N   UNL     1       5.143   3.500  19.342  0.00  0.00    +0.000 NA
ATOM     10  N   UNL     1       2.990   4.333  19.977  0.00  0.00    +0.000 N 
ATOM     11  H   UNL     1       3.990   1.438  19.197  0.00  0.00    +0.000 HD
ATOM     12  H   UNL     1       3.404   5.261  20.108  0.00  0.00    +0.000 HD
BRANCH   4  14
ATOM     13  C   UNL     1       2.182   6.385  17.841  0.00  0.00    +0.000 C 
ATOM     14  C   UNL     1       1.835   4.912  17.932  0.00  0.00    +0.000 C 
ENDBRANCH   4  14
ENDBRANCH   1   9
BRANCH   1  15
ATOM     15  C   UNL     1       6.311   5.081  17.484  0.00  0.00    +0.000 A 
ATOM     16  C   UNL     1       5.780   4.128  16.594  0.00  0.00    +0.000 A 
ATOM     17  C   UNL     1       6.101   4.156  15.228  0.00  0.00    +0.000 A 
ATOM     18  C   UNL     1       5.508   3.129  14.308  0.00  0.00    +0.000 C 
ATOM     19  C   UNL     1       6.978   5.146  14.775  0.00  0.00    +0.000 A 
ATOM     20 CL   UNL     1       7.454   5.242  13.118  0.00  0.00    +0.000 Cl
ATOM     21  C   UNL     1       7.497   6.102  15.660  0.00  0.00    +0.000 A 
ATOM     22  C   UNL     1       7.169   6.089  17.023  0.00  0.00    +0.000 A 
BRANCH  22  23
ATOM     23  S   UNL     1       7.840   7.403  18.029  0.00  0.00    +0.000 S 
ATOM     24  H   UNL     1       9.090   7.393  17.545  0.00  0.00    +0.000 HD
ENDBRANCH  22  23
ENDBRANCH   1  15
TORSDOF 4
ENDMDL
MODEL 8
REMARK VINA RESULT:      -5.5      6.475      8.453
REMARK  Name = 
REMARK  6 active torsions:
REMARK  status: ('A' for Active; 'I' for Inactive)
REMARK    1  A    between atoms: C_1  and  C_2
REMARK    2  A    between atoms: C_2  and  C_3
REMARK    3  A    between atoms: N_8  and  S_9
REMARK    4  A    between atoms: S_9  and  C_12
REMARK    5  A    between atoms: C_14  and  C_15
REMARK    6  A    between atoms: C_19  and  S_20
REMARK                            x       y       z     vdW  Elec       q    Type
REMARK                         _______ _______ _______ _____ _____    ______ ____
ROOT
ATOM      1  S   UNL     1       0.544   9.786  19.786  0.00  0.00    +0.000 S 
ATOM      2  O   UNL     1       0.111   8.741  20.700  0.00  0.00    +0.000 OA
ATOM      3  O   UNL     1       1.234  10.942  20.337  0.00  0.00    +0.000 OA
ENDROOT
BRANCH   1   9
ATOM      4  C   UNL     1       2.596   6.165  20.328  0.00  0.00    +0.000 C 
ATOM      5  C   UNL     1       3.392   5.498  19.208  0.00  0.00    +0.000 C 
ATOM      6  C   UNL     1       2.856   5.939  17.855  0.00  0.00    +0.000 C 
ATOM      7  N   UNL     1       2.717   7.384  17.805  0.00  0.00    +0.000 N 
ATOM      8  C   UNL     1       2.182   8.081  18.857  0.00  0.00    +0.000 C 
ATOM      9  N   UNL     1       1.389   9.067  18.607  0.00  0.00    +0.000 NA
ATOM     10  N   UNL     1       2.583   7.594  20.069  0.00  0.00    +0.000 N 
ATOM     11  H   UNL     1       2.361   7.722  16.918  0.00  0.00    +0.000 HD
ATOM     12  H   UNL     1       2.246   8.140  20.868  0.00  0.00    +0.000 HD
BRANCH   4  14
ATOM     13  C   UNL     1       0.947   4.199  20.440  0.00  0.00    +0.000 C 
ATOM     14  C   UNL     1       1.135   5.702  20.487  0.00  0.00    +0.000 C 
ENDBRANCH   4  14
ENDBRANCH   1   9
BRANCH   1  15
ATOM     15  C   UNL     1      -0.926  10.409  18.992  0.00  0.00    +0.000 A 
ATOM     16  C   UNL     1      -1.246   9.889  17.724  0.00  0.00    +0.000 A 
ATOM     17  C   UNL     1      -2.392  10.315  17.034  0.00  0.00    +0.000 A 
ATOM     18  C   UNL     1      -2.705   9.731  15.688  0.00  0.00    +0.000 C 
ATOM     19  C   UNL     1      -3.200  11.287  17.633  0.00  0.00    +0.000 A 
ATOM     20 CL   UNL     1      -4.613  11.895  16.848  0.00  0.00    +0.000 Cl
ATOM     21  C   UNL     1      -2.888  11.796  18.901  0.00  0.00    +0.000 A 
ATOM     22  C   UNL     1      -1.753  11.364  19.602  0.00  0.00    +0.000 A 
BRANCH  22  23
ATOM     23  S   UNL     1      -1.507  12.038  21.238  0.00  0.00    +0.000 S 
ATOM     24  H   UNL     1      -1.903  10.969  21.944  0.00  0.00    +0.000 HD
ENDBRANCH  22  23
ENDBRANCH   1  15
TORSDOF 4
ENDMDL
MODEL 9
REMARK VINA RESULT:      -5.5      1.370      1.564
REMARK  Name = 
REMARK  6 active torsions:
REMARK  status: ('A' for Active; 'I' for Inactive)
REMARK    1  A    between atoms: C_1  and  C_2
REMARK    2  A    between atoms: C_2  and  C_3
REMARK    3  A    between atoms: N_8  and  S_9
REMARK    4  A    between atoms: S_9  and  C_12
REMARK    5  A    between atoms: C_14  and  C_15
REMARK    6  A    between atoms: C_19  and  S_20
REMARK                            x       y       z     vdW  Elec       q    Type
REMARK                         _______ _______ _______ _____ _____    ______ ____
ROOT
ATOM      1  S   UNL     1       4.328   5.899  17.970  0.00  0.00    +0.000 S 
ATOM      2  O   UNL     1       4.131   7.339  18.002  0.00  0.00    +0.000 OA
ATOM      3  O   UNL     1       4.940   5.260  19.125  0.00  0.00    +0.000 OA
ENDROOT
BRANCH   1   9
ATOM      4  C   UNL     1       2.977   2.275  19.600  0.00  0.00    +0.000 C 
ATOM      5  C   UNL     1       1.635   1.654  19.219  0.00  0.00    +0.000 C 
ATOM      6  C   UNL     1       0.684   2.733  18.726  0.00  0.00    +0.000 C 
ATOM      7  N   UNL     1       1.334   3.576  17.738  0.00  0.00    +0.000 N 
ATOM      8  C   UNL     1       2.617   4.022  17.920  0.00  0.00    +0.000 C 
ATOM      9  N   UNL     1       2.906   5.231  17.576  0.00  0.00    +0.000 NA
ATOM     10  N   UNL     1       3.429   3.074  18.475  0.00  0.00    +0.000 N 
ATOM     11  H   UNL     1       0.734   4.312  17.381  0.00  0.00    +0.000 HD
ATOM     12  H   UNL     1       4.408   3.365  18.561  0.00  0.00    +0.000 HD
BRANCH   4  14
ATOM     13  C   UNL     1       1.890   2.849  21.856  0.00  0.00    +0.000 C 
ATOM     14  C   UNL     1       2.974   3.179  20.848  0.00  0.00    +0.000 C 
ENDBRANCH   4  14
ENDBRANCH   1   9
BRANCH   1  15
ATOM     15  C   UNL     1       5.400   5.563  16.584  0.00  0.00    +0.000 A 
ATOM     16  C   UNL     1       4.863   4.820  15.516  0.00  0.00    +0.000 A 
ATOM     17  C   UNL     1       5.633   4.522  14.382  0.00  0.00    +0.000 A 
ATOM     18  C   UNL     1       5.022   3.735  13.259  0.00  0.00    +0.000 C 
ATOM     19  C   UNL     1       6.958   4.967  14.347  0.00  0.00    +0.000 A 
ATOM     20 CL   UNL     1       7.991   4.623  13.007  0.00  0.00    +0.000 Cl
ATOM     21  C   UNL     1       7.489   5.717  15.405  0.00  0.00    +0.000 A 
ATOM     22  C   UNL     1       6.721   6.031  16.536  0.00  0.00    +0.000 A 
BRANCH  22  23
ATOM     23  S   UNL     1       7.493   7.053  17.781  0.00  0.00    +0.000 S 
ATOM     24  H   UNL     1       6.570   8.025  17.827  0.00  0.00    +0.000 HD
ENDBRANCH  22  23
ENDBRANCH   1  15
TORSDOF 4
ENDMDL
