MODEL 1
REMARK VINA RESULT:      -6.3      0.000      0.000
REMARK  Name = 
REMARK  6 active torsions:
REMARK  status: ('A' for Active; 'I' for Inactive)
REMARK    1  A    between atoms: C_2  and  C_3
REMARK    2  A    between atoms: C_4  and  C_5
REMARK    3  A    between atoms: C_10  and  C_11
REMARK    4  A    between atoms: C_16  and  C_17
REMARK    5  A    between atoms: C_17  and  O_18
REMARK    6  A    between atoms: N_22  and  C_23
REMARK                            x       y       z     vdW  Elec       q    Type
REMARK                         _______ _______ _______ _____ _____    ______ ____
ROOT
ATOM      1  C   UNL     1       0.798  10.757  18.543  0.00  0.00    +0.000 C 
ATOM      2  C   UNL     1      -0.248  11.527  19.393  0.00  0.00    +0.000 C 
ATOM      3  C   UNL     1       0.356  10.809  20.641  0.00  0.00    +0.000 C 
ATOM      4  N   UNL     1       0.922   9.856  19.683  0.00  0.00    +0.000 N 
ATOM      5  C   UNL     1       1.591   8.675  19.848  0.00  0.00    +0.000 C 
ATOM      6  O   UNL     1       1.724   8.141  20.941  0.00  0.00    +0.000 OA
ATOM      7  N   UNL     1       2.096   8.172  18.672  0.00  0.00    +0.000 N 
ATOM      8  H   UNL     1       1.777   8.571  17.805  0.00  0.00    +0.000 HD
ENDROOT
BRANCH   2   9
ATOM      9  C   UNL     1      -1.798  11.327  18.975  0.00  0.00    +0.000 A 
ATOM     10  C   UNL     1      -2.190  10.382  17.995  0.00  0.00    +0.000 A 
ATOM     11  C   UNL     1      -3.511  10.242  17.563  0.00  0.00    +0.000 A 
ATOM     12  C   UNL     1      -4.504  11.033  18.120  0.00  0.00    +0.000 A 
ATOM     13  C   UNL     1      -4.173  11.963  19.100  0.00  0.00    +0.000 A 
ATOM     14  C   UNL     1      -2.840  12.120  19.519  0.00  0.00    +0.000 A 
BRANCH  14  15
ATOM     15  C   UNL     1      -2.569  13.136  20.530  0.00  0.00    +0.000 C 
ATOM     16  C   UNL     1      -1.897  14.274  20.322  0.00  0.00    +0.000 C 
ATOM     17  C   UNL     1      -1.729  15.045  21.588  0.00  0.00    +0.000 C 
ATOM     18  C   UNL     1      -2.665  14.332  22.565  0.00  0.00    +0.000 C 
ATOM     19  C   UNL     1      -2.977  12.962  21.957  0.00  0.00    +0.000 C 
ENDBRANCH  14  15
ENDBRANCH   2   9
BRANCH   7  20
ATOM     20  C   UNL     1       2.896   6.968  18.566  0.00  0.00    +0.000 C 
ATOM     21  C   UNL     1       2.116   5.748  18.081  0.00  0.00    +0.000 C 
ATOM     22  C   UNL     1       3.217   4.788  17.637  0.00  0.00    +0.000 C 
ATOM     23  C   UNL     1       4.353   5.674  17.122  0.00  0.00    +0.000 C 
ATOM     24  C   UNL     1       3.962   7.105  17.476  0.00  0.00    +0.000 C 
ENDBRANCH   7  20
BRANCH   1  26
ATOM     25  N   UNL     1       2.970  12.082  17.961  0.00  0.00    +0.000 NA
ATOM     26  C   UNL     1       2.012  11.477  18.224  0.00  0.00    +0.000 C 
ENDBRANCH   1  26
BRANCH   3  27
ATOM     27  C   UNL     1      -0.578  10.227  21.687  0.00  0.00    +0.000 C 
BRANCH  27  28
ATOM     28  O   UNL     1       0.117  10.072  22.923  0.00  0.00    +0.000 OA
ATOM     29  H   UNL     1      -0.366  10.599  23.593  0.00  0.00    +0.000 HD
ENDBRANCH  27  28
ENDBRANCH   3  27
TORSDOF 6
ENDMDL
MODEL 2
REMARK VINA RESULT:      -6.0      2.289      4.023
REMARK  Name = 
REMARK  6 active torsions:
REMARK  status: ('A' for Active; 'I' for Inactive)
REMARK    1  A    between atoms: C_2  and  C_3
REMARK    2  A    between atoms: C_4  and  C_5
REMARK    3  A    between atoms: C_10  and  C_11
REMARK    4  A    between atoms: C_16  and  C_17
REMARK    5  A    between atoms: C_17  and  O_18
REMARK    6  A    between atoms: N_22  and  C_23
REMARK                            x       y       z     vdW  Elec       q    Type
REMARK                         _______ _______ _______ _____ _____    ______ ____
ROOT
ATOM      1  C   UNL     1      -1.864  10.774  18.814  0.00  0.00    +0.000 C 
ATOM      2  C   UNL     1      -2.464  12.188  19.040  0.00  0.00    +0.000 C 
ATOM      3  C   UNL     1      -1.080  12.758  18.598  0.00  0.00    +0.000 C 
ATOM      4  N   UNL     1      -0.558  11.419  18.886  0.00  0.00    +0.000 N 
ATOM      5  C   UNL     1       0.712  10.914  18.916  0.00  0.00    +0.000 C 
ATOM      6  O   UNL     1       1.704  11.622  18.801  0.00  0.00    +0.000 OA
ATOM      7  N   UNL     1       0.746   9.549  19.075  0.00  0.00    +0.000 N 
ATOM      8  H   UNL     1      -0.099   9.078  19.353  0.00  0.00    +0.000 HD
ENDROOT
BRANCH   2   9
ATOM      9  C   UNL     1      -3.065  12.484  20.513  0.00  0.00    +0.000 A 
ATOM     10  C   UNL     1      -2.238  12.520  21.662  0.00  0.00    +0.000 A 
ATOM     11  C   UNL     1      -2.742  12.699  22.953  0.00  0.00    +0.000 A 
ATOM     12  C   UNL     1      -4.105  12.877  23.141  0.00  0.00    +0.000 A 
ATOM     13  C   UNL     1      -4.956  12.869  22.041  0.00  0.00    +0.000 A 
ATOM     14  C   UNL     1      -4.452  12.666  20.744  0.00  0.00    +0.000 A 
BRANCH  14  15
ATOM     15  C   UNL     1      -5.413  12.643  19.646  0.00  0.00    +0.000 C 
ATOM     16  C   UNL     1      -5.994  13.720  19.105  0.00  0.00    +0.000 C 
ATOM     17  C   UNL     1      -6.985  13.334  18.059  0.00  0.00    +0.000 C 
ATOM     18  C   UNL     1      -6.709  11.846  17.840  0.00  0.00    +0.000 C 
ATOM     19  C   UNL     1      -5.901  11.365  19.047  0.00  0.00    +0.000 C 
ENDBRANCH  14  15
ENDBRANCH   2   9
BRANCH   7  20
ATOM     20  C   UNL     1       1.955   8.749  19.081  0.00  0.00    +0.000 C 
ATOM     21  C   UNL     1       1.848   7.473  19.913  0.00  0.00    +0.000 C 
ATOM     22  C   UNL     1       3.018   6.632  19.408  0.00  0.00    +0.000 C 
ATOM     23  C   UNL     1       3.184   7.001  17.934  0.00  0.00    +0.000 C 
ATOM     24  C   UNL     1       2.253   8.185  17.689  0.00  0.00    +0.000 C 
ENDBRANCH   7  20
BRANCH   1  26
ATOM     25  N   UNL     1      -2.397   9.691  16.500  0.00  0.00    +0.000 NA
ATOM     26  C   UNL     1      -2.151  10.159  17.537  0.00  0.00    +0.000 C 
ENDBRANCH   1  26
BRANCH   3  27
ATOM     27  C   UNL     1      -0.460  13.898  19.387  0.00  0.00    +0.000 C 
BRANCH  27  28
ATOM     28  O   UNL     1      -0.597  15.119  18.662  0.00  0.00    +0.000 OA
ATOM     29  H   UNL     1      -0.084  15.021  17.834  0.00  0.00    +0.000 HD
ENDBRANCH  27  28
ENDBRANCH   3  27
TORSDOF 6
ENDMDL
MODEL 3
REMARK VINA RESULT:      -5.9      0.958      1.082
REMARK  Name = 
REMARK  6 active torsions:
REMARK  status: ('A' for Active; 'I' for Inactive)
REMARK    1  A    between atoms: C_2  and  C_3
REMARK    2  A    between atoms: C_4  and  C_5
REMARK    3  A    between atoms: C_10  and  C_11
REMARK    4  A    between atoms: C_16  and  C_17
REMARK    5  A    between atoms: C_17  and  O_18
REMARK    6  A    between atoms: N_22  and  C_23
REMARK                            x       y       z     vdW  Elec       q    Type
REMARK                         _______ _______ _______ _____ _____    ______ ____
ROOT
ATOM      1  C   UNL     1       0.401  11.113  19.026  0.00  0.00    +0.000 C 
ATOM      2  C   UNL     1      -0.644  11.993  19.763  0.00  0.00    +0.000 C 
ATOM      3  C   UNL     1      -0.077  11.409  21.095  0.00  0.00    +0.000 C 
ATOM      4  N   UNL     1       0.487  10.343  20.262  0.00  0.00    +0.000 N 
ATOM      5  C   UNL     1       1.128   9.177  20.572  0.00  0.00    +0.000 C 
ATOM      6  O   UNL     1       1.231   8.767  21.721  0.00  0.00    +0.000 OA
ATOM      7  N   UNL     1       1.643   8.535  19.470  0.00  0.00    +0.000 N 
ATOM      8  H   UNL     1       1.347   8.840  18.557  0.00  0.00    +0.000 HD
ENDROOT
BRANCH   2   9
ATOM      9  C   UNL     1      -2.191  11.775  19.340  0.00  0.00    +0.000 A 
ATOM     10  C   UNL     1      -2.568  10.826  18.359  0.00  0.00    +0.000 A 
ATOM     11  C   UNL     1      -3.887  10.671  17.923  0.00  0.00    +0.000 A 
ATOM     12  C   UNL     1      -4.891  11.451  18.478  0.00  0.00    +0.000 A 
ATOM     13  C   UNL     1      -4.573  12.384  19.459  0.00  0.00    +0.000 A 
ATOM     14  C   UNL     1      -3.243  12.556  19.882  0.00  0.00    +0.000 A 
BRANCH  14  15
ATOM     15  C   UNL     1      -2.987  13.574  20.894  0.00  0.00    +0.000 C 
ATOM     16  C   UNL     1      -2.254  14.679  20.712  0.00  0.00    +0.000 C 
ATOM     17  C   UNL     1      -2.127  15.462  21.974  0.00  0.00    +0.000 C 
ATOM     18  C   UNL     1      -3.148  14.804  22.905  0.00  0.00    +0.000 C 
ATOM     19  C   UNL     1      -3.483  13.440  22.297  0.00  0.00    +0.000 C 
ENDBRANCH  14  15
ENDBRANCH   2   9
BRANCH   7  20
ATOM     20  C   UNL     1       2.420   7.313  19.515  0.00  0.00    +0.000 C 
ATOM     21  C   UNL     1       1.744   6.178  20.280  0.00  0.00    +0.000 C 
ATOM     22  C   UNL     1       2.507   4.941  19.813  0.00  0.00    +0.000 C 
ATOM     23  C   UNL     1       2.920   5.234  18.370  0.00  0.00    +0.000 C 
ATOM     24  C   UNL     1       2.569   6.698  18.121  0.00  0.00    +0.000 C 
ENDBRANCH   7  20
BRANCH   1  26
ATOM     25  N   UNL     1       2.631  12.274  18.328  0.00  0.00    +0.000 NA
ATOM     26  C   UNL     1       1.634  11.769  18.651  0.00  0.00    +0.000 C 
ENDBRANCH   1  26
BRANCH   3  27
ATOM     27  C   UNL     1      -1.040  10.966  22.182  0.00  0.00    +0.000 C 
BRANCH  27  28
ATOM     28  O   UNL     1      -0.319  10.678  23.379  0.00  0.00    +0.000 OA
ATOM     29  H   UNL     1      -0.911  10.147  23.951  0.00  0.00    +0.000 HD
ENDBRANCH  27  28
ENDBRANCH   3  27
TORSDOF 6
ENDMDL
MODEL 4
REMARK VINA RESULT:      -5.7      2.770      4.500
REMARK  Name = 
REMARK  6 active torsions:
REMARK  status: ('A' for Active; 'I' for Inactive)
REMARK    1  A    between atoms: C_2  and  C_3
REMARK    2  A    between atoms: C_4  and  C_5
REMARK    3  A    between atoms: C_10  and  C_11
REMARK    4  A    between atoms: C_16  and  C_17
REMARK    5  A    between atoms: C_17  and  O_18
REMARK    6  A    between atoms: N_22  and  C_23
REMARK                            x       y       z     vdW  Elec       q    Type
REMARK                         _______ _______ _______ _____ _____    ______ ____
ROOT
ATOM      1  C   UNL     1       1.032  11.693  20.725  0.00  0.00    +0.000 C 
ATOM      2  C   UNL     1       0.453  13.093  20.387  0.00  0.00    +0.000 C 
ATOM      3  C   UNL     1      -0.461  12.376  19.346  0.00  0.00    +0.000 C 
ATOM      4  N   UNL     1       0.486  11.262  19.444  0.00  0.00    +0.000 N 
ATOM      5  C   UNL     1       0.607  10.094  18.744  0.00  0.00    +0.000 C 
ATOM      6  O   UNL     1      -0.071   9.846  17.755  0.00  0.00    +0.000 OA
ATOM      7  N   UNL     1       1.549   9.243  19.272  0.00  0.00    +0.000 N 
ATOM      8  H   UNL     1       2.188   9.605  19.961  0.00  0.00    +0.000 HD
ENDROOT
BRANCH   2   9
ATOM      9  C   UNL     1       1.523  14.220  19.933  0.00  0.00    +0.000 A 
ATOM     10  C   UNL     1       2.847  13.883  19.561  0.00  0.00    +0.000 A 
ATOM     11  C   UNL     1       3.810  14.843  19.238  0.00  0.00    +0.000 A 
ATOM     12  C   UNL     1       3.472  16.188  19.250  0.00  0.00    +0.000 A 
ATOM     13  C   UNL     1       2.178  16.568  19.590  0.00  0.00    +0.000 A 
ATOM     14  C   UNL     1       1.215  15.604  19.937  0.00  0.00    +0.000 A 
BRANCH  14  15
ATOM     15  C   UNL     1      -0.111  16.084  20.309  0.00  0.00    +0.000 C 
ATOM     16  C   UNL     1      -1.075  16.436  19.450  0.00  0.00    +0.000 C 
ATOM     17  C   UNL     1      -2.275  16.959  20.164  0.00  0.00    +0.000 C 
ATOM     18  C   UNL     1      -2.003  16.600  21.626  0.00  0.00    +0.000 C 
ATOM     19  C   UNL     1      -0.507  16.295  21.734  0.00  0.00    +0.000 C 
ENDBRANCH  14  15
ENDBRANCH   2   9
BRANCH   7  20
ATOM     20  C   UNL     1       1.839   7.916  18.766  0.00  0.00    +0.000 C 
ATOM     21  C   UNL     1       3.049   7.860  17.837  0.00  0.00    +0.000 C 
ATOM     22  C   UNL     1       3.400   6.374  17.815  0.00  0.00    +0.000 C 
ATOM     23  C   UNL     1       3.018   5.841  19.197  0.00  0.00    +0.000 C 
ATOM     24  C   UNL     1       2.272   6.975  19.893  0.00  0.00    +0.000 C 
ENDBRANCH   7  20
BRANCH   1  26
ATOM     25  N   UNL     1      -0.015  10.517  22.807  0.00  0.00    +0.000 NA
ATOM     26  C   UNL     1       0.452  11.026  21.870  0.00  0.00    +0.000 C 
ENDBRANCH   1  26
BRANCH   3  27
ATOM     27  C   UNL     1      -0.634  12.984  17.965  0.00  0.00    +0.000 C 
BRANCH  27  28
ATOM     28  O   UNL     1      -1.671  12.301  17.262  0.00  0.00    +0.000 OA
ATOM     29  H   UNL     1      -1.947  12.881  16.523  0.00  0.00    +0.000 HD
ENDBRANCH  27  28
ENDBRANCH   3  27
TORSDOF 6
ENDMDL
MODEL 5
REMARK VINA RESULT:      -5.7      4.877      7.941
REMARK  Name = 
REMARK  6 active torsions:
REMARK  status: ('A' for Active; 'I' for Inactive)
REMARK    1  A    between atoms: C_2  and  C_3
REMARK    2  A    between atoms: C_4  and  C_5
REMARK    3  A    between atoms: C_10  and  C_11
REMARK    4  A    between atoms: C_16  and  C_17
REMARK    5  A    between atoms: C_17  and  O_18
REMARK    6  A    between atoms: N_22  and  C_23
REMARK                            x       y       z     vdW  Elec       q    Type
REMARK                         _______ _______ _______ _____ _____    ______ ____
ROOT
ATOM      1  C   UNL     1       4.499   5.722  17.246  0.00  0.00    +0.000 C 
ATOM      2  C   UNL     1       4.592   5.844  18.790  0.00  0.00    +0.000 C 
ATOM      3  C   UNL     1       6.137   5.689  18.629  0.00  0.00    +0.000 C 
ATOM      4  N   UNL     1       5.835   5.140  17.305  0.00  0.00    +0.000 N 
ATOM      5  C   UNL     1       6.620   4.551  16.353  0.00  0.00    +0.000 C 
ATOM      6  O   UNL     1       7.796   4.273  16.550  0.00  0.00    +0.000 OA
ATOM      7  N   UNL     1       5.956   4.322  15.172  0.00  0.00    +0.000 N 
ATOM      8  H   UNL     1       4.952   4.403  15.163  0.00  0.00    +0.000 HD
ENDROOT
BRANCH   2   9
ATOM      9  C   UNL     1       3.724   4.779  19.646  0.00  0.00    +0.000 A 
ATOM     10  C   UNL     1       4.105   3.420  19.750  0.00  0.00    +0.000 A 
ATOM     11  C   UNL     1       3.333   2.466  20.419  0.00  0.00    +0.000 A 
ATOM     12  C   UNL     1       2.153   2.848  21.039  0.00  0.00    +0.000 A 
ATOM     13  C   UNL     1       1.745   4.176  20.981  0.00  0.00    +0.000 A 
ATOM     14  C   UNL     1       2.509   5.131  20.288  0.00  0.00    +0.000 A 
BRANCH  14  15
ATOM     15  C   UNL     1       2.001   6.498  20.249  0.00  0.00    +0.000 C 
ATOM     16  C   UNL     1       1.547   7.185  21.304  0.00  0.00    +0.000 C 
ATOM     17  C   UNL     1       1.026   8.522  20.900  0.00  0.00    +0.000 C 
ATOM     18  C   UNL     1       1.500   8.665  19.452  0.00  0.00    +0.000 C 
ATOM     19  C   UNL     1       1.876   7.262  18.971  0.00  0.00    +0.000 C 
ENDBRANCH  14  15
ENDBRANCH   2   9
BRANCH   7  20
ATOM     20  C   UNL     1       6.562   3.765  13.978  0.00  0.00    +0.000 C 
ATOM     21  C   UNL     1       5.553   3.282  12.940  0.00  0.00    +0.000 C 
ATOM     22  C   UNL     1       6.389   3.178  11.667  0.00  0.00    +0.000 C 
ATOM     23  C   UNL     1       7.448   4.276  11.779  0.00  0.00    +0.000 C 
ATOM     24  C   UNL     1       7.324   4.836  13.193  0.00  0.00    +0.000 C 
ENDBRANCH   7  20
BRANCH   1  26
ATOM     25  N   UNL     1       4.343   7.963  15.916  0.00  0.00    +0.000 NA
ATOM     26  C   UNL     1       4.429   6.968  16.513  0.00  0.00    +0.000 C 
ENDBRANCH   1  26
BRANCH   3  27
ATOM     27  C   UNL     1       6.894   4.772  19.574  0.00  0.00    +0.000 C 
BRANCH  27  28
ATOM     28  O   UNL     1       7.870   5.521  20.296  0.00  0.00    +0.000 OA
ATOM     29  H   UNL     1       8.655   5.604  19.716  0.00  0.00    +0.000 HD
ENDBRANCH  27  28
ENDBRANCH   3  27
TORSDOF 6
ENDMDL
MODEL 6
REMARK VINA RESULT:      -5.7      2.481      4.299
REMARK  Name = 
REMARK  6 active torsions:
REMARK  status: ('A' for Active; 'I' for Inactive)
REMARK    1  A    between atoms: C_2  and  C_3
REMARK    2  A    between atoms: C_4  and  C_5
REMARK    3  A    between atoms: C_10  and  C_11
REMARK    4  A    between atoms: C_16  and  C_17
REMARK    5  A    between atoms: C_17  and  O_18
REMARK    6  A    between atoms: N_22  and  C_23
REMARK                            x       y       z     vdW  Elec       q    Type
REMARK                         _______ _______ _______ _____ _____    ______ ____
ROOT
ATOM      1  C   UNL     1       0.665  10.899  21.140  0.00  0.00    +0.000 C 
ATOM      2  C   UNL     1       0.064  12.324  21.015  0.00  0.00    +0.000 C 
ATOM      3  C   UNL     1      -0.592  11.843  19.682  0.00  0.00    +0.000 C 
ATOM      4  N   UNL     1       0.395  10.761  19.713  0.00  0.00    +0.000 N 
ATOM      5  C   UNL     1       0.722   9.789  18.809  0.00  0.00    +0.000 C 
ATOM      6  O   UNL     1       0.256   9.759  17.678  0.00  0.00    +0.000 OA
ATOM      7  N   UNL     1       1.608   8.863  19.309  0.00  0.00    +0.000 N 
ATOM      8  H   UNL     1       2.082   9.072  20.172  0.00  0.00    +0.000 HD
ENDROOT
BRANCH   2   9
ATOM      9  C   UNL     1       1.119  13.551  21.039  0.00  0.00    +0.000 A 
ATOM     10  C   UNL     1       2.449  13.400  20.577  0.00  0.00    +0.000 A 
ATOM     11  C   UNL     1       3.399  14.421  20.656  0.00  0.00    +0.000 A 
ATOM     12  C   UNL     1       3.042  15.654  21.182  0.00  0.00    +0.000 A 
ATOM     13  C   UNL     1       1.742  15.858  21.632  0.00  0.00    +0.000 A 
ATOM     14  C   UNL     1       0.792  14.823  21.573  0.00  0.00    +0.000 A 
BRANCH  14  15
ATOM     15  C   UNL     1      -0.543  15.107  22.091  0.00  0.00    +0.000 C 
ATOM     16  C   UNL     1      -1.568  15.574  21.369  0.00  0.00    +0.000 C 
ATOM     17  C   UNL     1      -2.763  15.830  22.225  0.00  0.00    +0.000 C 
ATOM     18  C   UNL     1      -2.395  15.168  23.555  0.00  0.00    +0.000 C 
ATOM     19  C   UNL     1      -0.880  14.957  23.538  0.00  0.00    +0.000 C 
ENDBRANCH  14  15
ENDBRANCH   2   9
BRANCH   7  20
ATOM     20  C   UNL     1       2.076   7.697  18.587  0.00  0.00    +0.000 C 
ATOM     21  C   UNL     1       3.326   7.949  17.748  0.00  0.00    +0.000 C 
ATOM     22  C   UNL     1       3.851   6.542  17.476  0.00  0.00    +0.000 C 
ATOM     23  C   UNL     1       3.472   5.717  18.707  0.00  0.00    +0.000 C 
ATOM     24  C   UNL     1       2.565   6.610  19.548  0.00  0.00    +0.000 C 
ENDBRANCH   7  20
BRANCH   1  26
ATOM     25  N   UNL     1      -0.631   9.205  22.645  0.00  0.00    +0.000 NA
ATOM     26  C   UNL     1      -0.068   9.971  21.973  0.00  0.00    +0.000 C 
ENDBRANCH   1  26
BRANCH   3  27
ATOM     27  C   UNL     1      -0.549  12.749  18.464  0.00  0.00    +0.000 C 
BRANCH  27  28
ATOM     28  O   UNL     1      -1.529  12.330  17.516  0.00  0.00    +0.000 OA
ATOM     29  H   UNL     1      -1.436  12.908  16.731  0.00  0.00    +0.000 HD
ENDBRANCH  27  28
ENDBRANCH   3  27
TORSDOF 6
ENDMDL
MODEL 7
REMARK VINA RESULT:      -5.7      4.613      7.969
REMARK  Name = 
REMARK  6 active torsions:
REMARK  status: ('A' for Active; 'I' for Inactive)
REMARK    1  A    between atoms: C_2  and  C_3
REMARK    2  A    between atoms: C_4  and  C_5
REMARK    3  A    between atoms: C_10  and  C_11
REMARK    4  A    between atoms: C_16  and  C_17
REMARK    5  A    between atoms: C_17  and  O_18
REMARK    6  A    between atoms: N_22  and  C_23
REMARK                            x       y       z     vdW  Elec       q    Type
REMARK                         _______ _______ _______ _____ _____    ______ ____
ROOT
ATOM      1  C   UNL     1      -0.264  14.027  20.014  0.00  0.00    +0.000 C 
ATOM      2  C   UNL     1       1.031  14.786  19.619  0.00  0.00    +0.000 C 
ATOM      3  C   UNL     1       1.350  14.872  21.145  0.00  0.00    +0.000 C 
ATOM      4  N   UNL     1      -0.072  14.584  21.348  0.00  0.00    +0.000 N 
ATOM      5  C   UNL     1      -0.856  14.569  22.468  0.00  0.00    +0.000 C 
ATOM      6  O   UNL     1      -0.451  14.945  23.560  0.00  0.00    +0.000 OA
ATOM      7  N   UNL     1      -2.121  14.084  22.235  0.00  0.00    +0.000 N 
ATOM      8  H   UNL     1      -2.426  13.982  21.281  0.00  0.00    +0.000 HD
ENDROOT
BRANCH   2   9
ATOM      9  C   UNL     1       0.834  16.120  18.724  0.00  0.00    +0.000 A 
ATOM     10  C   UNL     1      -0.440  16.705  18.528  0.00  0.00    +0.000 A 
ATOM     11  C   UNL     1      -0.646  17.812  17.699  0.00  0.00    +0.000 A 
ATOM     12  C   UNL     1       0.432  18.396  17.052  0.00  0.00    +0.000 A 
ATOM     13  C   UNL     1       1.707  17.870  17.228  0.00  0.00    +0.000 A 
ATOM     14  C   UNL     1       1.911  16.743  18.043  0.00  0.00    +0.000 A 
BRANCH  14  15
ATOM     15  C   UNL     1       3.274  16.233  18.156  0.00  0.00    +0.000 C 
ATOM     16  C   UNL     1       3.783  15.222  17.442  0.00  0.00    +0.000 C 
ATOM     17  C   UNL     1       5.177  14.906  17.865  0.00  0.00    +0.000 C 
ATOM     18  C   UNL     1       5.551  16.085  18.766  0.00  0.00    +0.000 C 
ATOM     19  C   UNL     1       4.242  16.772  19.158  0.00  0.00    +0.000 C 
ENDBRANCH  14  15
ENDBRANCH   2   9
BRANCH   7  20
ATOM     20  C   UNL     1      -3.136  13.902  23.254  0.00  0.00    +0.000 C 
ATOM     21  C   UNL     1      -4.565  13.965  22.721  0.00  0.00    +0.000 C 
ATOM     22  C   UNL     1      -5.381  13.321  23.839  0.00  0.00    +0.000 C 
ATOM     23  C   UNL     1      -4.461  12.273  24.468  0.00  0.00    +0.000 C 
ATOM     24  C   UNL     1      -3.088  12.489  23.839  0.00  0.00    +0.000 C 
ENDBRANCH   7  20
BRANCH   1  26
ATOM     25  N   UNL     1      -0.166  11.422  19.897  0.00  0.00    +0.000 NA
ATOM     26  C   UNL     1      -0.196  12.583  19.961  0.00  0.00    +0.000 C 
ENDBRANCH   1  26
BRANCH   3  27
ATOM     27  C   UNL     1       1.855  16.181  21.726  0.00  0.00    +0.000 C 
BRANCH  27  28
ATOM     28  O   UNL     1       2.383  15.958  23.032  0.00  0.00    +0.000 OA
ATOM     29  H   UNL     1       1.632  16.005  23.658  0.00  0.00    +0.000 HD
ENDBRANCH  27  28
ENDBRANCH   3  27
TORSDOF 6
ENDMDL
MODEL 8
REMARK VINA RESULT:      -5.7      0.946      1.554
REMARK  Name = 
REMARK  6 active torsions:
REMARK  status: ('A' for Active; 'I' for Inactive)
REMARK    1  A    between atoms: C_2  and  C_3
REMARK    2  A    between atoms: C_4  and  C_5
REMARK    3  A    between atoms: C_10  and  C_11
REMARK    4  A    between atoms: C_16  and  C_17
REMARK    5  A    between atoms: C_17  and  O_18
REMARK    6  A    between atoms: N_22  and  C_23
REMARK                            x       y       z     vdW  Elec       q    Type
REMARK                         _______ _______ _______ _____ _____    ______ ____
ROOT
ATOM      1  C   UNL     1       0.536  11.463  18.975  0.00  0.00    +0.000 C 
ATOM      2  C   UNL     1      -0.311  12.162  20.072  0.00  0.00    +0.000 C 
ATOM      3  C   UNL     1       0.360  11.194  21.095  0.00  0.00    +0.000 C 
ATOM      4  N   UNL     1       0.702  10.373  19.930  0.00  0.00    +0.000 N 
ATOM      5  C   UNL     1       1.256   9.129  19.813  0.00  0.00    +0.000 C 
ATOM      6  O   UNL     1       1.463   8.407  20.779  0.00  0.00    +0.000 OA
ATOM      7  N   UNL     1       1.558   8.793  18.514  0.00  0.00    +0.000 N 
ATOM      8  H   UNL     1       1.180   9.360  17.773  0.00  0.00    +0.000 HD
ENDROOT
BRANCH   2   9
ATOM      9  C   UNL     1      -1.913  12.168  19.844  0.00  0.00    +0.000 A 
ATOM     10  C   UNL     1      -2.517  11.457  18.779  0.00  0.00    +0.000 A 
ATOM     11  C   UNL     1      -3.889  11.506  18.517  0.00  0.00    +0.000 A 
ATOM     12  C   UNL     1      -4.719  12.256  19.336  0.00  0.00    +0.000 A 
ATOM     13  C   UNL     1      -4.176  12.957  20.407  0.00  0.00    +0.000 A 
ATOM     14  C   UNL     1      -2.793  12.926  20.658  0.00  0.00    +0.000 A 
BRANCH  14  15
ATOM     15  C   UNL     1      -2.297  13.710  21.784  0.00  0.00    +0.000 C 
ATOM     16  C   UNL     1      -2.357  13.342  23.069  0.00  0.00    +0.000 C 
ATOM     17  C   UNL     1      -1.835  14.412  23.966  0.00  0.00    +0.000 C 
ATOM     18  C   UNL     1      -1.170  15.394  22.999  0.00  0.00    +0.000 C 
ATOM     19  C   UNL     1      -1.712  15.073  21.604  0.00  0.00    +0.000 C 
ENDBRANCH  14  15
ENDBRANCH   2   9
BRANCH   7  20
ATOM     20  C   UNL     1       2.207   7.562  18.110  0.00  0.00    +0.000 C 
ATOM     21  C   UNL     1       3.567   7.769  17.447  0.00  0.00    +0.000 C 
ATOM     22  C   UNL     1       4.208   6.386  17.533  0.00  0.00    +0.000 C 
ATOM     23  C   UNL     1       3.670   5.763  18.822  0.00  0.00    +0.000 C 
ATOM     24  C   UNL     1       2.584   6.709  19.324  0.00  0.00    +0.000 C 
ENDBRANCH   7  20
BRANCH   1  26
ATOM     25  N   UNL     1       2.774  12.651  18.347  0.00  0.00    +0.000 NA
ATOM     26  C   UNL     1       1.771  12.121  18.610  0.00  0.00    +0.000 C 
ENDBRANCH   1  26
BRANCH   3  27
ATOM     27  C   UNL     1      -0.496  10.523  22.155  0.00  0.00    +0.000 C 
BRANCH  27  28
ATOM     28  O   UNL     1       0.334  10.022  23.201  0.00  0.00    +0.000 OA
ATOM     29  H   UNL     1       1.151   9.682  22.782  0.00  0.00    +0.000 HD
ENDBRANCH  27  28
ENDBRANCH   3  27
TORSDOF 6
ENDMDL
MODEL 9
REMARK VINA RESULT:      -5.7      2.703      8.521
REMARK  Name = 
REMARK  6 active torsions:
REMARK  status: ('A' for Active; 'I' for Inactive)
REMARK    1  A    between atoms: C_2  and  C_3
REMARK    2  A    between atoms: C_4  and  C_5
REMARK    3  A    between atoms: C_10  and  C_11
REMARK    4  A    between atoms: C_16  and  C_17
REMARK    5  A    between atoms: C_17  and  O_18
REMARK    6  A    between atoms: N_22  and  C_23
REMARK                            x       y       z     vdW  Elec       q    Type
REMARK                         _______ _______ _______ _____ _____    ______ ____
ROOT
ATOM      1  C   UNL     1       1.793   7.236  19.748  0.00  0.00    +0.000 C 
ATOM      2  C   UNL     1       3.050   6.389  19.415  0.00  0.00    +0.000 C 
ATOM      3  C   UNL     1       3.543   7.601  18.564  0.00  0.00    +0.000 C 
ATOM      4  N   UNL     1       2.147   8.046  18.589  0.00  0.00    +0.000 N 
ATOM      5  C   UNL     1       1.496   9.065  17.950  0.00  0.00    +0.000 C 
ATOM      6  O   UNL     1       2.030   9.750  17.089  0.00  0.00    +0.000 OA
ATOM      7  N   UNL     1       0.202   9.234  18.386  0.00  0.00    +0.000 N 
ATOM      8  H   UNL     1      -0.211   8.511  18.951  0.00  0.00    +0.000 HD
ENDROOT
BRANCH   2   9
ATOM      9  C   UNL     1       2.781   4.941  18.742  0.00  0.00    +0.000 A 
ATOM     10  C   UNL     1       1.474   4.415  18.604  0.00  0.00    +0.000 A 
ATOM     11  C   UNL     1       1.221   3.138  18.095  0.00  0.00    +0.000 A 
ATOM     12  C   UNL     1       2.277   2.343  17.678  0.00  0.00    +0.000 A 
ATOM     13  C   UNL     1       3.579   2.823  17.776  0.00  0.00    +0.000 A 
ATOM     14  C   UNL     1       3.836   4.098  18.308  0.00  0.00    +0.000 A 
BRANCH  14  15
ATOM     15  C   UNL     1       5.230   4.518  18.404  0.00  0.00    +0.000 C 
ATOM     16  C   UNL     1       5.803   5.052  19.488  0.00  0.00    +0.000 C 
ATOM     17  C   UNL     1       7.217   5.443  19.219  0.00  0.00    +0.000 C 
ATOM     18  C   UNL     1       7.513   4.794  17.865  0.00  0.00    +0.000 C 
ATOM     19  C   UNL     1       6.161   4.447  17.238  0.00  0.00    +0.000 C 
ENDBRANCH  14  15
ENDBRANCH   2   9
BRANCH   7  20
ATOM     20  C   UNL     1      -0.694  10.276  17.923  0.00  0.00    +0.000 C 
ATOM     21  C   UNL     1      -1.846   9.763  17.064  0.00  0.00    +0.000 C 
ATOM     22  C   UNL     1      -2.841  10.920  17.092  0.00  0.00    +0.000 C 
ATOM     23  C   UNL     1      -2.667  11.579  18.461  0.00  0.00    +0.000 C 
ATOM     24  C   UNL     1      -1.444  10.920  19.092  0.00  0.00    +0.000 C 
ENDBRANCH   7  20
BRANCH   1  26
ATOM     25  N   UNL     1       1.849   8.559  21.998  0.00  0.00    +0.000 NA
ATOM     26  C   UNL     1       1.825   7.953  21.004  0.00  0.00    +0.000 C 
ENDBRANCH   1  26
BRANCH   3  27
ATOM     27  C   UNL     1       4.137   7.350  17.189  0.00  0.00    +0.000 C 
BRANCH  27  28
ATOM     28  O   UNL     1       5.509   7.741  17.177  0.00  0.00    +0.000 OA
ATOM     29  H   UNL     1       5.759   7.941  18.102  0.00  0.00    +0.000 HD
ENDBRANCH  27  28
ENDBRANCH   3  27
TORSDOF 6
ENDMDL
