MODEL 1
REMARK VINA RESULT:      -7.3      0.000      0.000
REMARK  Name = 
REMARK  4 active torsions:
REMARK  status: ('A' for Active; 'I' for Inactive)
REMARK    1  A    between atoms: C_1  and  C_2
REMARK    2  A    between atoms: C_2  and  O_3
REMARK    3  A    between atoms: O_3  and  C_4
REMARK    4  A    between atoms: C_7  and  C_8
REMARK                            x       y       z     vdW  Elec       q    Type
REMARK                         _______ _______ _______ _____ _____    ______ ____
ROOT
ATOM      1  C   UNL     1       5.214   4.081  16.974  0.00  0.00    +0.000 C 
ATOM      2  O   UNL     1       5.433   3.507  15.909  0.00  0.00    +0.000 OA
ATOM      3  N   UNL     1       4.127   3.751  17.815  0.00  0.00    +0.000 N 
ATOM      4  C   UNL     1       3.305   2.628  17.342  0.00  0.00    +0.000 C 
ATOM      5  C   UNL     1       1.967   2.444  18.056  0.00  0.00    +0.000 C 
ATOM      6  N   UNL     1       2.018   2.864  19.436  0.00  0.00    +0.000 N 
ATOM      7  C   UNL     1       1.039   2.733  20.374  0.00  0.00    +0.000 A 
ATOM      8  N   UNL     1       1.378   3.327  21.495  0.00  0.00    +0.000 NA
ATOM      9  C   UNL     1       2.620   3.859  21.265  0.00  0.00    +0.000 A 
ATOM     10  C   UNL     1       3.044   3.567  19.987  0.00  0.00    +0.000 A 
ATOM     11  C   UNL     1       4.290   3.884  19.265  0.00  0.00    +0.000 C 
ENDROOT
BRANCH   1  15
ATOM     12  C   UNL     1       7.875   7.158  18.319  0.00  0.00    +0.000 A 
ATOM     13  C   UNL     1       6.938   7.431  17.321  0.00  0.00    +0.000 A 
ATOM     14  C   UNL     1       6.098   6.426  16.841  0.00  0.00    +0.000 A 
ATOM     15  C   UNL     1       6.162   5.146  17.398  0.00  0.00    +0.000 A 
ATOM     16  C   UNL     1       7.143   4.851  18.352  0.00  0.00    +0.000 A 
ATOM     17  C   UNL     1       8.005   5.857  18.809  0.00  0.00    +0.000 A 
BRANCH  12  18
ATOM     18  O   UNL     1       8.610   8.239  18.715  0.00  0.00    +0.000 OA
BRANCH  18  20
ATOM     19  C   UNL     1       9.222  10.533  18.706  0.00  0.00    +0.000 C 
ATOM     20  C   UNL     1       8.358   9.472  18.044  0.00  0.00    +0.000 C 
ENDBRANCH  18  20
ENDBRANCH  12  18
ENDBRANCH   1  15
TORSDOF 3
ENDMDL
MODEL 2
REMARK VINA RESULT:      -7.3      0.291      1.118
REMARK  Name = 
REMARK  4 active torsions:
REMARK  status: ('A' for Active; 'I' for Inactive)
REMARK    1  A    between atoms: C_1  and  C_2
REMARK    2  A    between atoms: C_2  and  O_3
REMARK    3  A    between atoms: O_3  and  C_4
REMARK    4  A    between atoms: C_7  and  C_8
REMARK                            x       y       z     vdW  Elec       q    Type
REMARK                         _______ _______ _______ _____ _____    ______ ____
ROOT
ATOM      1  C   UNL     1       5.416   4.203  17.066  0.00  0.00    +0.000 C 
ATOM      2  O   UNL     1       5.771   3.608  16.051  0.00  0.00    +0.000 OA
ATOM      3  N   UNL     1       4.277   3.830  17.816  0.00  0.00    +0.000 N 
ATOM      4  C   UNL     1       3.577   2.638  17.316  0.00  0.00    +0.000 C 
ATOM      5  C   UNL     1       2.192   2.390  17.910  0.00  0.00    +0.000 C 
ATOM      6  N   UNL     1       2.084   2.860  19.270  0.00  0.00    +0.000 N 
ATOM      7  C   UNL     1       1.031   2.697  20.118  0.00  0.00    +0.000 A 
ATOM      8  N   UNL     1       1.223   3.351  21.241  0.00  0.00    +0.000 NA
ATOM      9  C   UNL     1       2.445   3.958  21.105  0.00  0.00    +0.000 A 
ATOM     10  C   UNL     1       3.007   3.650  19.885  0.00  0.00    +0.000 A 
ATOM     11  C   UNL     1       4.293   4.024  19.269  0.00  0.00    +0.000 C 
ENDROOT
BRANCH   1  15
ATOM     12  C   UNL     1       7.884   7.487  18.283  0.00  0.00    +0.000 A 
ATOM     13  C   UNL     1       8.059   6.229  18.863  0.00  0.00    +0.000 A 
ATOM     14  C   UNL     1       7.231   5.164  18.510  0.00  0.00    +0.000 A 
ATOM     15  C   UNL     1       6.249   5.343  17.532  0.00  0.00    +0.000 A 
ATOM     16  C   UNL     1       6.028   6.618  16.995  0.00  0.00    +0.000 A 
ATOM     17  C   UNL     1       6.842   7.693  17.376  0.00  0.00    +0.000 A 
BRANCH  12  18
ATOM     18  O   UNL     1       8.781   8.430  18.698  0.00  0.00    +0.000 OA
BRANCH  18  20
ATOM     19  C   UNL     1       9.456  10.679  19.046  0.00  0.00    +0.000 C 
ATOM     20  C   UNL     1       8.611   9.751  18.189  0.00  0.00    +0.000 C 
ENDBRANCH  18  20
ENDBRANCH  12  18
ENDBRANCH   1  15
TORSDOF 3
ENDMDL
MODEL 3
REMARK VINA RESULT:      -6.4      0.929      1.396
REMARK  Name = 
REMARK  4 active torsions:
REMARK  status: ('A' for Active; 'I' for Inactive)
REMARK    1  A    between atoms: C_1  and  C_2
REMARK    2  A    between atoms: C_2  and  O_3
REMARK    3  A    between atoms: O_3  and  C_4
REMARK    4  A    between atoms: C_7  and  C_8
REMARK                            x       y       z     vdW  Elec       q    Type
REMARK                         _______ _______ _______ _____ _____    ______ ____
ROOT
ATOM      1  C   UNL     1       4.308   3.966  16.831  0.00  0.00    +0.000 C 
ATOM      2  O   UNL     1       4.313   3.369  15.757  0.00  0.00    +0.000 OA
ATOM      3  N   UNL     1       3.463   3.608  17.906  0.00  0.00    +0.000 N 
ATOM      4  C   UNL     1       2.623   2.427  17.658  0.00  0.00    +0.000 C 
ATOM      5  C   UNL     1       1.496   2.196  18.663  0.00  0.00    +0.000 C 
ATOM      6  N   UNL     1       1.834   2.665  19.985  0.00  0.00    +0.000 N 
ATOM      7  C   UNL     1       1.104   2.514  21.125  0.00  0.00    +0.000 A 
ATOM      8  N   UNL     1       1.653   3.164  22.126  0.00  0.00    +0.000 NA
ATOM      9  C   UNL     1       2.776   3.753  21.607  0.00  0.00    +0.000 A 
ATOM     10  C   UNL     1       2.915   3.441  20.272  0.00  0.00    +0.000 A 
ATOM     11  C   UNL     1       3.943   3.798  19.278  0.00  0.00    +0.000 C 
ENDROOT
BRANCH   1  15
ATOM     12  C   UNL     1       7.043   7.245  17.193  0.00  0.00    +0.000 A 
ATOM     13  C   UNL     1       7.509   5.932  17.285  0.00  0.00    +0.000 A 
ATOM     14  C   UNL     1       6.623   4.857  17.217  0.00  0.00    +0.000 A 
ATOM     15  C   UNL     1       5.262   5.094  17.005  0.00  0.00    +0.000 A 
ATOM     16  C   UNL     1       4.782   6.409  16.976  0.00  0.00    +0.000 A 
ATOM     17  C   UNL     1       5.673   7.486  17.076  0.00  0.00    +0.000 A 
BRANCH  12  18
ATOM     18  O   UNL     1       8.021   8.197  17.246  0.00  0.00    +0.000 OA
BRANCH  18  20
ATOM     19  C   UNL     1       8.881  10.085  18.401  0.00  0.00    +0.000 C 
ATOM     20  C   UNL     1       8.416   8.644  18.541  0.00  0.00    +0.000 C 
ENDBRANCH  18  20
ENDBRANCH  12  18
ENDBRANCH   1  15
TORSDOF 3
ENDMDL
MODEL 4
REMARK VINA RESULT:      -6.4      7.317      8.588
REMARK  Name = 
REMARK  4 active torsions:
REMARK  status: ('A' for Active; 'I' for Inactive)
REMARK    1  A    between atoms: C_1  and  C_2
REMARK    2  A    between atoms: C_2  and  O_3
REMARK    3  A    between atoms: O_3  and  C_4
REMARK    4  A    between atoms: C_7  and  C_8
REMARK                            x       y       z     vdW  Elec       q    Type
REMARK                         _______ _______ _______ _____ _____    ______ ____
ROOT
ATOM      1  C   UNL     1       0.440  10.400  19.950  0.00  0.00    +0.000 C 
ATOM      2  O   UNL     1       0.876  11.121  20.844  0.00  0.00    +0.000 OA
ATOM      3  N   UNL     1      -0.765  10.671  19.262  0.00  0.00    +0.000 N 
ATOM      4  C   UNL     1      -1.433  11.917  19.665  0.00  0.00    +0.000 C 
ATOM      5  C   UNL     1      -2.869  12.085  19.170  0.00  0.00    +0.000 C 
ATOM      6  N   UNL     1      -3.090  11.442  17.896  0.00  0.00    +0.000 N 
ATOM      7  C   UNL     1      -4.215  11.493  17.131  0.00  0.00    +0.000 A 
ATOM      8  N   UNL     1      -4.114  10.700  16.090  0.00  0.00    +0.000 NA
ATOM      9  C   UNL     1      -2.877  10.117  16.193  0.00  0.00    +0.000 A 
ATOM     10  C   UNL     1      -2.215  10.581  17.309  0.00  0.00    +0.000 A 
ATOM     11  C   UNL     1      -0.874  10.291  17.851  0.00  0.00    +0.000 C 
ENDROOT
BRANCH   1  15
ATOM     12  C   UNL     1       2.649   6.931  18.748  0.00  0.00    +0.000 A 
ATOM     13  C   UNL     1       2.113   7.007  20.035  0.00  0.00    +0.000 A 
ATOM     14  C   UNL     1       1.433   8.150  20.454  0.00  0.00    +0.000 A 
ATOM     15  C   UNL     1       1.243   9.210  19.562  0.00  0.00    +0.000 A 
ATOM     16  C   UNL     1       1.834   9.164  18.293  0.00  0.00    +0.000 A 
ATOM     17  C   UNL     1       2.544   8.025  17.888  0.00  0.00    +0.000 A 
BRANCH  12  18
ATOM     18  O   UNL     1       3.263   5.745  18.461  0.00  0.00    +0.000 OA
BRANCH  18  20
ATOM     19  C   UNL     1       1.704   4.115  17.720  0.00  0.00    +0.000 C 
ATOM     20  C   UNL     1       2.593   4.555  18.871  0.00  0.00    +0.000 C 
ENDBRANCH  18  20
ENDBRANCH  12  18
ENDBRANCH   1  15
TORSDOF 3
ENDMDL
MODEL 5
REMARK VINA RESULT:      -6.4      4.873      6.541
REMARK  Name = 
REMARK  4 active torsions:
REMARK  status: ('A' for Active; 'I' for Inactive)
REMARK    1  A    between atoms: C_1  and  C_2
REMARK    2  A    between atoms: C_2  and  O_3
REMARK    3  A    between atoms: O_3  and  C_4
REMARK    4  A    between atoms: C_7  and  C_8
REMARK                            x       y       z     vdW  Elec       q    Type
REMARK                         _______ _______ _______ _____ _____    ______ ____
ROOT
ATOM      1  C   UNL     1       2.711   6.174  19.745  0.00  0.00    +0.000 C 
ATOM      2  O   UNL     1       2.158   5.449  20.569  0.00  0.00    +0.000 OA
ATOM      3  N   UNL     1       3.869   5.784  19.033  0.00  0.00    +0.000 N 
ATOM      4  C   UNL     1       4.332   4.418  19.317  0.00  0.00    +0.000 C 
ATOM      5  C   UNL     1       5.731   4.076  18.807  0.00  0.00    +0.000 C 
ATOM      6  N   UNL     1       6.065   4.792  17.599  0.00  0.00    +0.000 N 
ATOM      7  C   UNL     1       7.180   4.638  16.831  0.00  0.00    +0.000 A 
ATOM      8  N   UNL     1       7.216   5.530  15.868  0.00  0.00    +0.000 NA
ATOM      9  C   UNL     1       6.082   6.285  16.027  0.00  0.00    +0.000 A 
ATOM     10  C   UNL     1       5.341   5.829  17.095  0.00  0.00    +0.000 A 
ATOM     11  C   UNL     1       4.055   6.271  17.664  0.00  0.00    +0.000 C 
ENDROOT
BRANCH   1  15
ATOM     12  C   UNL     1       0.840   9.949  18.966  0.00  0.00    +0.000 A 
ATOM     13  C   UNL     1       1.520   9.282  17.945  0.00  0.00    +0.000 A 
ATOM     14  C   UNL     1       2.174   8.076  18.198  0.00  0.00    +0.000 A 
ATOM     15  C   UNL     1       2.106   7.504  19.471  0.00  0.00    +0.000 A 
ATOM     16  C   UNL     1       1.481   8.201  20.513  0.00  0.00    +0.000 A 
ATOM     17  C   UNL     1       0.852   9.428  20.261  0.00  0.00    +0.000 A 
BRANCH  12  18
ATOM     18  O   UNL     1       0.223  11.102  18.573  0.00  0.00    +0.000 OA
BRANCH  18  20
ATOM     19  C   UNL     1      -1.949  10.399  17.918  0.00  0.00    +0.000 C 
ATOM     20  C   UNL     1      -1.157  11.241  18.906  0.00  0.00    +0.000 C 
ENDBRANCH  18  20
ENDBRANCH  12  18
ENDBRANCH   1  15
TORSDOF 3
ENDMDL
MODEL 6
REMARK VINA RESULT:      -6.3      3.511      5.215
REMARK  Name = 
REMARK  4 active torsions:
REMARK  status: ('A' for Active; 'I' for Inactive)
REMARK    1  A    between atoms: C_1  and  C_2
REMARK    2  A    between atoms: C_2  and  O_3
REMARK    3  A    between atoms: O_3  and  C_4
REMARK    4  A    between atoms: C_7  and  C_8
REMARK                            x       y       z     vdW  Elec       q    Type
REMARK                         _______ _______ _______ _____ _____    ______ ____
ROOT
ATOM      1  C   UNL     1       4.865   4.468  18.294  0.00  0.00    +0.000 C 
ATOM      2  O   UNL     1       5.243   3.663  19.143  0.00  0.00    +0.000 OA
ATOM      3  N   UNL     1       3.922   5.486  18.567  0.00  0.00    +0.000 N 
ATOM      4  C   UNL     1       3.468   5.542  19.964  0.00  0.00    +0.000 C 
ATOM      5  C   UNL     1       2.243   6.416  20.224  0.00  0.00    +0.000 C 
ATOM      6  N   UNL     1       2.167   7.539  19.320  0.00  0.00    +0.000 N 
ATOM      7  C   UNL     1       1.269   8.563  19.351  0.00  0.00    +0.000 A 
ATOM      8  N   UNL     1       1.418   9.351  18.311  0.00  0.00    +0.000 NA
ATOM      9  C   UNL     1       2.448   8.810  17.587  0.00  0.00    +0.000 A 
ATOM     10  C   UNL     1       2.940   7.684  18.210  0.00  0.00    +0.000 A 
ATOM     11  C   UNL     1       4.038   6.764  17.860  0.00  0.00    +0.000 C 
ENDROOT
BRANCH   1  15
ATOM     12  C   UNL     1       6.562   4.338  14.362  0.00  0.00    +0.000 A 
ATOM     13  C   UNL     1       5.259   3.886  14.576  0.00  0.00    +0.000 A 
ATOM     14  C   UNL     1       4.712   3.878  15.859  0.00  0.00    +0.000 A 
ATOM     15  C   UNL     1       5.456   4.374  16.933  0.00  0.00    +0.000 A 
ATOM     16  C   UNL     1       6.785   4.769  16.734  0.00  0.00    +0.000 A 
ATOM     17  C   UNL     1       7.341   4.745  15.448  0.00  0.00    +0.000 A 
BRANCH  12  18
ATOM     18  O   UNL     1       6.960   4.318  13.056  0.00  0.00    +0.000 OA
BRANCH  18  20
ATOM     19  C   UNL     1       7.048   2.525  11.501  0.00  0.00    +0.000 C 
ATOM     20  C   UNL     1       6.154   3.571  12.147  0.00  0.00    +0.000 C 
ENDBRANCH  18  20
ENDBRANCH  12  18
ENDBRANCH   1  15
TORSDOF 3
ENDMDL
MODEL 7
REMARK VINA RESULT:      -6.3      7.215      8.266
REMARK  Name = 
REMARK  4 active torsions:
REMARK  status: ('A' for Active; 'I' for Inactive)
REMARK    1  A    between atoms: C_1  and  C_2
REMARK    2  A    between atoms: C_2  and  O_3
REMARK    3  A    between atoms: O_3  and  C_4
REMARK    4  A    between atoms: C_7  and  C_8
REMARK                            x       y       z     vdW  Elec       q    Type
REMARK                         _______ _______ _______ _____ _____    ______ ____
ROOT
ATOM      1  C   UNL     1       0.535  10.288  19.924  0.00  0.00    +0.000 C 
ATOM      2  O   UNL     1       0.966  10.995  20.833  0.00  0.00    +0.000 OA
ATOM      3  N   UNL     1      -0.662  10.576  19.228  0.00  0.00    +0.000 N 
ATOM      4  C   UNL     1      -1.326  11.821  19.641  0.00  0.00    +0.000 C 
ATOM      5  C   UNL     1      -2.756  12.004  19.134  0.00  0.00    +0.000 C 
ATOM      6  N   UNL     1      -2.967  11.380  17.850  0.00  0.00    +0.000 N 
ATOM      7  C   UNL     1      -4.085  11.448  17.074  0.00  0.00    +0.000 A 
ATOM      8  N   UNL     1      -3.978  10.668  16.023  0.00  0.00    +0.000 NA
ATOM      9  C   UNL     1      -2.746  10.076  16.131  0.00  0.00    +0.000 A 
ATOM     10  C   UNL     1      -2.092  10.521  17.259  0.00  0.00    +0.000 A 
ATOM     11  C   UNL     1      -0.759  10.216  17.811  0.00  0.00    +0.000 C 
ENDROOT
BRANCH   1  15
ATOM     12  C   UNL     1       2.737   6.824  18.696  0.00  0.00    +0.000 A 
ATOM     13  C   UNL     1       2.164   6.873  19.967  0.00  0.00    +0.000 A 
ATOM     14  C   UNL     1       1.485   8.014  20.397  0.00  0.00    +0.000 A 
ATOM     15  C   UNL     1       1.335   9.099  19.529  0.00  0.00    +0.000 A 
ATOM     16  C   UNL     1       1.963   9.079  18.277  0.00  0.00    +0.000 A 
ATOM     17  C   UNL     1       2.670   7.943  17.863  0.00  0.00    +0.000 A 
BRANCH  12  18
ATOM     18  O   UNL     1       3.345   5.639  18.396  0.00  0.00    +0.000 OA
BRANCH  18  20
ATOM     19  C   UNL     1       5.571   5.292  19.144  0.00  0.00    +0.000 C 
ATOM     20  C   UNL     1       4.104   5.021  19.433  0.00  0.00    +0.000 C 
ENDBRANCH  18  20
ENDBRANCH  12  18
ENDBRANCH   1  15
TORSDOF 3
ENDMDL
MODEL 8
REMARK VINA RESULT:      -6.3      4.917      5.957
REMARK  Name = 
REMARK  4 active torsions:
REMARK  status: ('A' for Active; 'I' for Inactive)
REMARK    1  A    between atoms: C_1  and  C_2
REMARK    2  A    between atoms: C_2  and  O_3
REMARK    3  A    between atoms: O_3  and  C_4
REMARK    4  A    between atoms: C_7  and  C_8
REMARK                            x       y       z     vdW  Elec       q    Type
REMARK                         _______ _______ _______ _____ _____    ______ ____
ROOT
ATOM      1  C   UNL     1       3.073   7.412  17.974  0.00  0.00    +0.000 C 
ATOM      2  O   UNL     1       4.033   7.972  17.449  0.00  0.00    +0.000 OA
ATOM      3  N   UNL     1       2.924   6.006  17.999  0.00  0.00    +0.000 N 
ATOM      4  C   UNL     1       4.037   5.261  17.394  0.00  0.00    +0.000 C 
ATOM      5  C   UNL     1       3.774   3.778  17.134  0.00  0.00    +0.000 C 
ATOM      6  N   UNL     1       2.866   3.204  18.098  0.00  0.00    +0.000 N 
ATOM      7  C   UNL     1       2.510   1.895  18.217  0.00  0.00    +0.000 A 
ATOM      8  N   UNL     1       1.576   1.741  19.127  0.00  0.00    +0.000 NA
ATOM      9  C   UNL     1       1.323   3.000  19.607  0.00  0.00    +0.000 A 
ATOM     10  C   UNL     1       2.131   3.927  18.987  0.00  0.00    +0.000 A 
ATOM     11  C   UNL     1       2.265   5.386  19.153  0.00  0.00    +0.000 C 
ENDROOT
BRANCH   1  15
ATOM     12  C   UNL     1       0.201   9.972  19.859  0.00  0.00    +0.000 A 
ATOM     13  C   UNL     1       0.918   9.047  20.619  0.00  0.00    +0.000 A 
ATOM     14  C   UNL     1       1.822   8.176  20.011  0.00  0.00    +0.000 A 
ATOM     15  C   UNL     1       2.047   8.261  18.634  0.00  0.00    +0.000 A 
ATOM     16  C   UNL     1       1.283   9.142  17.859  0.00  0.00    +0.000 A 
ATOM     17  C   UNL     1       0.354   9.995  18.471  0.00  0.00    +0.000 A 
BRANCH  12  18
ATOM     18  O   UNL     1      -0.626  10.781  20.585  0.00  0.00    +0.000 OA
BRANCH  18  20
ATOM     19  C   UNL     1      -1.151  11.090  22.880  0.00  0.00    +0.000 C 
ATOM     20  C   UNL     1      -0.104  11.312  21.801  0.00  0.00    +0.000 C 
ENDBRANCH  18  20
ENDBRANCH  12  18
ENDBRANCH   1  15
TORSDOF 3
ENDMDL
MODEL 9
REMARK VINA RESULT:      -6.2      7.138      8.309
REMARK  Name = 
REMARK  4 active torsions:
REMARK  status: ('A' for Active; 'I' for Inactive)
REMARK    1  A    between atoms: C_1  and  C_2
REMARK    2  A    between atoms: C_2  and  O_3
REMARK    3  A    between atoms: O_3  and  C_4
REMARK    4  A    between atoms: C_7  and  C_8
REMARK                            x       y       z     vdW  Elec       q    Type
REMARK                         _______ _______ _______ _____ _____    ______ ____
ROOT
ATOM      1  C   UNL     1       0.630  10.157  19.919  0.00  0.00    +0.000 C 
ATOM      2  O   UNL     1       1.100  10.821  20.840  0.00  0.00    +0.000 OA
ATOM      3  N   UNL     1      -0.578  10.494  19.266  0.00  0.00    +0.000 N 
ATOM      4  C   UNL     1      -1.203  11.738  19.740  0.00  0.00    +0.000 C 
ATOM      5  C   UNL     1      -2.641  11.969  19.278  0.00  0.00    +0.000 C 
ATOM      6  N   UNL     1      -2.900  11.396  17.979  0.00  0.00    +0.000 N 
ATOM      7  C   UNL     1      -4.036  11.516  17.237  0.00  0.00    +0.000 A 
ATOM      8  N   UNL     1      -3.974  10.772  16.156  0.00  0.00    +0.000 NA
ATOM      9  C   UNL     1      -2.753  10.151  16.211  0.00  0.00    +0.000 A 
ATOM     10  C   UNL     1      -2.060  10.541  17.335  0.00  0.00    +0.000 A 
ATOM     11  C   UNL     1      -0.720  10.187  17.840  0.00  0.00    +0.000 C 
ENDROOT
BRANCH   1  15
ATOM     12  C   UNL     1       2.931   6.758  18.688  0.00  0.00    +0.000 A 
ATOM     13  C   UNL     1       2.759   7.838  17.820  0.00  0.00    +0.000 A 
ATOM     14  C   UNL     1       1.974   8.929  18.190  0.00  0.00    +0.000 A 
ATOM     15  C   UNL     1       1.392   8.965  19.461  0.00  0.00    +0.000 A 
ATOM     16  C   UNL     1       1.508   7.857  20.309  0.00  0.00    +0.000 A 
ATOM     17  C   UNL     1       2.273   6.749  19.920  0.00  0.00    +0.000 A 
BRANCH  12  18
ATOM     18  O   UNL     1       3.746   5.773  18.210  0.00  0.00    +0.000 OA
BRANCH  18  20
ATOM     19  C   UNL     1       2.678   3.779  17.489  0.00  0.00    +0.000 C 
ATOM     20  C   UNL     1       3.454   4.438  18.617  0.00  0.00    +0.000 C 
ENDBRANCH  18  20
ENDBRANCH  12  18
ENDBRANCH   1  15
TORSDOF 3
ENDMDL
