MODEL 1
REMARK VINA RESULT:      -7.6      0.000      0.000
REMARK  Name = 
REMARK  0 active torsions:
REMARK  status: ('A' for Active; 'I' for Inactive)
REMARK                            x       y       z     vdW  Elec       q    Type
REMARK                         _______ _______ _______ _____ _____    ______ ____
ROOT
ATOM      1  O   UNL     1       1.738   2.015  20.685  0.00  0.00    +0.000 OA
ATOM      2  C   UNL     1       2.016   3.120  20.242  0.00  0.00    +0.000 C 
ATOM      3  C   UNL     1       1.387   4.325  20.803  0.00  0.00    +0.000 C 
ATOM      4  C   UNL     1       1.652   5.532  20.300  0.00  0.00    +0.000 C 
ATOM      5  C   UNL     1       2.562   5.730  19.169  0.00  0.00    +0.000 A 
ATOM      6  C   UNL     1       2.766   7.037  18.711  0.00  0.00    +0.000 A 
ATOM      7  C   UNL     1       3.628   7.283  17.646  0.00  0.00    +0.000 A 
ATOM      8  C   UNL     1       4.299   6.232  17.010  0.00  0.00    +0.000 A 
ATOM      9  C   UNL     1       4.079   4.899  17.428  0.00  0.00    +0.000 A 
ATOM     10  C   UNL     1       3.228   4.660  18.541  0.00  0.00    +0.000 A 
ATOM     11  C   UNL     1       3.019   3.294  19.110  0.00  0.00    +0.000 C 
ATOM     12  O   UNL     1       3.637   2.310  18.730  0.00  0.00    +0.000 OA
ATOM     13  C   UNL     1       4.789   3.765  16.715  0.00  0.00    +0.000 C 
ATOM     14  C   UNL     1       5.386   4.143  15.362  0.00  0.00    +0.000 C 
ATOM     15  C   UNL     1       6.159   5.444  15.473  0.00  0.00    +0.000 C 
ATOM     16  C   UNL     1       5.207   6.572  15.848  0.00  0.00    +0.000 C 
ENDROOT
TORSDOF 0
ENDMDL
MODEL 2
REMARK VINA RESULT:      -7.4      1.346      4.647
REMARK  Name = 
REMARK  0 active torsions:
REMARK  status: ('A' for Active; 'I' for Inactive)
REMARK                            x       y       z     vdW  Elec       q    Type
REMARK                         _______ _______ _______ _____ _____    ______ ____
ROOT
ATOM      1  O   UNL     1       6.235   3.632  15.128  0.00  0.00    +0.000 OA
ATOM      2  C   UNL     1       5.543   4.396  15.788  0.00  0.00    +0.000 C 
ATOM      3  C   UNL     1       5.566   5.841  15.515  0.00  0.00    +0.000 C 
ATOM      4  C   UNL     1       4.846   6.687  16.254  0.00  0.00    +0.000 C 
ATOM      5  C   UNL     1       4.012   6.242  17.372  0.00  0.00    +0.000 A 
ATOM      6  C   UNL     1       3.304   7.211  18.091  0.00  0.00    +0.000 A 
ATOM      7  C   UNL     1       2.487   6.841  19.157  0.00  0.00    +0.000 A 
ATOM      8  C   UNL     1       2.367   5.499  19.534  0.00  0.00    +0.000 A 
ATOM      9  C   UNL     1       3.104   4.505  18.849  0.00  0.00    +0.000 A 
ATOM     10  C   UNL     1       3.904   4.886  17.738  0.00  0.00    +0.000 A 
ATOM     11  C   UNL     1       4.635   3.888  16.899  0.00  0.00    +0.000 C 
ATOM     12  O   UNL     1       4.518   2.680  17.042  0.00  0.00    +0.000 OA
ATOM     13  C   UNL     1       2.988   3.056  19.283  0.00  0.00    +0.000 C 
ATOM     14  C   UNL     1       2.374   2.856  20.667  0.00  0.00    +0.000 C 
ATOM     15  C   UNL     1       1.117   3.695  20.810  0.00  0.00    +0.000 C 
ATOM     16  C   UNL     1       1.476   5.172  20.713  0.00  0.00    +0.000 C 
ENDROOT
TORSDOF 0
ENDMDL
MODEL 3
REMARK VINA RESULT:      -7.2      1.959      4.663
REMARK  Name = 
REMARK  0 active torsions:
REMARK  status: ('A' for Active; 'I' for Inactive)
REMARK                            x       y       z     vdW  Elec       q    Type
REMARK                         _______ _______ _______ _____ _____    ______ ____
ROOT
ATOM      1  O   UNL     1       7.488   4.776  15.489  0.00  0.00    +0.000 OA
ATOM      2  C   UNL     1       6.522   5.190  16.114  0.00  0.00    +0.000 C 
ATOM      3  C   UNL     1       6.395   6.623  16.421  0.00  0.00    +0.000 C 
ATOM      4  C   UNL     1       5.366   7.080  17.137  0.00  0.00    +0.000 C 
ATOM      5  C   UNL     1       4.321   6.200  17.664  0.00  0.00    +0.000 A 
ATOM      6  C   UNL     1       3.289   6.778  18.411  0.00  0.00    +0.000 A 
ATOM      7  C   UNL     1       2.265   5.988  18.926  0.00  0.00    +0.000 A 
ATOM      8  C   UNL     1       2.252   4.604  18.715  0.00  0.00    +0.000 A 
ATOM      9  C   UNL     1       3.305   3.991  17.998  0.00  0.00    +0.000 A 
ATOM     10  C   UNL     1       4.325   4.809  17.442  0.00  0.00    +0.000 A 
ATOM     11  C   UNL     1       5.419   4.254  16.587  0.00  0.00    +0.000 C 
ATOM     12  O   UNL     1       5.457   3.087  16.224  0.00  0.00    +0.000 OA
ATOM     13  C   UNL     1       3.296   2.487  17.797  0.00  0.00    +0.000 C 
ATOM     14  C   UNL     1       2.343   1.731  18.719  0.00  0.00    +0.000 C 
ATOM     15  C   UNL     1       0.983   2.406  18.736  0.00  0.00    +0.000 C 
ATOM     16  C   UNL     1       1.117   3.807  19.320  0.00  0.00    +0.000 C 
ENDROOT
TORSDOF 0
ENDMDL
MODEL 4
REMARK VINA RESULT:      -7.1      1.173      1.177
REMARK  Name = 
REMARK  0 active torsions:
REMARK  status: ('A' for Active; 'I' for Inactive)
REMARK                            x       y       z     vdW  Elec       q    Type
REMARK                         _______ _______ _______ _____ _____    ______ ____
ROOT
ATOM      1  O   UNL     1       2.561   2.099  21.438  0.00  0.00    +0.000 OA
ATOM      2  C   UNL     1       2.606   3.149  20.811  0.00  0.00    +0.000 C 
ATOM      3  C   UNL     1       1.480   4.093  20.864  0.00  0.00    +0.000 C 
ATOM      4  C   UNL     1       1.500   5.221  20.152  0.00  0.00    +0.000 C 
ATOM      5  C   UNL     1       2.619   5.581  19.279  0.00  0.00    +0.000 A 
ATOM      6  C   UNL     1       2.538   6.783  18.567  0.00  0.00    +0.000 A 
ATOM      7  C   UNL     1       3.579   7.179  17.732  0.00  0.00    +0.000 A 
ATOM      8  C   UNL     1       4.719   6.380  17.580  0.00  0.00    +0.000 A 
ATOM      9  C   UNL     1       4.807   5.141  18.257  0.00  0.00    +0.000 A 
ATOM     10  C   UNL     1       3.758   4.764  19.139  0.00  0.00    +0.000 A 
ATOM     11  C   UNL     1       3.817   3.521  19.967  0.00  0.00    +0.000 C 
ATOM     12  O   UNL     1       4.803   2.802  20.023  0.00  0.00    +0.000 OA
ATOM     13  C   UNL     1       6.033   4.270  18.065  0.00  0.00    +0.000 C 
ATOM     14  C   UNL     1       6.892   4.642  16.859  0.00  0.00    +0.000 C 
ATOM     15  C   UNL     1       7.130   6.140  16.826  0.00  0.00    +0.000 C 
ATOM     16  C   UNL     1       5.802   6.863  16.641  0.00  0.00    +0.000 C 
ENDROOT
TORSDOF 0
ENDMDL
MODEL 5
REMARK VINA RESULT:      -7.0      2.070      5.476
REMARK  Name = 
REMARK  0 active torsions:
REMARK  status: ('A' for Active; 'I' for Inactive)
REMARK                            x       y       z     vdW  Elec       q    Type
REMARK                         _______ _______ _______ _____ _____    ______ ____
ROOT
ATOM      1  O   UNL     1       5.457   7.179  15.787  0.00  0.00    +0.000 OA
ATOM      2  C   UNL     1       5.145   6.060  16.172  0.00  0.00    +0.000 C 
ATOM      3  C   UNL     1       5.633   4.868  15.461  0.00  0.00    +0.000 C 
ATOM      4  C   UNL     1       5.266   3.645  15.847  0.00  0.00    +0.000 C 
ATOM      5  C   UNL     1       4.362   3.414  16.975  0.00  0.00    +0.000 A 
ATOM      6  C   UNL     1       4.031   2.092  17.293  0.00  0.00    +0.000 A 
ATOM      7  C   UNL     1       3.184   1.815  18.363  0.00  0.00    +0.000 A 
ATOM      8  C   UNL     1       2.641   2.850  19.133  0.00  0.00    +0.000 A 
ATOM      9  C   UNL     1       2.927   4.197  18.807  0.00  0.00    +0.000 A 
ATOM     10  C   UNL     1       3.824   4.468  17.738  0.00  0.00    +0.000 A 
ATOM     11  C   UNL     1       4.258   5.856  17.391  0.00  0.00    +0.000 C 
ATOM     12  O   UNL     1       3.958   6.837  18.057  0.00  0.00    +0.000 OA
ATOM     13  C   UNL     1       2.313   5.312  19.630  0.00  0.00    +0.000 C 
ATOM     14  C   UNL     1       1.137   4.881  20.503  0.00  0.00    +0.000 C 
ATOM     15  C   UNL     1       1.481   3.611  21.258  0.00  0.00    +0.000 C 
ATOM     16  C   UNL     1       1.714   2.476  20.269  0.00  0.00    +0.000 C 
ENDROOT
TORSDOF 0
ENDMDL
MODEL 6
REMARK VINA RESULT:      -7.0      1.810      4.739
REMARK  Name = 
REMARK  0 active torsions:
REMARK  status: ('A' for Active; 'I' for Inactive)
REMARK                            x       y       z     vdW  Elec       q    Type
REMARK                         _______ _______ _______ _____ _____    ______ ____
ROOT
ATOM      1  O   UNL     1       7.795   4.635  17.199  0.00  0.00    +0.000 OA
ATOM      2  C   UNL     1       6.699   5.140  17.404  0.00  0.00    +0.000 C 
ATOM      3  C   UNL     1       6.362   6.445  16.817  0.00  0.00    +0.000 C 
ATOM      4  C   UNL     1       5.185   7.023  17.067  0.00  0.00    +0.000 C 
ATOM      5  C   UNL     1       4.177   6.412  17.936  0.00  0.00    +0.000 A 
ATOM      6  C   UNL     1       2.979   7.106  18.142  0.00  0.00    +0.000 A 
ATOM      7  C   UNL     1       1.983   6.566  18.950  0.00  0.00    +0.000 A 
ATOM      8  C   UNL     1       2.162   5.328  19.578  0.00  0.00    +0.000 A 
ATOM      9  C   UNL     1       3.381   4.627  19.419  0.00  0.00    +0.000 A 
ATOM     10  C   UNL     1       4.376   5.166  18.561  0.00  0.00    +0.000 A 
ATOM     11  C   UNL     1       5.650   4.443  18.259  0.00  0.00    +0.000 C 
ATOM     12  O   UNL     1       5.879   3.305  18.641  0.00  0.00    +0.000 OA
ATOM     13  C   UNL     1       3.577   3.299  20.125  0.00  0.00    +0.000 C 
ATOM     14  C   UNL     1       2.580   3.026  21.250  0.00  0.00    +0.000 C 
ATOM     15  C   UNL     1       1.168   3.328  20.784  0.00  0.00    +0.000 C 
ATOM     16  C   UNL     1       1.045   4.811  20.457  0.00  0.00    +0.000 C 
ENDROOT
TORSDOF 0
ENDMDL
MODEL 7
REMARK VINA RESULT:      -6.9      1.846      2.970
REMARK  Name = 
REMARK  0 active torsions:
REMARK  status: ('A' for Active; 'I' for Inactive)
REMARK                            x       y       z     vdW  Elec       q    Type
REMARK                         _______ _______ _______ _____ _____    ______ ____
ROOT
ATOM      1  O   UNL     1       1.174   6.751  21.142  0.00  0.00    +0.000 OA
ATOM      2  C   UNL     1       1.583   5.844  20.431  0.00  0.00    +0.000 C 
ATOM      3  C   UNL     1       1.150   4.459  20.673  0.00  0.00    +0.000 C 
ATOM      4  C   UNL     1       1.621   3.456  19.929  0.00  0.00    +0.000 C 
ATOM      5  C   UNL     1       2.590   3.664  18.851  0.00  0.00    +0.000 A 
ATOM      6  C   UNL     1       3.029   2.543  18.137  0.00  0.00    +0.000 A 
ATOM      7  C   UNL     1       3.941   2.685  17.095  0.00  0.00    +0.000 A 
ATOM      8  C   UNL     1       4.444   3.945  16.749  0.00  0.00    +0.000 A 
ATOM      9  C   UNL     1       4.047   5.088  17.482  0.00  0.00    +0.000 A 
ATOM     10  C   UNL     1       3.085   4.939  18.518  0.00  0.00    +0.000 A 
ATOM     11  C   UNL     1       2.538   6.107  19.275  0.00  0.00    +0.000 C 
ATOM     12  O   UNL     1       2.797   7.267  18.992  0.00  0.00    +0.000 OA
ATOM     13  C   UNL     1       4.617   6.445  17.118  0.00  0.00    +0.000 C 
ATOM     14  C   UNL     1       5.860   6.393  16.233  0.00  0.00    +0.000 C 
ATOM     15  C   UNL     1       5.642   5.433  15.078  0.00  0.00    +0.000 C 
ATOM     16  C   UNL     1       5.446   4.022  15.618  0.00  0.00    +0.000 C 
ENDROOT
TORSDOF 0
ENDMDL
MODEL 8
REMARK VINA RESULT:      -6.9      2.301      5.269
REMARK  Name = 
REMARK  0 active torsions:
REMARK  status: ('A' for Active; 'I' for Inactive)
REMARK                            x       y       z     vdW  Elec       q    Type
REMARK                         _______ _______ _______ _____ _____    ______ ____
ROOT
ATOM      1  O   UNL     1       7.860   5.965  17.824  0.00  0.00    +0.000 OA
ATOM      2  C   UNL     1       6.876   5.286  17.564  0.00  0.00    +0.000 C 
ATOM      3  C   UNL     1       6.787   4.568  16.284  0.00  0.00    +0.000 C 
ATOM      4  C   UNL     1       5.701   3.858  15.972  0.00  0.00    +0.000 C 
ATOM      5  C   UNL     1       4.544   3.759  16.864  0.00  0.00    +0.000 A 
ATOM      6  C   UNL     1       3.450   2.996  16.439  0.00  0.00    +0.000 A 
ATOM      7  C   UNL     1       2.328   2.859  17.252  0.00  0.00    +0.000 A 
ATOM      8  C   UNL     1       2.268   3.487  18.502  0.00  0.00    +0.000 A 
ATOM      9  C   UNL     1       3.344   4.297  18.936  0.00  0.00    +0.000 A 
ATOM     10  C   UNL     1       4.501   4.399  18.118  0.00  0.00    +0.000 A 
ATOM     11  C   UNL     1       5.720   5.151  18.546  0.00  0.00    +0.000 C 
ATOM     12  O   UNL     1       5.848   5.640  19.658  0.00  0.00    +0.000 OA
ATOM     13  C   UNL     1       3.259   4.995  20.280  0.00  0.00    +0.000 C 
ATOM     14  C   UNL     1       1.853   5.062  20.871  0.00  0.00    +0.000 C 
ATOM     15  C   UNL     1       1.182   3.703  20.786  0.00  0.00    +0.000 C 
ATOM     16  C   UNL     1       1.011   3.310  19.324  0.00  0.00    +0.000 C 
ENDROOT
TORSDOF 0
ENDMDL
MODEL 9
REMARK VINA RESULT:      -6.9      1.049      1.049
REMARK  Name = 
REMARK  0 active torsions:
REMARK  status: ('A' for Active; 'I' for Inactive)
REMARK                            x       y       z     vdW  Elec       q    Type
REMARK                         _______ _______ _______ _____ _____    ______ ____
ROOT
ATOM      1  O   UNL     1       0.491   1.675  18.945  0.00  0.00    +0.000 OA
ATOM      2  C   UNL     1       1.108   2.730  18.991  0.00  0.00    +0.000 C 
ATOM      3  C   UNL     1       0.716   3.779  19.945  0.00  0.00    +0.000 C 
ATOM      4  C   UNL     1       1.356   4.949  19.976  0.00  0.00    +0.000 C 
ATOM      5  C   UNL     1       2.463   5.264  19.071  0.00  0.00    +0.000 A 
ATOM      6  C   UNL     1       3.062   6.524  19.178  0.00  0.00    +0.000 A 
ATOM      7  C   UNL     1       4.125   6.872  18.350  0.00  0.00    +0.000 A 
ATOM      8  C   UNL     1       4.609   5.974  17.391  0.00  0.00    +0.000 A 
ATOM      9  C   UNL     1       3.994   4.710  17.235  0.00  0.00    +0.000 A 
ATOM     10  C   UNL     1       2.936   4.348  18.111  0.00  0.00    +0.000 A 
ATOM     11  C   UNL     1       2.298   2.996  18.081  0.00  0.00    +0.000 C 
ATOM     12  O   UNL     1       2.705   2.082  17.380  0.00  0.00    +0.000 OA
ATOM     13  C   UNL     1       4.508   3.755  16.174  0.00  0.00    +0.000 C 
ATOM     14  C   UNL     1       5.400   4.402  15.118  0.00  0.00    +0.000 C 
ATOM     15  C   UNL     1       6.444   5.282  15.779  0.00  0.00    +0.000 C 
ATOM     16  C   UNL     1       5.755   6.427  16.513  0.00  0.00    +0.000 C 
ENDROOT
TORSDOF 0
ENDMDL
