MODEL 1
REMARK VINA RESULT:      -8.3      0.000      0.000
REMARK  Name = 
REMARK  9 active torsions:
REMARK  status: ('A' for Active; 'I' for Inactive)
REMARK    1  A    between atoms: C_4  and  C_5
REMARK    2  A    between atoms: C_5  and  C_6
REMARK    3  A    between atoms: C_12  and  C_13
REMARK    4  A    between atoms: C_13  and  C_14
REMARK    5  A    between atoms: C_14  and  N_15
REMARK    6  A    between atoms: C_18  and  C_19
REMARK    7  A    between atoms: C_19  and  N_20
REMARK    8  A    between atoms: N_20  and  C_21
REMARK    9  A    between atoms: C_21  and  C_22
REMARK                            x       y       z     vdW  Elec       q    Type
REMARK                         _______ _______ _______ _____ _____    ______ ____
ROOT
ATOM      1  C   UNL     1       4.165   3.894  17.273  0.00  0.00    +0.000 A 
ATOM      2  C   UNL     1       3.820   2.645  17.802  0.00  0.00    +0.000 A 
ATOM      3  C   UNL     1       2.928   2.529  18.872  0.00  0.00    +0.000 A 
ATOM      4  C   UNL     1       2.401   3.706  19.410  0.00  0.00    +0.000 A 
ATOM      5  N   UNL     1       1.509   3.883  20.443  0.00  0.00    +0.000 N 
ATOM      6  C   UNL     1       1.311   5.215  20.671  0.00  0.00    +0.000 A 
ATOM      7  C   UNL     1       2.067   5.931  19.762  0.00  0.00    +0.000 A 
ATOM      8  C   UNL     1       2.739   4.974  18.937  0.00  0.00    +0.000 A 
ATOM      9  C   UNL     1       3.626   5.063  17.844  0.00  0.00    +0.000 A 
ATOM     10  H   UNL     1       1.083   3.132  20.966  0.00  0.00    +0.000 HD
ENDROOT
BRANCH   1  11
ATOM     11  C   UNL     1       5.099   4.004  16.088  0.00  0.00    +0.000 C 
BRANCH  11  15
ATOM     12  O   UNL     1       8.086   5.247  19.433  0.00  0.00    +0.000 OA
ATOM     13  C   UNL     1       7.561   5.210  18.337  0.00  0.00    +0.000 C 
ATOM     14  N   UNL     1       6.823   4.170  17.855  0.00  0.00    +0.000 N 
ATOM     15  C   UNL     1       6.544   4.335  16.464  0.00  0.00    +0.000 C 
ATOM     16  C   UNL     1       6.879   5.800  16.248  0.00  0.00    +0.000 C 
ATOM     17  O   UNL     1       7.650   6.191  17.394  0.00  0.00    +0.000 OA
ATOM     18  H   UNL     1       6.837   3.282  18.344  0.00  0.00    +0.000 HD
ENDBRANCH  11  15
ENDBRANCH   1  11
BRANCH   7  19
ATOM     19  C   UNL     1       2.179   7.425  19.711  0.00  0.00    +0.000 C 
BRANCH  19  20
ATOM     20  C   UNL     1       1.502   8.118  20.903  0.00  0.00    +0.000 C 
BRANCH  20  21
ATOM     21  N   UNL     1       0.390   9.024  20.530  0.00  0.00    +0.000 NA
ATOM     22  C   UNL     1       0.655   9.805  19.312  0.00  0.00    +0.000 C 
ATOM     23  C   UNL     1       1.429  11.010  19.801  0.00  0.00    +0.000 C 
ATOM     24  C   UNL     1       0.653  11.394  21.055  0.00  0.00    +0.000 C 
ATOM     25  C   UNL     1       0.174  10.035  21.599  0.00  0.00    +0.000 C 
BRANCH  24  26
ATOM     26  C   UNL     1      -0.516  12.332  20.703  0.00  0.00    +0.000 C 
BRANCH  26  27
ATOM     27  N   UNL     1      -1.702  11.557  20.365  0.00  0.00    +0.000 NA
ATOM     28  H   UNL     1      -2.089  11.112  21.197  0.00  0.00    +0.000 HD
BRANCH  27  29
ATOM     29  C   UNL     1      -2.725  12.371  19.730  0.00  0.00    +0.000 C 
BRANCH  29  30
ATOM     30  C   UNL     1      -3.105  11.751  18.411  0.00  0.00    +0.000 A 
ATOM     31  C   UNL     1      -2.127  11.207  17.569  0.00  0.00    +0.000 A 
ATOM     32  C   UNL     1      -2.472  10.722  16.308  0.00  0.00    +0.000 A 
ATOM     33  C   UNL     1      -3.797  10.777  15.878  0.00  0.00    +0.000 A 
ATOM     34  C   UNL     1      -4.780  11.314  16.706  0.00  0.00    +0.000 A 
ATOM     35  C   UNL     1      -4.437  11.806  17.965  0.00  0.00    +0.000 A 
ENDBRANCH  29  30
ENDBRANCH  27  29
ENDBRANCH  26  27
ENDBRANCH  24  26
ENDBRANCH  20  21
ENDBRANCH  19  20
ENDBRANCH   7  19
TORSDOF 9
ENDMDL
MODEL 2
REMARK VINA RESULT:      -8.2      2.893      3.790
REMARK  Name = 
REMARK  9 active torsions:
REMARK  status: ('A' for Active; 'I' for Inactive)
REMARK    1  A    between atoms: C_4  and  C_5
REMARK    2  A    between atoms: C_5  and  C_6
REMARK    3  A    between atoms: C_12  and  C_13
REMARK    4  A    between atoms: C_13  and  C_14
REMARK    5  A    between atoms: C_14  and  N_15
REMARK    6  A    between atoms: C_18  and  C_19
REMARK    7  A    between atoms: C_19  and  N_20
REMARK    8  A    between atoms: N_20  and  C_21
REMARK    9  A    between atoms: C_21  and  C_22
REMARK                            x       y       z     vdW  Elec       q    Type
REMARK                         _______ _______ _______ _____ _____    ______ ____
ROOT
ATOM      1  C   UNL     1       3.733   4.730  17.855  0.00  0.00    +0.000 A 
ATOM      2  C   UNL     1       3.544   3.975  19.019  0.00  0.00    +0.000 A 
ATOM      3  C   UNL     1       2.882   4.506  20.130  0.00  0.00    +0.000 A 
ATOM      4  C   UNL     1       2.428   5.825  20.048  0.00  0.00    +0.000 A 
ATOM      5  N   UNL     1       1.748   6.584  20.973  0.00  0.00    +0.000 N 
ATOM      6  C   UNL     1       1.550   7.847  20.492  0.00  0.00    +0.000 A 
ATOM      7  C   UNL     1       2.088   7.920  19.220  0.00  0.00    +0.000 A 
ATOM      8  C   UNL     1       2.620   6.625  18.922  0.00  0.00    +0.000 A 
ATOM      9  C   UNL     1       3.274   6.060  17.807  0.00  0.00    +0.000 A 
ATOM     10  H   UNL     1       1.459   6.254  21.883  0.00  0.00    +0.000 HD
ENDROOT
BRANCH   1  11
ATOM     11  C   UNL     1       4.414   4.131  16.644  0.00  0.00    +0.000 C 
BRANCH  11  15
ATOM     12  O   UNL     1       8.203   5.112  19.162  0.00  0.00    +0.000 OA
ATOM     13  C   UNL     1       7.472   5.040  18.193  0.00  0.00    +0.000 C 
ATOM     14  N   UNL     1       6.456   4.144  18.042  0.00  0.00    +0.000 N 
ATOM     15  C   UNL     1       5.942   4.164  16.710  0.00  0.00    +0.000 C 
ATOM     16  C   UNL     1       6.518   5.461  16.171  0.00  0.00    +0.000 C 
ATOM     17  O   UNL     1       7.567   5.823  17.081  0.00  0.00    +0.000 OA
ATOM     18  H   UNL     1       6.387   3.358  18.680  0.00  0.00    +0.000 HD
ENDBRANCH  11  15
ENDBRANCH   1  11
BRANCH   7  19
ATOM     19  C   UNL     1       2.134   9.150  18.366  0.00  0.00    +0.000 C 
BRANCH  19  20
ATOM     20  C   UNL     1       0.758   9.812  18.194  0.00  0.00    +0.000 C 
BRANCH  20  21
ATOM     21  N   UNL     1       0.693  11.214  18.673  0.00  0.00    +0.000 NA
ATOM     22  C   UNL     1       0.982  11.356  20.108  0.00  0.00    +0.000 C 
ATOM     23  C   UNL     1      -0.347  11.096  20.785  0.00  0.00    +0.000 C 
ATOM     24  C   UNL     1      -1.308  11.884  19.902  0.00  0.00    +0.000 C 
ATOM     25  C   UNL     1      -0.684  11.749  18.500  0.00  0.00    +0.000 C 
BRANCH  24  26
ATOM     26  C   UNL     1      -1.396  13.348  20.367  0.00  0.00    +0.000 C 
BRANCH  26  27
ATOM     27  N   UNL     1      -0.813  14.233  19.368  0.00  0.00    +0.000 NA
ATOM     28  H   UNL     1      -1.156  13.998  18.437  0.00  0.00    +0.000 HD
BRANCH  27  29
ATOM     29  C   UNL     1      -1.089  15.632  19.647  0.00  0.00    +0.000 C 
BRANCH  29  30
ATOM     30  C   UNL     1      -0.215  16.495  18.776  0.00  0.00    +0.000 A 
ATOM     31  C   UNL     1      -0.778  17.463  17.935  0.00  0.00    +0.000 A 
ATOM     32  C   UNL     1       0.027  18.192  17.060  0.00  0.00    +0.000 A 
ATOM     33  C   UNL     1       1.401  17.959  17.019  0.00  0.00    +0.000 A 
ATOM     34  C   UNL     1       1.974  17.001  17.852  0.00  0.00    +0.000 A 
ATOM     35  C   UNL     1       1.170  16.266  18.723  0.00  0.00    +0.000 A 
ENDBRANCH  29  30
ENDBRANCH  27  29
ENDBRANCH  26  27
ENDBRANCH  24  26
ENDBRANCH  20  21
ENDBRANCH  19  20
ENDBRANCH   7  19
TORSDOF 9
ENDMDL
MODEL 3
REMARK VINA RESULT:      -8.2      3.560      9.670
REMARK  Name = 
REMARK  9 active torsions:
REMARK  status: ('A' for Active; 'I' for Inactive)
REMARK    1  A    between atoms: C_4  and  C_5
REMARK    2  A    between atoms: C_5  and  C_6
REMARK    3  A    between atoms: C_12  and  C_13
REMARK    4  A    between atoms: C_13  and  C_14
REMARK    5  A    between atoms: C_14  and  N_15
REMARK    6  A    between atoms: C_18  and  C_19
REMARK    7  A    between atoms: C_19  and  N_20
REMARK    8  A    between atoms: N_20  and  C_21
REMARK    9  A    between atoms: C_21  and  C_22
REMARK                            x       y       z     vdW  Elec       q    Type
REMARK                         _______ _______ _______ _____ _____    ______ ____
ROOT
ATOM      1  C   UNL     1      -1.142  11.339  19.404  0.00  0.00    +0.000 A 
ATOM      2  C   UNL     1      -1.606  11.928  20.586  0.00  0.00    +0.000 A 
ATOM      3  C   UNL     1      -1.145  11.508  21.838  0.00  0.00    +0.000 A 
ATOM      4  C   UNL     1      -0.214  10.467  21.873  0.00  0.00    +0.000 A 
ATOM      5  N   UNL     1       0.405   9.871  22.948  0.00  0.00    +0.000 N 
ATOM      6  C   UNL     1       1.206   8.849  22.522  0.00  0.00    +0.000 A 
ATOM      7  C   UNL     1       1.133   8.780  21.144  0.00  0.00    +0.000 A 
ATOM      8  C   UNL     1       0.254   9.829  20.724  0.00  0.00    +0.000 A 
ATOM      9  C   UNL     1      -0.211  10.283  19.472  0.00  0.00    +0.000 A 
ATOM     10  H   UNL     1       0.265  10.141  23.910  0.00  0.00    +0.000 HD
ENDROOT
BRANCH   1  11
ATOM     11  C   UNL     1      -1.616  11.830  18.054  0.00  0.00    +0.000 C 
BRANCH  11  15
ATOM     12  O   UNL     1      -3.356  10.432  13.970  0.00  0.00    +0.000 OA
ATOM     13  C   UNL     1      -3.318  10.697  15.156  0.00  0.00    +0.000 C 
ATOM     14  N   UNL     1      -2.189  10.716  15.920  0.00  0.00    +0.000 N 
ATOM     15  C   UNL     1      -2.504  10.833  17.308  0.00  0.00    +0.000 C 
ATOM     16  C   UNL     1      -3.958  11.271  17.263  0.00  0.00    +0.000 C 
ATOM     17  O   UNL     1      -4.403  10.988  15.928  0.00  0.00    +0.000 OA
ATOM     18  H   UNL     1      -1.332  10.319  15.550  0.00  0.00    +0.000 HD
ENDBRANCH  11  15
ENDBRANCH   1  11
BRANCH   7  19
ATOM     19  C   UNL     1       1.816   7.758  20.288  0.00  0.00    +0.000 C 
BRANCH  19  20
ATOM     20  C   UNL     1       1.467   6.314  20.683  0.00  0.00    +0.000 C 
BRANCH  20  21
ATOM     21  N   UNL     1       1.947   5.288  19.727  0.00  0.00    +0.000 NA
ATOM     22  C   UNL     1       1.036   4.140  19.595  0.00  0.00    +0.000 C 
ATOM     23  C   UNL     1       1.427   3.220  20.731  0.00  0.00    +0.000 C 
ATOM     24  C   UNL     1       2.949   3.268  20.665  0.00  0.00    +0.000 C 
ATOM     25  C   UNL     1       3.232   4.710  20.201  0.00  0.00    +0.000 C 
BRANCH  24  26
ATOM     26  C   UNL     1       3.483   2.218  19.675  0.00  0.00    +0.000 C 
BRANCH  26  27
ATOM     27  N   UNL     1       4.543   2.788  18.854  0.00  0.00    +0.000 NA
ATOM     28  H   UNL     1       5.338   2.152  18.802  0.00  0.00    +0.000 HD
BRANCH  27  29
ATOM     29  C   UNL     1       4.085   3.103  17.511  0.00  0.00    +0.000 C 
BRANCH  29  30
ATOM     30  C   UNL     1       5.166   3.856  16.781  0.00  0.00    +0.000 A 
ATOM     31  C   UNL     1       6.192   4.496  17.487  0.00  0.00    +0.000 A 
ATOM     32  C   UNL     1       7.136   5.271  16.813  0.00  0.00    +0.000 A 
ATOM     33  C   UNL     1       7.060   5.413  15.428  0.00  0.00    +0.000 A 
ATOM     34  C   UNL     1       6.046   4.780  14.714  0.00  0.00    +0.000 A 
ATOM     35  C   UNL     1       5.098   4.009  15.386  0.00  0.00    +0.000 A 
ENDBRANCH  29  30
ENDBRANCH  27  29
ENDBRANCH  26  27
ENDBRANCH  24  26
ENDBRANCH  20  21
ENDBRANCH  19  20
ENDBRANCH   7  19
TORSDOF 9
ENDMDL
MODEL 4
REMARK VINA RESULT:      -8.2      3.554      9.375
REMARK  Name = 
REMARK  9 active torsions:
REMARK  status: ('A' for Active; 'I' for Inactive)
REMARK    1  A    between atoms: C_4  and  C_5
REMARK    2  A    between atoms: C_5  and  C_6
REMARK    3  A    between atoms: C_12  and  C_13
REMARK    4  A    between atoms: C_13  and  C_14
REMARK    5  A    between atoms: C_14  and  N_15
REMARK    6  A    between atoms: C_18  and  C_19
REMARK    7  A    between atoms: C_19  and  N_20
REMARK    8  A    between atoms: N_20  and  C_21
REMARK    9  A    between atoms: C_21  and  C_22
REMARK                            x       y       z     vdW  Elec       q    Type
REMARK                         _______ _______ _______ _____ _____    ______ ____
ROOT
ATOM      1  C   UNL     1      -1.585  11.619  19.501  0.00  0.00    +0.000 A 
ATOM      2  C   UNL     1      -2.121  12.355  20.564  0.00  0.00    +0.000 A 
ATOM      3  C   UNL     1      -1.811  12.046  21.892  0.00  0.00    +0.000 A 
ATOM      4  C   UNL     1      -0.959  10.964  22.126  0.00  0.00    +0.000 A 
ATOM      5  N   UNL     1      -0.487  10.453  23.314  0.00  0.00    +0.000 N 
ATOM      6  C   UNL     1       0.282   9.348  23.077  0.00  0.00    +0.000 A 
ATOM      7  C   UNL     1       0.338   9.138  21.713  0.00  0.00    +0.000 A 
ATOM      8  C   UNL     1      -0.425  10.183  21.101  0.00  0.00    +0.000 A 
ATOM      9  C   UNL     1      -0.737  10.527  19.769  0.00  0.00    +0.000 A 
ATOM     10  H   UNL     1      -0.701  10.831  24.225  0.00  0.00    +0.000 HD
ENDROOT
BRANCH   1  11
ATOM     11  C   UNL     1      -1.894  11.989  18.067  0.00  0.00    +0.000 C 
BRANCH  11  15
ATOM     12  O   UNL     1      -2.766  10.019  13.941  0.00  0.00    +0.000 OA
ATOM     13  C   UNL     1      -2.975  10.458  15.056  0.00  0.00    +0.000 C 
ATOM     14  N   UNL     1      -2.039  10.576  16.040  0.00  0.00    +0.000 N 
ATOM     15  C   UNL     1      -2.642  10.904  17.292  0.00  0.00    +0.000 C 
ATOM     16  C   UNL     1      -4.030  11.348  16.865  0.00  0.00    +0.000 C 
ATOM     17  O   UNL     1      -4.187  10.874  15.519  0.00  0.00    +0.000 OA
ATOM     18  H   UNL     1      -1.141  10.118  15.930  0.00  0.00    +0.000 HD
ENDBRANCH  11  15
ENDBRANCH   1  11
BRANCH   7  19
ATOM     19  C   UNL     1       1.032   7.994  21.038  0.00  0.00    +0.000 C 
BRANCH  19  20
ATOM     20  C   UNL     1       1.882   8.434  19.835  0.00  0.00    +0.000 C 
BRANCH  20  21
ATOM     21  N   UNL     1       2.006   7.411  18.769  0.00  0.00    +0.000 NA
ATOM     22  C   UNL     1       2.415   6.090  19.271  0.00  0.00    +0.000 C 
ATOM     23  C   UNL     1       3.925   6.164  19.330  0.00  0.00    +0.000 C 
ATOM     24  C   UNL     1       4.258   6.851  18.011  0.00  0.00    +0.000 C 
ATOM     25  C   UNL     1       3.066   7.804  17.804  0.00  0.00    +0.000 C 
BRANCH  24  26
ATOM     26  C   UNL     1       4.387   5.818  16.878  0.00  0.00    +0.000 C 
BRANCH  26  27
ATOM     27  N   UNL     1       5.232   4.708  17.300  0.00  0.00    +0.000 NA
ATOM     28  H   UNL     1       5.353   4.714  18.312  0.00  0.00    +0.000 HD
BRANCH  27  29
ATOM     29  C   UNL     1       4.695   3.423  16.883  0.00  0.00    +0.000 C 
BRANCH  29  30
ATOM     30  C   UNL     1       3.681   2.956  17.894  0.00  0.00    +0.000 A 
ATOM     31  C   UNL     1       2.330   2.839  17.548  0.00  0.00    +0.000 A 
ATOM     32  C   UNL     1       1.381   2.499  18.513  0.00  0.00    +0.000 A 
ATOM     33  C   UNL     1       1.777   2.274  19.830  0.00  0.00    +0.000 A 
ATOM     34  C   UNL     1       3.120   2.385  20.187  0.00  0.00    +0.000 A 
ATOM     35  C   UNL     1       4.069   2.730  19.226  0.00  0.00    +0.000 A 
ENDBRANCH  29  30
ENDBRANCH  27  29
ENDBRANCH  26  27
ENDBRANCH  24  26
ENDBRANCH  20  21
ENDBRANCH  19  20
ENDBRANCH   7  19
TORSDOF 9
ENDMDL
MODEL 5
REMARK VINA RESULT:      -8.2      2.277      3.645
REMARK  Name = 
REMARK  9 active torsions:
REMARK  status: ('A' for Active; 'I' for Inactive)
REMARK    1  A    between atoms: C_4  and  C_5
REMARK    2  A    between atoms: C_5  and  C_6
REMARK    3  A    between atoms: C_12  and  C_13
REMARK    4  A    between atoms: C_13  and  C_14
REMARK    5  A    between atoms: C_14  and  N_15
REMARK    6  A    between atoms: C_18  and  C_19
REMARK    7  A    between atoms: C_19  and  N_20
REMARK    8  A    between atoms: N_20  and  C_21
REMARK    9  A    between atoms: C_21  and  C_22
REMARK                            x       y       z     vdW  Elec       q    Type
REMARK                         _______ _______ _______ _____ _____    ______ ____
ROOT
ATOM      1  C   UNL     1       4.390   4.013  17.282  0.00  0.00    +0.000 A 
ATOM      2  C   UNL     1       3.928   2.715  17.533  0.00  0.00    +0.000 A 
ATOM      3  C   UNL     1       2.888   2.476  18.437  0.00  0.00    +0.000 A 
ATOM      4  C   UNL     1       2.333   3.575  19.096  0.00  0.00    +0.000 A 
ATOM      5  N   UNL     1       1.309   3.630  20.015  0.00  0.00    +0.000 N 
ATOM      6  C   UNL     1       1.130   4.915  20.443  0.00  0.00    +0.000 A 
ATOM      7  C   UNL     1       2.034   5.726  19.783  0.00  0.00    +0.000 A 
ATOM      8  C   UNL     1       2.781   4.882  18.902  0.00  0.00    +0.000 A 
ATOM      9  C   UNL     1       3.818   5.100  17.971  0.00  0.00    +0.000 A 
ATOM     10  H   UNL     1       0.786   2.829  20.336  0.00  0.00    +0.000 HD
ENDROOT
BRANCH   1  11
ATOM     11  C   UNL     1       5.487   4.264  16.271  0.00  0.00    +0.000 C 
BRANCH  11  15
ATOM     12  O   UNL     1       7.842   5.357  20.133  0.00  0.00    +0.000 OA
ATOM     13  C   UNL     1       7.491   5.394  18.970  0.00  0.00    +0.000 C 
ATOM     14  N   UNL     1       6.911   4.363  18.292  0.00  0.00    +0.000 N 
ATOM     15  C   UNL     1       6.831   4.642  16.894  0.00  0.00    +0.000 C 
ATOM     16  C   UNL     1       7.087   6.139  16.858  0.00  0.00    +0.000 C 
ATOM     17  O   UNL     1       7.647   6.463  18.139  0.00  0.00    +0.000 OA
ATOM     18  H   UNL     1       6.917   3.434  18.700  0.00  0.00    +0.000 HD
ENDBRANCH  11  15
ENDBRANCH   1  11
BRANCH   7  19
ATOM     19  C   UNL     1       2.207   7.197  20.010  0.00  0.00    +0.000 C 
BRANCH  19  20
ATOM     20  C   UNL     1       1.845   8.041  18.776  0.00  0.00    +0.000 C 
BRANCH  20  21
ATOM     21  N   UNL     1       1.618   9.477  19.065  0.00  0.00    +0.000 NA
ATOM     22  C   UNL     1       0.998   9.719  20.377  0.00  0.00    +0.000 C 
ATOM     23  C   UNL     1      -0.486   9.568  20.124  0.00  0.00    +0.000 C 
ATOM     24  C   UNL     1      -0.659  10.323  18.811  0.00  0.00    +0.000 C 
ATOM     25  C   UNL     1       0.668  10.053  18.077  0.00  0.00    +0.000 C 
BRANCH  24  26
ATOM     26  C   UNL     1      -0.891  11.821  19.073  0.00  0.00    +0.000 C 
BRANCH  26  27
ATOM     27  N   UNL     1       0.106  12.618  18.371  0.00  0.00    +0.000 NA
ATOM     28  H   UNL     1      -0.060  12.596  17.366  0.00  0.00    +0.000 HD
BRANCH  27  29
ATOM     29  C   UNL     1       0.126  13.998  18.829  0.00  0.00    +0.000 C 
BRANCH  29  30
ATOM     30  C   UNL     1       1.504  14.569  18.625  0.00  0.00    +0.000 A 
ATOM     31  C   UNL     1       1.692  15.950  18.492  0.00  0.00    +0.000 A 
ATOM     32  C   UNL     1       2.957  16.466  18.207  0.00  0.00    +0.000 A 
ATOM     33  C   UNL     1       4.042  15.605  18.053  0.00  0.00    +0.000 A 
ATOM     34  C   UNL     1       3.869  14.229  18.185  0.00  0.00    +0.000 A 
ATOM     35  C   UNL     1       2.605  13.710  18.463  0.00  0.00    +0.000 A 
ENDBRANCH  29  30
ENDBRANCH  27  29
ENDBRANCH  26  27
ENDBRANCH  24  26
ENDBRANCH  20  21
ENDBRANCH  19  20
ENDBRANCH   7  19
TORSDOF 9
ENDMDL
MODEL 6
REMARK VINA RESULT:      -8.1      2.027      3.281
REMARK  Name = 
REMARK  9 active torsions:
REMARK  status: ('A' for Active; 'I' for Inactive)
REMARK    1  A    between atoms: C_4  and  C_5
REMARK    2  A    between atoms: C_5  and  C_6
REMARK    3  A    between atoms: C_12  and  C_13
REMARK    4  A    between atoms: C_13  and  C_14
REMARK    5  A    between atoms: C_14  and  N_15
REMARK    6  A    between atoms: C_18  and  C_19
REMARK    7  A    between atoms: C_19  and  N_20
REMARK    8  A    between atoms: N_20  and  C_21
REMARK    9  A    between atoms: C_21  and  C_22
REMARK                            x       y       z     vdW  Elec       q    Type
REMARK                         _______ _______ _______ _____ _____    ______ ____
ROOT
ATOM      1  C   UNL     1       4.380   3.835  17.323  0.00  0.00    +0.000 A 
ATOM      2  C   UNL     1       3.922   2.534  17.561  0.00  0.00    +0.000 A 
ATOM      3  C   UNL     1       2.869   2.284  18.446  0.00  0.00    +0.000 A 
ATOM      4  C   UNL     1       2.296   3.377  19.101  0.00  0.00    +0.000 A 
ATOM      5  N   UNL     1       1.256   3.422  20.002  0.00  0.00    +0.000 N 
ATOM      6  C   UNL     1       1.062   4.704  20.433  0.00  0.00    +0.000 A 
ATOM      7  C   UNL     1       1.971   5.524  19.792  0.00  0.00    +0.000 A 
ATOM      8  C   UNL     1       2.739   4.688  18.919  0.00  0.00    +0.000 A 
ATOM      9  C   UNL     1       3.789   4.916  18.007  0.00  0.00    +0.000 A 
ATOM     10  H   UNL     1       0.733   2.616  20.311  0.00  0.00    +0.000 HD
ENDROOT
BRANCH   1  11
ATOM     11  C   UNL     1       5.493   4.097  16.332  0.00  0.00    +0.000 C 
BRANCH  11  15
ATOM     12  O   UNL     1       7.709   5.458  20.192  0.00  0.00    +0.000 OA
ATOM     13  C   UNL     1       7.404   5.410  19.016  0.00  0.00    +0.000 C 
ATOM     14  N   UNL     1       6.837   4.336  18.395  0.00  0.00    +0.000 N 
ATOM     15  C   UNL     1       6.817   4.508  16.978  0.00  0.00    +0.000 C 
ATOM     16  C   UNL     1       7.094   5.995  16.839  0.00  0.00    +0.000 C 
ATOM     17  O   UNL     1       7.608   6.410  18.113  0.00  0.00    +0.000 OA
ATOM     18  H   UNL     1       6.815   3.441  18.873  0.00  0.00    +0.000 HD
ENDBRANCH  11  15
ENDBRANCH   1  11
BRANCH   7  19
ATOM     19  C   UNL     1       2.131   6.995  20.027  0.00  0.00    +0.000 C 
BRANCH  19  20
ATOM     20  C   UNL     1       1.220   7.526  21.145  0.00  0.00    +0.000 C 
BRANCH  20  21
ATOM     21  N   UNL     1       1.468   8.940  21.513  0.00  0.00    +0.000 NA
ATOM     22  C   UNL     1       0.831   9.335  22.779  0.00  0.00    +0.000 C 
ATOM     23  C   UNL     1      -0.579   9.719  22.385  0.00  0.00    +0.000 C 
ATOM     24  C   UNL     1      -0.340  10.532  21.119  0.00  0.00    +0.000 C 
ATOM     25  C   UNL     1       0.885   9.845  20.487  0.00  0.00    +0.000 C 
BRANCH  24  26
ATOM     26  C   UNL     1      -0.073  12.008  21.464  0.00  0.00    +0.000 C 
BRANCH  26  27
ATOM     27  N   UNL     1      -0.946  12.877  20.687  0.00  0.00    +0.000 NA
ATOM     28  H   UNL     1      -0.723  12.814  19.694  0.00  0.00    +0.000 HD
BRANCH  27  29
ATOM     29  C   UNL     1      -2.351  12.562  20.888  0.00  0.00    +0.000 C 
BRANCH  29  30
ATOM     30  C   UNL     1      -2.802  13.128  22.209  0.00  0.00    +0.000 A 
ATOM     31  C   UNL     1      -3.334  12.293  23.199  0.00  0.00    +0.000 A 
ATOM     32  C   UNL     1      -3.838  12.834  24.382  0.00  0.00    +0.000 A 
ATOM     33  C   UNL     1      -3.816  14.213  24.583  0.00  0.00    +0.000 A 
ATOM     34  C   UNL     1      -3.288  15.055  23.606  0.00  0.00    +0.000 A 
ATOM     35  C   UNL     1      -2.788  14.517  22.421  0.00  0.00    +0.000 A 
ENDBRANCH  29  30
ENDBRANCH  27  29
ENDBRANCH  26  27
ENDBRANCH  24  26
ENDBRANCH  20  21
ENDBRANCH  19  20
ENDBRANCH   7  19
TORSDOF 9
ENDMDL
MODEL 7
REMARK VINA RESULT:      -8.1      3.788      9.969
REMARK  Name = 
REMARK  9 active torsions:
REMARK  status: ('A' for Active; 'I' for Inactive)
REMARK    1  A    between atoms: C_4  and  C_5
REMARK    2  A    between atoms: C_5  and  C_6
REMARK    3  A    between atoms: C_12  and  C_13
REMARK    4  A    between atoms: C_13  and  C_14
REMARK    5  A    between atoms: C_14  and  N_15
REMARK    6  A    between atoms: C_18  and  C_19
REMARK    7  A    between atoms: C_19  and  N_20
REMARK    8  A    between atoms: N_20  and  C_21
REMARK    9  A    between atoms: C_21  and  C_22
REMARK                            x       y       z     vdW  Elec       q    Type
REMARK                         _______ _______ _______ _____ _____    ______ ____
ROOT
ATOM      1  C   UNL     1      -5.522  12.086  18.939  0.00  0.00    +0.000 A 
ATOM      2  C   UNL     1      -6.805  12.102  19.499  0.00  0.00    +0.000 A 
ATOM      3  C   UNL     1      -7.000  12.350  20.861  0.00  0.00    +0.000 A 
ATOM      4  C   UNL     1      -5.869  12.567  21.652  0.00  0.00    +0.000 A 
ATOM      5  N   UNL     1      -5.771  12.840  22.997  0.00  0.00    +0.000 N 
ATOM      6  C   UNL     1      -4.458  12.925  23.366  0.00  0.00    +0.000 A 
ATOM      7  C   UNL     1      -3.675  12.728  22.244  0.00  0.00    +0.000 A 
ATOM      8  C   UNL     1      -4.570  12.530  21.144  0.00  0.00    +0.000 A 
ATOM      9  C   UNL     1      -4.400  12.297  19.764  0.00  0.00    +0.000 A 
ATOM     10  H   UNL     1      -6.560  12.939  23.620  0.00  0.00    +0.000 HD
ENDROOT
BRANCH   1  11
ATOM     11  C   UNL     1      -5.326  11.857  17.456  0.00  0.00    +0.000 C 
BRANCH  11  15
ATOM     12  O   UNL     1      -2.502  10.163  14.167  0.00  0.00    +0.000 OA
ATOM     13  C   UNL     1      -2.994  10.324  15.267  0.00  0.00    +0.000 C 
ATOM     14  N   UNL     1      -3.663  11.442  15.672  0.00  0.00    +0.000 N 
ATOM     15  C   UNL     1      -3.911  11.416  17.078  0.00  0.00    +0.000 C 
ATOM     16  C   UNL     1      -3.648   9.959  17.416  0.00  0.00    +0.000 C 
ATOM     17  O   UNL     1      -2.931   9.428  16.292  0.00  0.00    +0.000 OA
ATOM     18  H   UNL     1      -3.615  12.282  15.105  0.00  0.00    +0.000 HD
ENDBRANCH  11  15
ENDBRANCH   1  11
BRANCH   7  19
ATOM     19  C   UNL     1      -2.178  12.684  22.226  0.00  0.00    +0.000 C 
BRANCH  19  20
ATOM     20  C   UNL     1      -1.598  11.625  23.178  0.00  0.00    +0.000 C 
BRANCH  20  21
ATOM     21  N   UNL     1      -0.257  11.126  22.790  0.00  0.00    +0.000 NA
ATOM     22  C   UNL     1       0.011  11.231  21.347  0.00  0.00    +0.000 C 
ATOM     23  C   UNL     1      -0.591   9.973  20.761  0.00  0.00    +0.000 C 
ATOM     24  C   UNL     1      -0.141   8.914  21.761  0.00  0.00    +0.000 C 
ATOM     25  C   UNL     1      -0.142   9.676  23.100  0.00  0.00    +0.000 C 
BRANCH  24  26
ATOM     26  C   UNL     1       1.253   8.377  21.392  0.00  0.00    +0.000 C 
BRANCH  26  27
ATOM     27  N   UNL     1       1.133   7.200  20.542  0.00  0.00    +0.000 NA
ATOM     28  H   UNL     1       0.431   7.350  19.818  0.00  0.00    +0.000 HD
BRANCH  27  29
ATOM     29  C   UNL     1       2.398   6.841  19.923  0.00  0.00    +0.000 C 
BRANCH  29  30
ATOM     30  C   UNL     1       2.640   5.366  20.107  0.00  0.00    +0.000 A 
ATOM     31  C   UNL     1       3.741   4.742  19.507  0.00  0.00    +0.000 A 
ATOM     32  C   UNL     1       3.907   3.360  19.602  0.00  0.00    +0.000 A 
ATOM     33  C   UNL     1       2.973   2.592  20.294  0.00  0.00    +0.000 A 
ATOM     34  C   UNL     1       1.874   3.200  20.897  0.00  0.00    +0.000 A 
ATOM     35  C   UNL     1       1.703   4.580  20.800  0.00  0.00    +0.000 A 
ENDBRANCH  29  30
ENDBRANCH  27  29
ENDBRANCH  26  27
ENDBRANCH  24  26
ENDBRANCH  20  21
ENDBRANCH  19  20
ENDBRANCH   7  19
TORSDOF 9
ENDMDL
MODEL 8
REMARK VINA RESULT:      -8.1      2.526      3.143
REMARK  Name = 
REMARK  9 active torsions:
REMARK  status: ('A' for Active; 'I' for Inactive)
REMARK    1  A    between atoms: C_4  and  C_5
REMARK    2  A    between atoms: C_5  and  C_6
REMARK    3  A    between atoms: C_12  and  C_13
REMARK    4  A    between atoms: C_13  and  C_14
REMARK    5  A    between atoms: C_14  and  N_15
REMARK    6  A    between atoms: C_18  and  C_19
REMARK    7  A    between atoms: C_19  and  N_20
REMARK    8  A    between atoms: N_20  and  C_21
REMARK    9  A    between atoms: C_21  and  C_22
REMARK                            x       y       z     vdW  Elec       q    Type
REMARK                         _______ _______ _______ _____ _____    ______ ____
ROOT
ATOM      1  C   UNL     1       4.368   3.969  17.252  0.00  0.00    +0.000 A 
ATOM      2  C   UNL     1       3.990   2.656  17.555  0.00  0.00    +0.000 A 
ATOM      3  C   UNL     1       3.039   2.381  18.541  0.00  0.00    +0.000 A 
ATOM      4  C   UNL     1       2.485   3.463  19.231  0.00  0.00    +0.000 A 
ATOM      5  N   UNL     1       1.537   3.483  20.228  0.00  0.00    +0.000 N 
ATOM      6  C   UNL     1       1.330   4.765  20.655  0.00  0.00    +0.000 A 
ATOM      7  C   UNL     1       2.138   5.608  19.915  0.00  0.00    +0.000 A 
ATOM      8  C   UNL     1       2.853   4.786  18.986  0.00  0.00    +0.000 A 
ATOM      9  C   UNL     1       3.800   5.039  17.972  0.00  0.00    +0.000 A 
ATOM     10  H   UNL     1       1.080   2.663  20.600  0.00  0.00    +0.000 HD
ENDROOT
BRANCH   1  11
ATOM     11  C   UNL     1       5.367   4.256  16.153  0.00  0.00    +0.000 C 
BRANCH  11  15
ATOM     12  O   UNL     1       8.056   5.218  19.828  0.00  0.00    +0.000 OA
ATOM     13  C   UNL     1       7.574   5.323  18.717  0.00  0.00    +0.000 C 
ATOM     14  N   UNL     1       6.999   4.306  18.013  0.00  0.00    +0.000 N 
ATOM     15  C   UNL     1       6.742   4.693  16.662  0.00  0.00    +0.000 C 
ATOM     16  C   UNL     1       6.880   6.204  16.737  0.00  0.00    +0.000 C 
ATOM     17  O   UNL     1       7.556   6.466  17.975  0.00  0.00    +0.000 OA
ATOM     18  H   UNL     1       7.120   3.351  18.331  0.00  0.00    +0.000 HD
ENDBRANCH  11  15
ENDBRANCH   1  11
BRANCH   7  19
ATOM     19  C   UNL     1       2.257   7.089  20.110  0.00  0.00    +0.000 C 
BRANCH  19  20
ATOM     20  C   UNL     1       1.004   7.712  20.746  0.00  0.00    +0.000 C 
BRANCH  20  21
ATOM     21  N   UNL     1       1.161   9.135  21.133  0.00  0.00    +0.000 NA
ATOM     22  C   UNL     1       1.360   9.330  22.577  0.00  0.00    +0.000 C 
ATOM     23  C   UNL     1      -0.041   9.363  23.147  0.00  0.00    +0.000 C 
ATOM     24  C   UNL     1      -0.770  10.241  22.136  0.00  0.00    +0.000 C 
ATOM     25  C   UNL     1      -0.076   9.892  20.806  0.00  0.00    +0.000 C 
BRANCH  24  26
ATOM     26  C   UNL     1      -0.623  11.728  22.503  0.00  0.00    +0.000 C 
BRANCH  26  27
ATOM     27  N   UNL     1       0.430  12.344  21.707  0.00  0.00    +0.000 NA
ATOM     28  H   UNL     1       0.872  11.654  21.102  0.00  0.00    +0.000 HD
BRANCH  27  29
ATOM     29  C   UNL     1      -0.066  13.448  20.903  0.00  0.00    +0.000 C 
BRANCH  29  30
ATOM     30  C   UNL     1       0.948  13.785  19.841  0.00  0.00    +0.000 A 
ATOM     31  C   UNL     1       1.480  12.785  19.019  0.00  0.00    +0.000 A 
ATOM     32  C   UNL     1       2.488  13.086  18.103  0.00  0.00    +0.000 A 
ATOM     33  C   UNL     1       2.972  14.389  18.004  0.00  0.00    +0.000 A 
ATOM     34  C   UNL     1       2.450  15.394  18.815  0.00  0.00    +0.000 A 
ATOM     35  C   UNL     1       1.447  15.095  19.735  0.00  0.00    +0.000 A 
ENDBRANCH  29  30
ENDBRANCH  27  29
ENDBRANCH  26  27
ENDBRANCH  24  26
ENDBRANCH  20  21
ENDBRANCH  19  20
ENDBRANCH   7  19
TORSDOF 9
ENDMDL
MODEL 9
REMARK VINA RESULT:      -8.0      2.304      3.387
REMARK  Name = 
REMARK  9 active torsions:
REMARK  status: ('A' for Active; 'I' for Inactive)
REMARK    1  A    between atoms: C_4  and  C_5
REMARK    2  A    between atoms: C_5  and  C_6
REMARK    3  A    between atoms: C_12  and  C_13
REMARK    4  A    between atoms: C_13  and  C_14
REMARK    5  A    between atoms: C_14  and  N_15
REMARK    6  A    between atoms: C_18  and  C_19
REMARK    7  A    between atoms: C_19  and  N_20
REMARK    8  A    between atoms: N_20  and  C_21
REMARK    9  A    between atoms: C_21  and  C_22
REMARK                            x       y       z     vdW  Elec       q    Type
REMARK                         _______ _______ _______ _____ _____    ______ ____
ROOT
ATOM      1  C   UNL     1       4.162   3.997  17.321  0.00  0.00    +0.000 A 
ATOM      2  C   UNL     1       3.844   2.758  17.890  0.00  0.00    +0.000 A 
ATOM      3  C   UNL     1       2.973   2.660  18.979  0.00  0.00    +0.000 A 
ATOM      4  C   UNL     1       2.439   3.844  19.494  0.00  0.00    +0.000 A 
ATOM      5  N   UNL     1       1.563   4.037  20.538  0.00  0.00    +0.000 N 
ATOM      6  C   UNL     1       1.351   5.372  20.733  0.00  0.00    +0.000 A 
ATOM      7  C   UNL     1       2.081   6.073  19.792  0.00  0.00    +0.000 A 
ATOM      8  C   UNL     1       2.751   5.103  18.981  0.00  0.00    +0.000 A 
ATOM      9  C   UNL     1       3.617   5.174  17.870  0.00  0.00    +0.000 A 
ATOM     10  H   UNL     1       1.157   3.295  21.089  0.00  0.00    +0.000 HD
ENDROOT
BRANCH   1  11
ATOM     11  C   UNL     1       5.073   4.087  16.117  0.00  0.00    +0.000 C 
BRANCH  11  15
ATOM     12  O   UNL     1       8.161   5.224  19.408  0.00  0.00    +0.000 OA
ATOM     13  C   UNL     1       7.608   5.217  18.325  0.00  0.00    +0.000 C 
ATOM     14  N   UNL     1       6.844   4.196  17.842  0.00  0.00    +0.000 N 
ATOM     15  C   UNL     1       6.532   4.391  16.462  0.00  0.00    +0.000 C 
ATOM     16  C   UNL     1       6.882   5.856  16.266  0.00  0.00    +0.000 C 
ATOM     17  O   UNL     1       7.687   6.214  17.399  0.00  0.00    +0.000 OA
ATOM     18  H   UNL     1       6.858   3.298  18.313  0.00  0.00    +0.000 HD
ENDBRANCH  11  15
ENDBRANCH   1  11
BRANCH   7  19
ATOM     19  C   UNL     1       2.171   7.566  19.698  0.00  0.00    +0.000 C 
BRANCH  19  20
ATOM     20  C   UNL     1       1.456   8.284  20.854  0.00  0.00    +0.000 C 
BRANCH  20  21
ATOM     21  N   UNL     1       0.325   9.143  20.431  0.00  0.00    +0.000 NA
ATOM     22  C   UNL     1       0.540   9.796  19.131  0.00  0.00    +0.000 C 
ATOM     23  C   UNL     1       1.323  11.047  19.465  0.00  0.00    +0.000 C 
ATOM     24  C   UNL     1       0.590  11.555  20.701  0.00  0.00    +0.000 C 
ATOM     25  C   UNL     1       0.140  10.257  21.398  0.00  0.00    +0.000 C 
BRANCH  24  26
ATOM     26  C   UNL     1      -0.598  12.447  20.298  0.00  0.00    +0.000 C 
BRANCH  26  27
ATOM     27  N   UNL     1      -0.253  13.254  19.135  0.00  0.00    +0.000 NA
ATOM     28  H   UNL     1      -0.892  13.062  18.364  0.00  0.00    +0.000 HD
BRANCH  27  29
ATOM     29  C   UNL     1      -0.265  14.677  19.432  0.00  0.00    +0.000 C 
BRANCH  29  30
ATOM     30  C   UNL     1       0.960  15.319  18.835  0.00  0.00    +0.000 A 
ATOM     31  C   UNL     1       0.960  16.678  18.495  0.00  0.00    +0.000 A 
ATOM     32  C   UNL     1       2.062  17.244  17.855  0.00  0.00    +0.000 A 
ATOM     33  C   UNL     1       3.171  16.458  17.549  0.00  0.00    +0.000 A 
ATOM     34  C   UNL     1       3.184  15.105  17.883  0.00  0.00    +0.000 A 
ATOM     35  C   UNL     1       2.082  14.534  18.518  0.00  0.00    +0.000 A 
ENDBRANCH  29  30
ENDBRANCH  27  29
ENDBRANCH  26  27
ENDBRANCH  24  26
ENDBRANCH  20  21
ENDBRANCH  19  20
ENDBRANCH   7  19
TORSDOF 9
ENDMDL
