MODEL 1
REMARK VINA RESULT:      -7.2      0.000      0.000
REMARK  Name = 
REMARK  9 active torsions:
REMARK  status: ('A' for Active; 'I' for Inactive)
REMARK    1  A    between atoms: C_1  and  O_2
REMARK    2  A    between atoms: O_2  and  C_3
REMARK    3  A    between atoms: C_6  and  N_7
REMARK    4  A    between atoms: N_7  and  P_8
REMARK    5  A    between atoms: P_8  and  C_9
REMARK    6  A    between atoms: P_8  and  O_11
REMARK    7  A    between atoms: O_11  and  C_12
REMARK    8  A    between atoms: C_17  and  O_18
REMARK    9  A    between atoms: O_18  and  C_19
REMARK                            x       y       z     vdW  Elec       q    Type
REMARK                         _______ _______ _______ _____ _____    ______ ____
ROOT
ATOM      1  P   UNL     1       6.303   5.820  16.878  0.00  0.00    +0.000 P 
ATOM      2  C   UNL     1       7.590   4.696  17.612  0.00  0.00    +0.000 C 
ATOM      3  O   UNL     1       6.579   7.329  16.885  0.00  0.00    +0.000 OA
ENDROOT
BRANCH   1   4
ATOM      4  N   UNL     1       7.326   5.760  15.423  0.00  0.00    +0.000 N 
ATOM      5  H   UNL     1       7.403   6.729  15.119  0.00  0.00    +0.000 HD
BRANCH   4   9
ATOM      6  C   UNL     1       6.060   3.331  12.203  0.00  0.00    +0.000 A 
ATOM      7  C   UNL     1       5.362   3.342  13.410  0.00  0.00    +0.000 A 
ATOM      8  C   UNL     1       5.805   4.135  14.472  0.00  0.00    +0.000 A 
ATOM      9  C   UNL     1       6.964   4.912  14.361  0.00  0.00    +0.000 A 
ATOM     10  C   UNL     1       7.641   4.910  13.126  0.00  0.00    +0.000 A 
ATOM     11  C   UNL     1       7.200   4.105  12.061  0.00  0.00    +0.000 A 
BRANCH   6  13
ATOM     12  C   UNL     1       6.189   1.230  11.122  0.00  0.00    +0.000 C 
ATOM     13  O   UNL     1       5.548   2.492  11.246  0.00  0.00    +0.000 OA
ENDBRANCH   6  13
ENDBRANCH   4   9
ENDBRANCH   1   4
BRANCH   1  14
ATOM     14  O   UNL     1       5.309   5.877  18.293  0.00  0.00    +0.000 OA
BRANCH  14  15
ATOM     15  C   UNL     1       4.142   5.081  18.381  0.00  0.00    +0.000 A 
ATOM     16  C   UNL     1       2.918   5.596  17.889  0.00  0.00    +0.000 A 
ATOM     17  C   UNL     1       1.676   4.964  18.042  0.00  0.00    +0.000 A 
ATOM     18  C   UNL     1       1.621   3.731  18.644  0.00  0.00    +0.000 A 
ATOM     19  C   UNL     1       2.804   3.166  19.094  0.00  0.00    +0.000 A 
ATOM     20  C   UNL     1       4.068   3.817  19.000  0.00  0.00    +0.000 A 
BRANCH  20  21
ATOM     21  O   UNL     1       4.974   3.059  19.676  0.00  0.00    +0.000 OA
ATOM     22  C   UNL     1       4.614   1.935  20.443  0.00  0.00    +0.000 C 
ENDBRANCH  20  21
ENDBRANCH  14  15
ENDBRANCH   1  14
TORSDOF 6
ENDMDL
MODEL 2
REMARK VINA RESULT:      -6.9      1.401      1.976
REMARK  Name = 
REMARK  9 active torsions:
REMARK  status: ('A' for Active; 'I' for Inactive)
REMARK    1  A    between atoms: C_1  and  O_2
REMARK    2  A    between atoms: O_2  and  C_3
REMARK    3  A    between atoms: C_6  and  N_7
REMARK    4  A    between atoms: N_7  and  P_8
REMARK    5  A    between atoms: P_8  and  C_9
REMARK    6  A    between atoms: P_8  and  O_11
REMARK    7  A    between atoms: O_11  and  C_12
REMARK    8  A    between atoms: C_17  and  O_18
REMARK    9  A    between atoms: O_18  and  C_19
REMARK                            x       y       z     vdW  Elec       q    Type
REMARK                         _______ _______ _______ _____ _____    ______ ____
ROOT
ATOM      1  P   UNL     1       6.383   5.829  16.844  0.00  0.00    +0.000 P 
ATOM      2  C   UNL     1       7.597   4.680  17.659  0.00  0.00    +0.000 C 
ATOM      3  O   UNL     1       6.750   7.316  16.754  0.00  0.00    +0.000 OA
ENDROOT
BRANCH   1   4
ATOM      4  N   UNL     1       7.405   5.612  15.403  0.00  0.00    +0.000 N 
ATOM      5  H   UNL     1       7.647   6.556  15.111  0.00  0.00    +0.000 HD
BRANCH   4   9
ATOM      6  C   UNL     1       5.806   3.452  12.139  0.00  0.00    +0.000 A 
ATOM      7  C   UNL     1       5.103   3.564  13.338  0.00  0.00    +0.000 A 
ATOM      8  C   UNL     1       5.654   4.264  14.415  0.00  0.00    +0.000 A 
ATOM      9  C   UNL     1       6.925   4.844  14.327  0.00  0.00    +0.000 A 
ATOM     10  C   UNL     1       7.609   4.745  13.100  0.00  0.00    +0.000 A 
ATOM     11  C   UNL     1       7.058   4.033  12.020  0.00  0.00    +0.000 A 
BRANCH   6  13
ATOM     12  C   UNL     1       3.797   2.999  10.974  0.00  0.00    +0.000 C 
ATOM     13  O   UNL     1       5.177   2.718  11.167  0.00  0.00    +0.000 OA
ENDBRANCH   6  13
ENDBRANCH   4   9
ENDBRANCH   1   4
BRANCH   1  14
ATOM     14  O   UNL     1       5.389   6.039  18.244  0.00  0.00    +0.000 OA
BRANCH  14  15
ATOM     15  C   UNL     1       4.143   5.376  18.344  0.00  0.00    +0.000 A 
ATOM     16  C   UNL     1       3.870   4.288  17.479  0.00  0.00    +0.000 A 
ATOM     17  C   UNL     1       2.630   3.643  17.388  0.00  0.00    +0.000 A 
ATOM     18  C   UNL     1       1.612   4.022  18.229  0.00  0.00    +0.000 A 
ATOM     19  C   UNL     1       1.853   5.050  19.129  0.00  0.00    +0.000 A 
ATOM     20  C   UNL     1       3.088   5.756  19.198  0.00  0.00    +0.000 A 
BRANCH  20  21
ATOM     21  O   UNL     1       2.924   6.791  20.067  0.00  0.00    +0.000 OA
ATOM     22  C   UNL     1       1.685   7.425  20.279  0.00  0.00    +0.000 C 
ENDBRANCH  20  21
ENDBRANCH  14  15
ENDBRANCH   1  14
TORSDOF 6
ENDMDL
MODEL 3
REMARK VINA RESULT:      -6.8      0.885      2.093
REMARK  Name = 
REMARK  9 active torsions:
REMARK  status: ('A' for Active; 'I' for Inactive)
REMARK    1  A    between atoms: C_1  and  O_2
REMARK    2  A    between atoms: O_2  and  C_3
REMARK    3  A    between atoms: C_6  and  N_7
REMARK    4  A    between atoms: N_7  and  P_8
REMARK    5  A    between atoms: P_8  and  C_9
REMARK    6  A    between atoms: P_8  and  O_11
REMARK    7  A    between atoms: O_11  and  C_12
REMARK    8  A    between atoms: C_17  and  O_18
REMARK    9  A    between atoms: O_18  and  C_19
REMARK                            x       y       z     vdW  Elec       q    Type
REMARK                         _______ _______ _______ _____ _____    ______ ____
ROOT
ATOM      1  P   UNL     1       6.307   5.806  16.941  0.00  0.00    +0.000 P 
ATOM      2  C   UNL     1       7.639   4.664  17.558  0.00  0.00    +0.000 C 
ATOM      3  O   UNL     1       6.582   7.315  16.974  0.00  0.00    +0.000 OA
ENDROOT
BRANCH   1   4
ATOM      4  N   UNL     1       7.233   5.790  15.422  0.00  0.00    +0.000 N 
ATOM      5  H   UNL     1       7.238   6.759  15.110  0.00  0.00    +0.000 HD
BRANCH   4   9
ATOM      6  C   UNL     1       5.909   3.298  12.274  0.00  0.00    +0.000 A 
ATOM      7  C   UNL     1       5.156   3.442  13.439  0.00  0.00    +0.000 A 
ATOM      8  C   UNL     1       5.618   4.253  14.479  0.00  0.00    +0.000 A 
ATOM      9  C   UNL     1       6.847   4.917  14.390  0.00  0.00    +0.000 A 
ATOM     10  C   UNL     1       7.581   4.782  13.195  0.00  0.00    +0.000 A 
ATOM     11  C   UNL     1       7.121   3.959  12.152  0.00  0.00    +0.000 A 
BRANCH   6  13
ATOM     12  C   UNL     1       6.115   1.276  11.063  0.00  0.00    +0.000 C 
ATOM     13  O   UNL     1       5.369   2.454  11.337  0.00  0.00    +0.000 OA
ENDBRANCH   6  13
ENDBRANCH   4   9
ENDBRANCH   1   4
BRANCH   1  14
ATOM     14  O   UNL     1       5.406   5.821  18.419  0.00  0.00    +0.000 OA
BRANCH  14  15
ATOM     15  C   UNL     1       4.200   5.090  18.530  0.00  0.00    +0.000 A 
ATOM     16  C   UNL     1       4.254   3.723  18.899  0.00  0.00    +0.000 A 
ATOM     17  C   UNL     1       3.147   2.863  18.909  0.00  0.00    +0.000 A 
ATOM     18  C   UNL     1       1.904   3.365  18.613  0.00  0.00    +0.000 A 
ATOM     19  C   UNL     1       1.798   4.711  18.296  0.00  0.00    +0.000 A 
ATOM     20  C   UNL     1       2.917   5.590  18.224  0.00  0.00    +0.000 A 
BRANCH  20  21
ATOM     21  O   UNL     1       2.477   6.781  17.735  0.00  0.00    +0.000 OA
ATOM     22  C   UNL     1       2.339   7.933  18.531  0.00  0.00    +0.000 C 
ENDBRANCH  20  21
ENDBRANCH  14  15
ENDBRANCH   1  14
TORSDOF 6
ENDMDL
MODEL 4
REMARK VINA RESULT:      -6.8      0.134      1.056
REMARK  Name = 
REMARK  9 active torsions:
REMARK  status: ('A' for Active; 'I' for Inactive)
REMARK    1  A    between atoms: C_1  and  O_2
REMARK    2  A    between atoms: O_2  and  C_3
REMARK    3  A    between atoms: C_6  and  N_7
REMARK    4  A    between atoms: N_7  and  P_8
REMARK    5  A    between atoms: P_8  and  C_9
REMARK    6  A    between atoms: P_8  and  O_11
REMARK    7  A    between atoms: O_11  and  C_12
REMARK    8  A    between atoms: C_17  and  O_18
REMARK    9  A    between atoms: O_18  and  C_19
REMARK                            x       y       z     vdW  Elec       q    Type
REMARK                         _______ _______ _______ _____ _____    ______ ____
ROOT
ATOM      1  P   UNL     1       6.281   5.801  16.900  0.00  0.00    +0.000 P 
ATOM      2  C   UNL     1       7.574   4.696  17.652  0.00  0.00    +0.000 C 
ATOM      3  O   UNL     1       6.553   7.311  16.875  0.00  0.00    +0.000 OA
ENDROOT
BRANCH   1   4
ATOM      4  N   UNL     1       7.298   5.714  15.442  0.00  0.00    +0.000 N 
ATOM      5  H   UNL     1       7.469   6.684  15.186  0.00  0.00    +0.000 HD
BRANCH   4   9
ATOM      6  C   UNL     1       6.150   3.307  12.162  0.00  0.00    +0.000 A 
ATOM      7  C   UNL     1       7.309   4.080  12.112  0.00  0.00    +0.000 A 
ATOM      8  C   UNL     1       7.664   4.887  13.197  0.00  0.00    +0.000 A 
ATOM      9  C   UNL     1       6.860   4.958  14.341  0.00  0.00    +0.000 A 
ATOM     10  C   UNL     1       5.708   4.149  14.384  0.00  0.00    +0.000 A 
ATOM     11  C   UNL     1       5.347   3.344  13.289  0.00  0.00    +0.000 A 
BRANCH   6  13
ATOM     12  C   UNL     1       5.993   1.169  11.159  0.00  0.00    +0.000 C 
ATOM     13  O   UNL     1       5.891   2.581  11.028  0.00  0.00    +0.000 OA
ENDBRANCH   6  13
ENDBRANCH   4   9
ENDBRANCH   1   4
BRANCH   1  14
ATOM     14  O   UNL     1       5.292   5.885  18.317  0.00  0.00    +0.000 OA
BRANCH  14  15
ATOM     15  C   UNL     1       4.130   5.084  18.428  0.00  0.00    +0.000 A 
ATOM     16  C   UNL     1       2.904   5.574  17.916  0.00  0.00    +0.000 A 
ATOM     17  C   UNL     1       1.666   4.940  18.086  0.00  0.00    +0.000 A 
ATOM     18  C   UNL     1       1.617   3.727  18.728  0.00  0.00    +0.000 A 
ATOM     19  C   UNL     1       2.803   3.184  19.199  0.00  0.00    +0.000 A 
ATOM     20  C   UNL     1       4.063   3.840  19.087  0.00  0.00    +0.000 A 
BRANCH  20  21
ATOM     21  O   UNL     1       4.972   3.111  19.791  0.00  0.00    +0.000 OA
ATOM     22  C   UNL     1       4.684   1.846  20.336  0.00  0.00    +0.000 C 
ENDBRANCH  20  21
ENDBRANCH  14  15
ENDBRANCH   1  14
TORSDOF 6
ENDMDL
MODEL 5
REMARK VINA RESULT:      -6.5      1.260      2.110
REMARK  Name = 
REMARK  9 active torsions:
REMARK  status: ('A' for Active; 'I' for Inactive)
REMARK    1  A    between atoms: C_1  and  O_2
REMARK    2  A    between atoms: O_2  and  C_3
REMARK    3  A    between atoms: C_6  and  N_7
REMARK    4  A    between atoms: N_7  and  P_8
REMARK    5  A    between atoms: P_8  and  C_9
REMARK    6  A    between atoms: P_8  and  O_11
REMARK    7  A    between atoms: O_11  and  C_12
REMARK    8  A    between atoms: C_17  and  O_18
REMARK    9  A    between atoms: O_18  and  C_19
REMARK                            x       y       z     vdW  Elec       q    Type
REMARK                         _______ _______ _______ _____ _____    ______ ____
ROOT
ATOM      1  P   UNL     1       6.283   5.811  16.885  0.00  0.00    +0.000 P 
ATOM      2  C   UNL     1       7.621   4.766  17.643  0.00  0.00    +0.000 C 
ATOM      3  O   UNL     1       6.519   7.325  16.793  0.00  0.00    +0.000 OA
ENDROOT
BRANCH   1   4
ATOM      4  N   UNL     1       7.262   5.689  15.404  0.00  0.00    +0.000 N 
ATOM      5  H   UNL     1       7.443   6.653  15.131  0.00  0.00    +0.000 HD
BRANCH   4   9
ATOM      6  C   UNL     1       5.980   3.248  12.199  0.00  0.00    +0.000 A 
ATOM      7  C   UNL     1       7.214   3.895  12.158  0.00  0.00    +0.000 A 
ATOM      8  C   UNL     1       7.615   4.716  13.216  0.00  0.00    +0.000 A 
ATOM      9  C   UNL     1       6.785   4.926  14.323  0.00  0.00    +0.000 A 
ATOM     10  C   UNL     1       5.554   4.243  14.361  0.00  0.00    +0.000 A 
ATOM     11  C   UNL     1       5.148   3.425  13.292  0.00  0.00    +0.000 A 
BRANCH   6  13
ATOM     12  C   UNL     1       6.225   1.181  11.074  0.00  0.00    +0.000 C 
ATOM     13  O   UNL     1       5.685   2.495  11.091  0.00  0.00    +0.000 OA
ENDBRANCH   6  13
ENDBRANCH   4   9
ENDBRANCH   1   4
BRANCH   1  14
ATOM     14  O   UNL     1       5.331   5.929  18.325  0.00  0.00    +0.000 OA
BRANCH  14  15
ATOM     15  C   UNL     1       4.077   5.278  18.410  0.00  0.00    +0.000 A 
ATOM     16  C   UNL     1       3.794   4.211  17.523  0.00  0.00    +0.000 A 
ATOM     17  C   UNL     1       2.546   3.581  17.417  0.00  0.00    +0.000 A 
ATOM     18  C   UNL     1       1.532   3.956  18.264  0.00  0.00    +0.000 A 
ATOM     19  C   UNL     1       1.782   4.962  19.184  0.00  0.00    +0.000 A 
ATOM     20  C   UNL     1       3.025   5.654  19.269  0.00  0.00    +0.000 A 
BRANCH  20  21
ATOM     21  O   UNL     1       2.871   6.673  20.158  0.00  0.00    +0.000 OA
ATOM     22  C   UNL     1       1.634   7.301  20.397  0.00  0.00    +0.000 C 
ENDBRANCH  20  21
ENDBRANCH  14  15
ENDBRANCH   1  14
TORSDOF 6
ENDMDL
MODEL 6
REMARK VINA RESULT:      -6.5      1.201      2.420
REMARK  Name = 
REMARK  9 active torsions:
REMARK  status: ('A' for Active; 'I' for Inactive)
REMARK    1  A    between atoms: C_1  and  O_2
REMARK    2  A    between atoms: O_2  and  C_3
REMARK    3  A    between atoms: C_6  and  N_7
REMARK    4  A    between atoms: N_7  and  P_8
REMARK    5  A    between atoms: P_8  and  C_9
REMARK    6  A    between atoms: P_8  and  O_11
REMARK    7  A    between atoms: O_11  and  C_12
REMARK    8  A    between atoms: C_17  and  O_18
REMARK    9  A    between atoms: O_18  and  C_19
REMARK                            x       y       z     vdW  Elec       q    Type
REMARK                         _______ _______ _______ _____ _____    ______ ____
ROOT
ATOM      1  P   UNL     1       6.510   5.770  17.524  0.00  0.00    +0.000 P 
ATOM      2  C   UNL     1       7.873   4.576  17.943  0.00  0.00    +0.000 C 
ATOM      3  O   UNL     1       6.807   7.270  17.646  0.00  0.00    +0.000 OA
ENDROOT
BRANCH   1   4
ATOM      4  N   UNL     1       7.309   5.862  15.937  0.00  0.00    +0.000 N 
ATOM      5  H   UNL     1       7.374   6.858  15.735  0.00  0.00    +0.000 HD
BRANCH   4   9
ATOM      6  C   UNL     1       5.840   3.565  12.705  0.00  0.00    +0.000 A 
ATOM      7  C   UNL     1       7.081   4.198  12.630  0.00  0.00    +0.000 A 
ATOM      8  C   UNL     1       7.543   4.970  13.699  0.00  0.00    +0.000 A 
ATOM      9  C   UNL     1       6.770   5.149  14.852  0.00  0.00    +0.000 A 
ATOM     10  C   UNL     1       5.532   4.480  14.922  0.00  0.00    +0.000 A 
ATOM     11  C   UNL     1       5.063   3.710  13.843  0.00  0.00    +0.000 A 
BRANCH   6  13
ATOM     12  C   UNL     1       4.137   3.024  11.155  0.00  0.00    +0.000 C 
ATOM     13  O   UNL     1       5.482   2.861  11.585  0.00  0.00    +0.000 OA
ENDBRANCH   6  13
ENDBRANCH   4   9
ENDBRANCH   1   4
BRANCH   1  14
ATOM     14  O   UNL     1       5.733   5.680  19.068  0.00  0.00    +0.000 OA
BRANCH  14  15
ATOM     15  C   UNL     1       4.485   5.027  19.204  0.00  0.00    +0.000 A 
ATOM     16  C   UNL     1       4.439   3.612  19.164  0.00  0.00    +0.000 A 
ATOM     17  C   UNL     1       3.256   2.860  19.151  0.00  0.00    +0.000 A 
ATOM     18  C   UNL     1       2.049   3.506  19.251  0.00  0.00    +0.000 A 
ATOM     19  C   UNL     1       2.050   4.890  19.346  0.00  0.00    +0.000 A 
ATOM     20  C   UNL     1       3.237   5.676  19.304  0.00  0.00    +0.000 A 
BRANCH  20  21
ATOM     21  O   UNL     1       2.864   6.984  19.257  0.00  0.00    +0.000 OA
ATOM     22  C   UNL     1       2.748   7.707  18.055  0.00  0.00    +0.000 C 
ENDBRANCH  20  21
ENDBRANCH  14  15
ENDBRANCH   1  14
TORSDOF 6
ENDMDL
MODEL 7
REMARK VINA RESULT:      -6.5      1.363      1.430
REMARK  Name = 
REMARK  9 active torsions:
REMARK  status: ('A' for Active; 'I' for Inactive)
REMARK    1  A    between atoms: C_1  and  O_2
REMARK    2  A    between atoms: O_2  and  C_3
REMARK    3  A    between atoms: C_6  and  N_7
REMARK    4  A    between atoms: N_7  and  P_8
REMARK    5  A    between atoms: P_8  and  C_9
REMARK    6  A    between atoms: P_8  and  O_11
REMARK    7  A    between atoms: O_11  and  C_12
REMARK    8  A    between atoms: C_17  and  O_18
REMARK    9  A    between atoms: O_18  and  C_19
REMARK                            x       y       z     vdW  Elec       q    Type
REMARK                         _______ _______ _______ _____ _____    ______ ____
ROOT
ATOM      1  P   UNL     1       6.308   5.717  17.911  0.00  0.00    +0.000 P 
ATOM      2  C   UNL     1       7.927   6.189  18.696  0.00  0.00    +0.000 C 
ATOM      3  O   UNL     1       5.371   6.846  17.462  0.00  0.00    +0.000 OA
ENDROOT
BRANCH   1   4
ATOM      4  N   UNL     1       7.169   5.982  16.377  0.00  0.00    +0.000 N 
ATOM      5  H   UNL     1       7.033   6.969  16.169  0.00  0.00    +0.000 HD
BRANCH   4   9
ATOM      6  C   UNL     1       6.067   3.657  13.021  0.00  0.00    +0.000 A 
ATOM      7  C   UNL     1       5.377   3.546  14.228  0.00  0.00    +0.000 A 
ATOM      8  C   UNL     1       5.767   4.306  15.334  0.00  0.00    +0.000 A 
ATOM      9  C   UNL     1       6.865   5.172  15.268  0.00  0.00    +0.000 A 
ATOM     10  C   UNL     1       7.532   5.293  14.033  0.00  0.00    +0.000 A 
ATOM     11  C   UNL     1       7.145   4.522  12.923  0.00  0.00    +0.000 A 
BRANCH   6  13
ATOM     12  C   UNL     1       4.380   3.223  11.419  0.00  0.00    +0.000 C 
ATOM     13  O   UNL     1       5.611   2.841  12.018  0.00  0.00    +0.000 OA
ENDBRANCH   6  13
ENDBRANCH   4   9
ENDBRANCH   1   4
BRANCH   1  14
ATOM     14  O   UNL     1       5.472   5.459  19.404  0.00  0.00    +0.000 OA
BRANCH  14  15
ATOM     15  C   UNL     1       4.118   5.047  19.404  0.00  0.00    +0.000 A 
ATOM     16  C   UNL     1       3.139   5.900  19.969  0.00  0.00    +0.000 A 
ATOM     17  C   UNL     1       1.794   5.549  20.152  0.00  0.00    +0.000 A 
ATOM     18  C   UNL     1       1.353   4.329  19.701  0.00  0.00    +0.000 A 
ATOM     19  C   UNL     1       2.268   3.483  19.094  0.00  0.00    +0.000 A 
ATOM     20  C   UNL     1       3.650   3.798  18.950  0.00  0.00    +0.000 A 
BRANCH  20  21
ATOM     21  O   UNL     1       4.277   2.691  18.465  0.00  0.00    +0.000 OA
ATOM     22  C   UNL     1       3.606   1.481  18.205  0.00  0.00    +0.000 C 
ENDBRANCH  20  21
ENDBRANCH  14  15
ENDBRANCH   1  14
TORSDOF 6
ENDMDL
MODEL 8
REMARK VINA RESULT:      -6.3      1.003      1.493
REMARK  Name = 
REMARK  9 active torsions:
REMARK  status: ('A' for Active; 'I' for Inactive)
REMARK    1  A    between atoms: C_1  and  O_2
REMARK    2  A    between atoms: O_2  and  C_3
REMARK    3  A    between atoms: C_6  and  N_7
REMARK    4  A    between atoms: N_7  and  P_8
REMARK    5  A    between atoms: P_8  and  C_9
REMARK    6  A    between atoms: P_8  and  O_11
REMARK    7  A    between atoms: O_11  and  C_12
REMARK    8  A    between atoms: C_17  and  O_18
REMARK    9  A    between atoms: O_18  and  C_19
REMARK                            x       y       z     vdW  Elec       q    Type
REMARK                         _______ _______ _______ _____ _____    ______ ____
ROOT
ATOM      1  P   UNL     1       6.351   5.745  17.255  0.00  0.00    +0.000 P 
ATOM      2  C   UNL     1       7.705   4.497  17.512  0.00  0.00    +0.000 C 
ATOM      3  O   UNL     1       6.688   7.226  17.476  0.00  0.00    +0.000 OA
ENDROOT
BRANCH   1   4
ATOM      4  N   UNL     1       7.074   5.944  15.641  0.00  0.00    +0.000 N 
ATOM      5  H   UNL     1       6.954   6.931  15.422  0.00  0.00    +0.000 HD
BRANCH   4   9
ATOM      6  C   UNL     1       5.920   3.335  12.521  0.00  0.00    +0.000 A 
ATOM      7  C   UNL     1       7.141   4.008  12.478  0.00  0.00    +0.000 A 
ATOM      8  C   UNL     1       7.499   4.883  13.507  0.00  0.00    +0.000 A 
ATOM      9  C   UNL     1       6.638   5.124  14.585  0.00  0.00    +0.000 A 
ATOM     10  C   UNL     1       5.422   4.415  14.626  0.00  0.00    +0.000 A 
ATOM     11  C   UNL     1       5.059   3.541  13.586  0.00  0.00    +0.000 A 
BRANCH   6  13
ATOM     12  C   UNL     1       6.704   1.621  11.091  0.00  0.00    +0.000 C 
ATOM     13  O   UNL     1       5.667   2.527  11.442  0.00  0.00    +0.000 OA
ENDBRANCH   6  13
ENDBRANCH   4   9
ENDBRANCH   1   4
BRANCH   1  14
ATOM     14  O   UNL     1       5.648   5.550  18.824  0.00  0.00    +0.000 OA
BRANCH  14  15
ATOM     15  C   UNL     1       4.279   5.221  18.960  0.00  0.00    +0.000 A 
ATOM     16  C   UNL     1       3.420   6.117  19.643  0.00  0.00    +0.000 A 
ATOM     17  C   UNL     1       2.083   5.842  19.959  0.00  0.00    +0.000 A 
ATOM     18  C   UNL     1       1.520   4.664  19.533  0.00  0.00    +0.000 A 
ATOM     19  C   UNL     1       2.312   3.780  18.815  0.00  0.00    +0.000 A 
ATOM     20  C   UNL     1       3.688   4.015  18.532  0.00  0.00    +0.000 A 
BRANCH  20  21
ATOM     21  O   UNL     1       4.191   2.886  17.960  0.00  0.00    +0.000 OA
ATOM     22  C   UNL     1       3.622   1.613  18.149  0.00  0.00    +0.000 C 
ENDBRANCH  20  21
ENDBRANCH  14  15
ENDBRANCH   1  14
TORSDOF 6
ENDMDL
MODEL 9
REMARK VINA RESULT:      -6.3      2.118      6.216
REMARK  Name = 
REMARK  9 active torsions:
REMARK  status: ('A' for Active; 'I' for Inactive)
REMARK    1  A    between atoms: C_1  and  O_2
REMARK    2  A    between atoms: O_2  and  C_3
REMARK    3  A    between atoms: C_6  and  N_7
REMARK    4  A    between atoms: N_7  and  P_8
REMARK    5  A    between atoms: P_8  and  C_9
REMARK    6  A    between atoms: P_8  and  O_11
REMARK    7  A    between atoms: O_11  and  C_12
REMARK    8  A    between atoms: C_17  and  O_18
REMARK    9  A    between atoms: O_18  and  C_19
REMARK                            x       y       z     vdW  Elec       q    Type
REMARK                         _______ _______ _______ _____ _____    ______ ____
ROOT
ATOM      1  P   UNL     1       7.177   5.473  17.394  0.00  0.00    +0.000 P 
ATOM      2  C   UNL     1       7.727   7.084  18.142  0.00  0.00    +0.000 C 
ATOM      3  O   UNL     1       8.132   4.275  17.484  0.00  0.00    +0.000 OA
ENDROOT
BRANCH   1   4
ATOM      4  N   UNL     1       6.693   5.061  19.056  0.00  0.00    +0.000 N 
ATOM      5  H   UNL     1       7.383   4.381  19.367  0.00  0.00    +0.000 HD
BRANCH   4   9
ATOM      6  C   UNL     1       2.701   3.776  19.590  0.00  0.00    +0.000 A 
ATOM      7  C   UNL     1       2.999   5.122  19.381  0.00  0.00    +0.000 A 
ATOM      8  C   UNL     1       4.325   5.534  19.227  0.00  0.00    +0.000 A 
ATOM      9  C   UNL     1       5.382   4.618  19.302  0.00  0.00    +0.000 A 
ATOM     10  C   UNL     1       5.060   3.260  19.486  0.00  0.00    +0.000 A 
ATOM     11  C   UNL     1       3.726   2.847  19.650  0.00  0.00    +0.000 A 
BRANCH   6  13
ATOM     12  C   UNL     1       0.796   2.616  18.801  0.00  0.00    +0.000 C 
ATOM     13  O   UNL     1       1.368   3.499  19.756  0.00  0.00    +0.000 OA
ENDBRANCH   6  13
ENDBRANCH   4   9
ENDBRANCH   1   4
BRANCH   1  14
ATOM     14  O   UNL     1       7.646   5.874  15.778  0.00  0.00    +0.000 OA
BRANCH  14  15
ATOM     15  C   UNL     1       7.238   5.065  14.691  0.00  0.00    +0.000 A 
ATOM     16  C   UNL     1       7.779   5.311  13.406  0.00  0.00    +0.000 A 
ATOM     17  C   UNL     1       7.355   4.673  12.233  0.00  0.00    +0.000 A 
ATOM     18  C   UNL     1       6.400   3.689  12.313  0.00  0.00    +0.000 A 
ATOM     19  C   UNL     1       5.880   3.378  13.560  0.00  0.00    +0.000 A 
ATOM     20  C   UNL     1       6.256   4.054  14.756  0.00  0.00    +0.000 A 
BRANCH  20  21
ATOM     21  O   UNL     1       5.443   3.613  15.754  0.00  0.00    +0.000 OA
ATOM     22  C   UNL     1       4.133   4.092  15.945  0.00  0.00    +0.000 C 
ENDBRANCH  20  21
ENDBRANCH  14  15
ENDBRANCH   1  14
TORSDOF 6
ENDMDL
