MODEL 1
REMARK VINA RESULT:      -9.5      0.000      0.000
REMARK  Name = 
REMARK  9 active torsions:
REMARK  status: ('A' for Active; 'I' for Inactive)
REMARK    1  A    between atoms: C_1  and  O_2
REMARK    2  A    between atoms: O_2  and  C_3
REMARK    3  A    between atoms: C_5  and  C_6
REMARK    4  A    between atoms: N_8  and  C_9
REMARK    5  A    between atoms: C_13  and  C_14
REMARK    6  A    between atoms: N_16  and  C_17
REMARK    7  A    between atoms: C_19  and  C_20
REMARK    8  A    between atoms: C_32  and  O_33
REMARK    9  A    between atoms: O_33  and  C_34
REMARK                            x       y       z     vdW  Elec       q    Type
REMARK                         _______ _______ _______ _____ _____    ______ ____
ROOT
ATOM      1  C   UNL     1       0.109   9.960  20.954  0.00  0.00    +0.000 A 
ATOM      2  C   UNL     1       0.618   8.726  21.294  0.00  0.00    +0.000 A 
ATOM      3  N   UNL     1       1.302   8.296  20.185  0.00  0.00    +0.000 N 
ATOM      4  N   UNL     1       1.838   7.053  20.008  0.00  0.00    +0.000 NA
ATOM      5  C   UNL     1       2.321   6.879  18.815  0.00  0.00    +0.000 A 
ATOM      6  C   UNL     1       2.420   7.918  17.750  0.00  0.00    +0.000 A 
ATOM      7  C   UNL     1       1.864   9.108  18.011  0.00  0.00    +0.000 A 
ATOM      8  C   UNL     1       1.231   9.316  19.255  0.00  0.00    +0.000 A 
ATOM      9  N   UNL     1       0.517  10.327  19.704  0.00  0.00    +0.000 NA
ENDROOT
BRANCH   5  10
ATOM     10  C   UNL     1       2.747   5.550  18.401  0.00  0.00    +0.000 A 
ATOM     11  C   UNL     1       1.933   4.443  18.223  0.00  0.00    +0.000 A 
ATOM     12  N   UNL     1       2.754   3.406  17.902  0.00  0.00    +0.000 N 
ATOM     13  C   UNL     1       2.375   2.024  17.725  0.00  0.00    +0.000 C 
ATOM     14  N   UNL     1       4.043   3.752  17.813  0.00  0.00    +0.000 NA
ATOM     15  C   UNL     1       4.077   5.057  18.143  0.00  0.00    +0.000 A 
BRANCH  15  16
ATOM     16  C   UNL     1       5.372   5.747  18.256  0.00  0.00    +0.000 A 
ATOM     17  C   UNL     1       5.700   6.788  17.371  0.00  0.00    +0.000 A 
ATOM     18  C   UNL     1       6.931   7.447  17.471  0.00  0.00    +0.000 A 
ATOM     19  C   UNL     1       7.831   7.074  18.461  0.00  0.00    +0.000 A 
ATOM     20  F   UNL     1       9.004   7.711  18.566  0.00  0.00    +0.000 F 
ATOM     21  C   UNL     1       7.536   6.041  19.337  0.00  0.00    +0.000 A 
ATOM     22  C   UNL     1       6.321   5.364  19.217  0.00  0.00    +0.000 A 
ENDBRANCH  15  16
ENDBRANCH   5  10
BRANCH   1  25
ATOM     23  C   UNL     1      -0.441  12.050  22.086  0.00  0.00    +0.000 C 
ATOM     24  O   UNL     1       0.507  12.735  21.719  0.00  0.00    +0.000 OA
ATOM     25  N   UNL     1      -0.707  10.735  21.746  0.00  0.00    +0.000 N 
ATOM     26  H   UNL     1      -1.589  10.345  22.054  0.00  0.00    +0.000 HD
BRANCH  23  29
ATOM     27  C   UNL     1      -2.255  14.428  24.277  0.00  0.00    +0.000 A 
ATOM     28  C   UNL     1      -1.253  13.938  23.484  0.00  0.00    +0.000 A 
ATOM     29  C   UNL     1      -1.478  12.677  22.970  0.00  0.00    +0.000 A 
ATOM     30  N   UNL     1      -2.596  11.945  23.210  0.00  0.00    +0.000 NA
ATOM     31  C   UNL     1      -3.492  12.536  24.016  0.00  0.00    +0.000 A 
ATOM     32  N   UNL     1      -3.377  13.751  24.554  0.00  0.00    +0.000 NA
BRANCH  27  34
ATOM     33  C   UNL     1      -1.110  15.695  25.877  0.00  0.00    +0.000 C 
ATOM     34  O   UNL     1      -2.072  15.683  24.822  0.00  0.00    +0.000 OA
ENDBRANCH  27  34
BRANCH  31  35
ATOM     35  O   UNL     1      -4.655  11.891  24.362  0.00  0.00    +0.000 OA
ATOM     36  C   UNL     1      -5.821  12.669  24.161  0.00  0.00    +0.000 C 
ENDBRANCH  31  35
ENDBRANCH  23  29
ENDBRANCH   1  25
TORSDOF 6
ENDMDL
MODEL 2
REMARK VINA RESULT:      -9.4      0.488      1.971
REMARK  Name = 
REMARK  9 active torsions:
REMARK  status: ('A' for Active; 'I' for Inactive)
REMARK    1  A    between atoms: C_1  and  O_2
REMARK    2  A    between atoms: O_2  and  C_3
REMARK    3  A    between atoms: C_5  and  C_6
REMARK    4  A    between atoms: N_8  and  C_9
REMARK    5  A    between atoms: C_13  and  C_14
REMARK    6  A    between atoms: N_16  and  C_17
REMARK    7  A    between atoms: C_19  and  C_20
REMARK    8  A    between atoms: C_32  and  O_33
REMARK    9  A    between atoms: O_33  and  C_34
REMARK                            x       y       z     vdW  Elec       q    Type
REMARK                         _______ _______ _______ _____ _____    ______ ____
ROOT
ATOM      1  C   UNL     1       0.132   9.950  20.992  0.00  0.00    +0.000 A 
ATOM      2  C   UNL     1       0.662   8.730  21.350  0.00  0.00    +0.000 A 
ATOM      3  N   UNL     1       1.326   8.281  20.236  0.00  0.00    +0.000 N 
ATOM      4  N   UNL     1       1.871   7.040  20.077  0.00  0.00    +0.000 NA
ATOM      5  C   UNL     1       2.328   6.842  18.877  0.00  0.00    +0.000 A 
ATOM      6  C   UNL     1       2.391   7.855  17.786  0.00  0.00    +0.000 A 
ATOM      7  C   UNL     1       1.828   9.045  18.030  0.00  0.00    +0.000 A 
ATOM      8  C   UNL     1       1.222   9.277  19.283  0.00  0.00    +0.000 A 
ATOM      9  N   UNL     1       0.507  10.291  19.724  0.00  0.00    +0.000 NA
ENDROOT
BRANCH   5  10
ATOM     10  C   UNL     1       2.759   5.507  18.486  0.00  0.00    +0.000 A 
ATOM     11  C   UNL     1       1.952   4.391  18.337  0.00  0.00    +0.000 A 
ATOM     12  N   UNL     1       2.776   3.354  18.029  0.00  0.00    +0.000 N 
ATOM     13  C   UNL     1       2.404   1.967  17.882  0.00  0.00    +0.000 C 
ATOM     14  N   UNL     1       4.062   3.706  17.922  0.00  0.00    +0.000 NA
ATOM     15  C   UNL     1       4.090   5.017  18.226  0.00  0.00    +0.000 A 
BRANCH  15  16
ATOM     16  C   UNL     1       5.382   5.718  18.314  0.00  0.00    +0.000 A 
ATOM     17  C   UNL     1       5.705   6.729  17.393  0.00  0.00    +0.000 A 
ATOM     18  C   UNL     1       6.932   7.397  17.470  0.00  0.00    +0.000 A 
ATOM     19  C   UNL     1       7.834   7.064  18.473  0.00  0.00    +0.000 A 
ATOM     20  F   UNL     1       9.004   7.710  18.555  0.00  0.00    +0.000 F 
ATOM     21  C   UNL     1       7.545   6.061  19.385  0.00  0.00    +0.000 A 
ATOM     22  C   UNL     1       6.332   5.374  19.289  0.00  0.00    +0.000 A 
ENDBRANCH  15  16
ENDBRANCH   5  10
BRANCH   1  25
ATOM     23  C   UNL     1      -0.412  12.060  22.089  0.00  0.00    +0.000 C 
ATOM     24  O   UNL     1       0.522  12.745  21.687  0.00  0.00    +0.000 OA
ATOM     25  N   UNL     1      -0.674  10.736  21.784  0.00  0.00    +0.000 N 
ATOM     26  H   UNL     1      -1.546  10.345  22.119  0.00  0.00    +0.000 HD
BRANCH  23  29
ATOM     27  C   UNL     1      -3.473  12.674  24.090  0.00  0.00    +0.000 A 
ATOM     28  C   UNL     1      -2.600  12.014  23.268  0.00  0.00    +0.000 A 
ATOM     29  C   UNL     1      -1.437  12.698  22.980  0.00  0.00    +0.000 A 
ATOM     30  N   UNL     1      -1.143  13.935  23.456  0.00  0.00    +0.000 NA
ATOM     31  C   UNL     1      -2.090  14.475  24.238  0.00  0.00    +0.000 A 
ATOM     32  N   UNL     1      -3.241  13.896  24.586  0.00  0.00    +0.000 NA
BRANCH  27  34
ATOM     33  C   UNL     1      -5.808  12.821  24.101  0.00  0.00    +0.000 C 
ATOM     34  O   UNL     1      -4.656  12.033  24.401  0.00  0.00    +0.000 OA
ENDBRANCH  27  34
BRANCH  31  35
ATOM     35  O   UNL     1      -1.931  15.736  24.762  0.00  0.00    +0.000 OA
ATOM     36  C   UNL     1      -0.778  15.876  25.573  0.00  0.00    +0.000 C 
ENDBRANCH  31  35
ENDBRANCH  23  29
ENDBRANCH   1  25
TORSDOF 6
ENDMDL
MODEL 3
REMARK VINA RESULT:      -8.9      0.940      2.252
REMARK  Name = 
REMARK  9 active torsions:
REMARK  status: ('A' for Active; 'I' for Inactive)
REMARK    1  A    between atoms: C_1  and  O_2
REMARK    2  A    between atoms: O_2  and  C_3
REMARK    3  A    between atoms: C_5  and  C_6
REMARK    4  A    between atoms: N_8  and  C_9
REMARK    5  A    between atoms: C_13  and  C_14
REMARK    6  A    between atoms: N_16  and  C_17
REMARK    7  A    between atoms: C_19  and  C_20
REMARK    8  A    between atoms: C_32  and  O_33
REMARK    9  A    between atoms: O_33  and  C_34
REMARK                            x       y       z     vdW  Elec       q    Type
REMARK                         _______ _______ _______ _____ _____    ______ ____
ROOT
ATOM      1  C   UNL     1       0.324  10.434  20.614  0.00  0.00    +0.000 A 
ATOM      2  C   UNL     1       0.794   9.222  21.069  0.00  0.00    +0.000 A 
ATOM      3  N   UNL     1       1.410   8.642  19.988  0.00  0.00    +0.000 N 
ATOM      4  N   UNL     1       1.883   7.363  19.931  0.00  0.00    +0.000 NA
ATOM      5  C   UNL     1       2.305   7.036  18.746  0.00  0.00    +0.000 A 
ATOM      6  C   UNL     1       2.401   7.946  17.569  0.00  0.00    +0.000 A 
ATOM      7  C   UNL     1       1.909   9.183  17.717  0.00  0.00    +0.000 A 
ATOM      8  C   UNL     1       1.341   9.556  18.954  0.00  0.00    +0.000 A 
ATOM      9  N   UNL     1       0.692  10.643  19.316  0.00  0.00    +0.000 NA
ENDROOT
BRANCH   5  10
ATOM     10  C   UNL     1       2.655   5.651  18.467  0.00  0.00    +0.000 A 
ATOM     11  C   UNL     1       1.779   4.581  18.386  0.00  0.00    +0.000 A 
ATOM     12  N   UNL     1       2.540   3.472  18.175  0.00  0.00    +0.000 N 
ATOM     13  C   UNL     1       2.081   2.104  18.127  0.00  0.00    +0.000 C 
ATOM     14  N   UNL     1       3.847   3.733  18.069  0.00  0.00    +0.000 NA
ATOM     15  C   UNL     1       3.955   5.059  18.272  0.00  0.00    +0.000 A 
BRANCH  15  16
ATOM     16  C   UNL     1       5.287   5.681  18.333  0.00  0.00    +0.000 A 
ATOM     17  C   UNL     1       6.199   5.311  19.336  0.00  0.00    +0.000 A 
ATOM     18  C   UNL     1       7.466   5.900  19.401  0.00  0.00    +0.000 A 
ATOM     19  C   UNL     1       7.830   6.853  18.457  0.00  0.00    +0.000 A 
ATOM     20  F   UNL     1       9.046   7.409  18.511  0.00  0.00    +0.000 F 
ATOM     21  C   UNL     1       6.944   7.246  17.466  0.00  0.00    +0.000 A 
ATOM     22  C   UNL     1       5.668   6.679  17.421  0.00  0.00    +0.000 A 
ENDBRANCH  15  16
ENDBRANCH   5  10
BRANCH   1  25
ATOM     23  C   UNL     1      -0.685  11.200  22.699  0.00  0.00    +0.000 C 
ATOM     24  O   UNL     1      -0.279  10.325  23.455  0.00  0.00    +0.000 OA
ATOM     25  N   UNL     1      -0.422  11.329  21.346  0.00  0.00    +0.000 N 
ATOM     26  H   UNL     1      -0.753  12.168  20.886  0.00  0.00    +0.000 HD
BRANCH  23  29
ATOM     27  C   UNL     1      -3.556  13.120  24.049  0.00  0.00    +0.000 A 
ATOM     28  C   UNL     1      -2.865  12.058  23.532  0.00  0.00    +0.000 A 
ATOM     29  C   UNL     1      -1.532  12.301  23.267  0.00  0.00    +0.000 A 
ATOM     30  N   UNL     1      -0.917  13.490  23.487  0.00  0.00    +0.000 NA
ATOM     31  C   UNL     1      -1.712  14.451  23.983  0.00  0.00    +0.000 A 
ATOM     32  N   UNL     1      -3.005  14.318  24.283  0.00  0.00    +0.000 NA
BRANCH  27  34
ATOM     33  C   UNL     1      -5.749  13.441  23.300  0.00  0.00    +0.000 C 
ATOM     34  O   UNL     1      -4.895  12.928  24.323  0.00  0.00    +0.000 OA
ENDBRANCH  27  34
BRANCH  31  35
ATOM     35  O   UNL     1      -1.220  15.711  24.225  0.00  0.00    +0.000 OA
ATOM     36  C   UNL     1      -0.445  16.237  23.163  0.00  0.00    +0.000 C 
ENDBRANCH  31  35
ENDBRANCH  23  29
ENDBRANCH   1  25
TORSDOF 6
ENDMDL
MODEL 4
REMARK VINA RESULT:      -8.6      1.218      2.186
REMARK  Name = 
REMARK  9 active torsions:
REMARK  status: ('A' for Active; 'I' for Inactive)
REMARK    1  A    between atoms: C_1  and  O_2
REMARK    2  A    between atoms: O_2  and  C_3
REMARK    3  A    between atoms: C_5  and  C_6
REMARK    4  A    between atoms: N_8  and  C_9
REMARK    5  A    between atoms: C_13  and  C_14
REMARK    6  A    between atoms: N_16  and  C_17
REMARK    7  A    between atoms: C_19  and  C_20
REMARK    8  A    between atoms: C_32  and  O_33
REMARK    9  A    between atoms: O_33  and  C_34
REMARK                            x       y       z     vdW  Elec       q    Type
REMARK                         _______ _______ _______ _____ _____    ______ ____
ROOT
ATOM      1  C   UNL     1       0.398  10.722  20.921  0.00  0.00    +0.000 A 
ATOM      2  C   UNL     1       0.913   9.564  21.462  0.00  0.00    +0.000 A 
ATOM      3  N   UNL     1       1.381   8.841  20.394  0.00  0.00    +0.000 N 
ATOM      4  N   UNL     1       1.835   7.554  20.439  0.00  0.00    +0.000 NA
ATOM      5  C   UNL     1       2.100   7.074  19.261  0.00  0.00    +0.000 A 
ATOM      6  C   UNL     1       2.053   7.829  17.977  0.00  0.00    +0.000 A 
ATOM      7  C   UNL     1       1.593   9.085  18.029  0.00  0.00    +0.000 A 
ATOM      8  C   UNL     1       1.189   9.622  19.270  0.00  0.00    +0.000 A 
ATOM      9  N   UNL     1       0.599  10.760  19.571  0.00  0.00    +0.000 NA
ENDROOT
BRANCH   5  10
ATOM     10  C   UNL     1       2.401   5.657  19.116  0.00  0.00    +0.000 A 
ATOM     11  C   UNL     1       1.530   4.603  19.341  0.00  0.00    +0.000 A 
ATOM     12  N   UNL     1       2.246   3.462  19.151  0.00  0.00    +0.000 N 
ATOM     13  C   UNL     1       1.793   2.109  19.373  0.00  0.00    +0.000 C 
ATOM     14  N   UNL     1       3.512   3.680  18.778  0.00  0.00    +0.000 NA
ATOM     15  C   UNL     1       3.648   5.019  18.776  0.00  0.00    +0.000 A 
BRANCH  15  16
ATOM     16  C   UNL     1       4.967   5.617  18.512  0.00  0.00    +0.000 A 
ATOM     17  C   UNL     1       5.146   6.490  17.426  0.00  0.00    +0.000 A 
ATOM     18  C   UNL     1       6.397   7.060  17.168  0.00  0.00    +0.000 A 
ATOM     19  C   UNL     1       7.470   6.768  18.001  0.00  0.00    +0.000 A 
ATOM     20  F   UNL     1       8.665   7.322  17.763  0.00  0.00    +0.000 F 
ATOM     21  C   UNL     1       7.323   5.899  19.071  0.00  0.00    +0.000 A 
ATOM     22  C   UNL     1       6.080   5.307  19.309  0.00  0.00    +0.000 A 
ENDBRANCH  15  16
ENDBRANCH   5  10
BRANCH   1  25
ATOM     23  C   UNL     1      -1.067  11.495  22.712  0.00  0.00    +0.000 C 
ATOM     24  O   UNL     1      -1.322  10.421  23.244  0.00  0.00    +0.000 OA
ATOM     25  N   UNL     1      -0.243  11.718  21.622  0.00  0.00    +0.000 N 
ATOM     26  H   UNL     1      -0.058  12.680  21.368  0.00  0.00    +0.000 HD
BRANCH  23  29
ATOM     27  C   UNL     1      -3.475  14.043  23.919  0.00  0.00    +0.000 A 
ATOM     28  C   UNL     1      -3.030  12.872  23.368  0.00  0.00    +0.000 A 
ATOM     29  C   UNL     1      -1.658  12.744  23.299  0.00  0.00    +0.000 A 
ATOM     30  N   UNL     1      -0.782  13.685  23.733  0.00  0.00    +0.000 NA
ATOM     31  C   UNL     1      -1.350  14.791  24.238  0.00  0.00    +0.000 A 
ATOM     32  N   UNL     1      -2.661  15.010  24.360  0.00  0.00    +0.000 NA
BRANCH  27  34
ATOM     33  C   UNL     1      -5.566  12.992  23.946  0.00  0.00    +0.000 C 
ATOM     34  O   UNL     1      -4.842  14.222  24.003  0.00  0.00    +0.000 OA
ENDBRANCH  27  34
BRANCH  31  35
ATOM     35  O   UNL     1      -0.576  15.834  24.687  0.00  0.00    +0.000 OA
ATOM     36  C   UNL     1      -1.219  17.094  24.618  0.00  0.00    +0.000 C 
ENDBRANCH  31  35
ENDBRANCH  23  29
ENDBRANCH   1  25
TORSDOF 6
ENDMDL
MODEL 5
REMARK VINA RESULT:      -8.5      1.119      2.110
REMARK  Name = 
REMARK  9 active torsions:
REMARK  status: ('A' for Active; 'I' for Inactive)
REMARK    1  A    between atoms: C_1  and  O_2
REMARK    2  A    between atoms: O_2  and  C_3
REMARK    3  A    between atoms: C_5  and  C_6
REMARK    4  A    between atoms: N_8  and  C_9
REMARK    5  A    between atoms: C_13  and  C_14
REMARK    6  A    between atoms: N_16  and  C_17
REMARK    7  A    between atoms: C_19  and  C_20
REMARK    8  A    between atoms: C_32  and  O_33
REMARK    9  A    between atoms: O_33  and  C_34
REMARK                            x       y       z     vdW  Elec       q    Type
REMARK                         _______ _______ _______ _____ _____    ______ ____
ROOT
ATOM      1  C   UNL     1       0.400  10.409  20.828  0.00  0.00    +0.000 A 
ATOM      2  C   UNL     1       0.905   9.195  21.239  0.00  0.00    +0.000 A 
ATOM      3  N   UNL     1       1.442   8.625  20.112  0.00  0.00    +0.000 N 
ATOM      4  N   UNL     1       1.913   7.347  20.011  0.00  0.00    +0.000 NA
ATOM      5  C   UNL     1       2.248   7.031  18.796  0.00  0.00    +0.000 A 
ATOM      6  C   UNL     1       2.257   7.949  17.622  0.00  0.00    +0.000 A 
ATOM      7  C   UNL     1       1.773   9.183  17.815  0.00  0.00    +0.000 A 
ATOM      8  C   UNL     1       1.296   9.546  19.092  0.00  0.00    +0.000 A 
ATOM      9  N   UNL     1       0.672  10.628  19.508  0.00  0.00    +0.000 NA
ENDROOT
BRANCH   5  10
ATOM     10  C   UNL     1       2.581   5.648  18.482  0.00  0.00    +0.000 A 
ATOM     11  C   UNL     1       1.693   4.589  18.390  0.00  0.00    +0.000 A 
ATOM     12  N   UNL     1       2.439   3.478  18.144  0.00  0.00    +0.000 N 
ATOM     13  C   UNL     1       1.966   2.116  18.072  0.00  0.00    +0.000 C 
ATOM     14  N   UNL     1       3.748   3.728  18.027  0.00  0.00    +0.000 NA
ATOM     15  C   UNL     1       3.872   5.048  18.258  0.00  0.00    +0.000 A 
BRANCH  15  16
ATOM     16  C   UNL     1       5.211   5.655  18.315  0.00  0.00    +0.000 A 
ATOM     17  C   UNL     1       6.126   5.266  19.309  0.00  0.00    +0.000 A 
ATOM     18  C   UNL     1       7.400   5.842  19.370  0.00  0.00    +0.000 A 
ATOM     19  C   UNL     1       7.767   6.799  18.433  0.00  0.00    +0.000 A 
ATOM     20  F   UNL     1       8.990   7.342  18.483  0.00  0.00    +0.000 F 
ATOM     21  C   UNL     1       6.879   7.210  17.451  0.00  0.00    +0.000 A 
ATOM     22  C   UNL     1       5.597   6.657  17.409  0.00  0.00    +0.000 A 
ENDBRANCH  15  16
ENDBRANCH   5  10
BRANCH   1  25
ATOM     23  C   UNL     1      -1.467  11.924  21.239  0.00  0.00    +0.000 C 
ATOM     24  O   UNL     1      -2.088  11.770  20.194  0.00  0.00    +0.000 OA
ATOM     25  N   UNL     1      -0.293  11.296  21.619  0.00  0.00    +0.000 N 
ATOM     26  H   UNL     1       0.037  11.460  22.562  0.00  0.00    +0.000 HD
BRANCH  23  29
ATOM     27  C   UNL     1      -3.807  13.911  23.319  0.00  0.00    +0.000 A 
ATOM     28  C   UNL     1      -3.391  13.045  22.345  0.00  0.00    +0.000 A 
ATOM     29  C   UNL     1      -2.026  12.857  22.274  0.00  0.00    +0.000 A 
ATOM     30  N   UNL     1      -1.130  13.467  23.090  0.00  0.00    +0.000 NA
ATOM     31  C   UNL     1      -1.669  14.302  23.991  0.00  0.00    +0.000 A 
ATOM     32  N   UNL     1      -2.971  14.546  24.150  0.00  0.00    +0.000 NA
BRANCH  27  34
ATOM     33  C   UNL     1      -5.472  15.444  23.915  0.00  0.00    +0.000 C 
ATOM     34  O   UNL     1      -5.165  14.139  23.424  0.00  0.00    +0.000 OA
ENDBRANCH  27  34
BRANCH  31  35
ATOM     35  O   UNL     1      -0.870  15.006  24.860  0.00  0.00    +0.000 OA
ATOM     36  C   UNL     1      -1.388  16.276  25.212  0.00  0.00    +0.000 C 
ENDBRANCH  31  35
ENDBRANCH  23  29
ENDBRANCH   1  25
TORSDOF 6
ENDMDL
MODEL 6
REMARK VINA RESULT:      -8.5      4.473     10.886
REMARK  Name = 
REMARK  9 active torsions:
REMARK  status: ('A' for Active; 'I' for Inactive)
REMARK    1  A    between atoms: C_1  and  O_2
REMARK    2  A    between atoms: O_2  and  C_3
REMARK    3  A    between atoms: C_5  and  C_6
REMARK    4  A    between atoms: N_8  and  C_9
REMARK    5  A    between atoms: C_13  and  C_14
REMARK    6  A    between atoms: N_16  and  C_17
REMARK    7  A    between atoms: C_19  and  C_20
REMARK    8  A    between atoms: C_32  and  O_33
REMARK    9  A    between atoms: O_33  and  C_34
REMARK                            x       y       z     vdW  Elec       q    Type
REMARK                         _______ _______ _______ _____ _____    ______ ____
ROOT
ATOM      1  C   UNL     1       1.643   8.318  20.141  0.00  0.00    +0.000 A 
ATOM      2  C   UNL     1       1.247   9.551  19.670  0.00  0.00    +0.000 A 
ATOM      3  N   UNL     1       0.461  10.083  20.662  0.00  0.00    +0.000 N 
ATOM      4  N   UNL     1      -0.279  11.226  20.567  0.00  0.00    +0.000 NA
ATOM      5  C   UNL     1      -1.025  11.429  21.611  0.00  0.00    +0.000 A 
ATOM      6  C   UNL     1      -1.030  10.611  22.856  0.00  0.00    +0.000 A 
ATOM      7  C   UNL     1      -0.275   9.505  22.858  0.00  0.00    +0.000 A 
ATOM      8  C   UNL     1       0.475   9.179  21.708  0.00  0.00    +0.000 A 
ATOM      9  N   UNL     1       1.185   8.111  21.410  0.00  0.00    +0.000 NA
ENDROOT
BRANCH   5  10
ATOM     10  C   UNL     1      -2.020  12.492  21.584  0.00  0.00    +0.000 A 
ATOM     11  C   UNL     1      -2.295  13.388  22.605  0.00  0.00    +0.000 A 
ATOM     12  N   UNL     1      -3.333  14.156  22.177  0.00  0.00    +0.000 N 
ATOM     13  C   UNL     1      -4.038  15.160  22.938  0.00  0.00    +0.000 C 
ATOM     14  N   UNL     1      -3.738  13.865  20.936  0.00  0.00    +0.000 NA
ATOM     15  C   UNL     1      -2.971  12.827  20.554  0.00  0.00    +0.000 A 
BRANCH  15  16
ATOM     16  C   UNL     1      -3.223  12.172  19.261  0.00  0.00    +0.000 A 
ATOM     17  C   UNL     1      -4.519  11.751  18.918  0.00  0.00    +0.000 A 
ATOM     18  C   UNL     1      -4.765  11.124  17.692  0.00  0.00    +0.000 A 
ATOM     19  C   UNL     1      -3.719  10.927  16.799  0.00  0.00    +0.000 A 
ATOM     20  F   UNL     1      -3.954  10.338  15.620  0.00  0.00    +0.000 F 
ATOM     21  C   UNL     1      -2.428  11.320  17.119  0.00  0.00    +0.000 A 
ATOM     22  C   UNL     1      -2.179  11.917  18.357  0.00  0.00    +0.000 A 
ENDBRANCH  15  16
ENDBRANCH   5  10
BRANCH   1  25
ATOM     23  C   UNL     1       2.760   7.539  18.117  0.00  0.00    +0.000 C 
ATOM     24  O   UNL     1       2.525   8.487  17.377  0.00  0.00    +0.000 OA
ATOM     25  N   UNL     1       2.394   7.399  19.444  0.00  0.00    +0.000 N 
ATOM     26  H   UNL     1       2.755   6.596  19.944  0.00  0.00    +0.000 HD
BRANCH  23  29
ATOM     27  C   UNL     1       4.049   4.131  17.426  0.00  0.00    +0.000 A 
ATOM     28  C   UNL     1       3.258   5.108  17.968  0.00  0.00    +0.000 A 
ATOM     29  C   UNL     1       3.570   6.395  17.580  0.00  0.00    +0.000 A 
ATOM     30  N   UNL     1       4.578   6.710  16.729  0.00  0.00    +0.000 NA
ATOM     31  C   UNL     1       5.286   5.661  16.283  0.00  0.00    +0.000 A 
ATOM     32  N   UNL     1       5.061   4.382  16.586  0.00  0.00    +0.000 NA
BRANCH  27  34
ATOM     33  C   UNL     1       2.390   2.510  17.735  0.00  0.00    +0.000 C 
ATOM     34  O   UNL     1       3.782   2.827  17.791  0.00  0.00    +0.000 OA
ENDBRANCH  27  34
BRANCH  31  35
ATOM     35  O   UNL     1       6.353   5.845  15.436  0.00  0.00    +0.000 OA
ATOM     36  C   UNL     1       6.718   4.681  14.716  0.00  0.00    +0.000 C 
ENDBRANCH  31  35
ENDBRANCH  23  29
ENDBRANCH   1  25
TORSDOF 6
ENDMDL
MODEL 7
REMARK VINA RESULT:      -8.4      3.723      4.464
REMARK  Name = 
REMARK  9 active torsions:
REMARK  status: ('A' for Active; 'I' for Inactive)
REMARK    1  A    between atoms: C_1  and  O_2
REMARK    2  A    between atoms: O_2  and  C_3
REMARK    3  A    between atoms: C_5  and  C_6
REMARK    4  A    between atoms: N_8  and  C_9
REMARK    5  A    between atoms: C_13  and  C_14
REMARK    6  A    between atoms: N_16  and  C_17
REMARK    7  A    between atoms: C_19  and  C_20
REMARK    8  A    between atoms: C_32  and  O_33
REMARK    9  A    between atoms: O_33  and  C_34
REMARK                            x       y       z     vdW  Elec       q    Type
REMARK                         _______ _______ _______ _____ _____    ______ ____
ROOT
ATOM      1  C   UNL     1       1.550  10.555  18.832  0.00  0.00    +0.000 A 
ATOM      2  C   UNL     1       1.911   9.617  17.891  0.00  0.00    +0.000 A 
ATOM      3  N   UNL     1       1.924   8.418  18.558  0.00  0.00    +0.000 N 
ATOM      4  N   UNL     1       2.380   7.231  18.060  0.00  0.00    +0.000 NA
ATOM      5  C   UNL     1       2.391   6.284  18.950  0.00  0.00    +0.000 A 
ATOM      6  C   UNL     1       1.866   6.383  20.341  0.00  0.00    +0.000 A 
ATOM      7  C   UNL     1       1.442   7.587  20.744  0.00  0.00    +0.000 A 
ATOM      8  C   UNL     1       1.507   8.677  19.850  0.00  0.00    +0.000 A 
ATOM      9  N   UNL     1       1.275   9.961  20.031  0.00  0.00    +0.000 NA
ENDROOT
BRANCH   5  10
ATOM     10  C   UNL     1       3.033   5.015  18.637  0.00  0.00    +0.000 A 
ATOM     11  C   UNL     1       2.441   3.763  18.668  0.00  0.00    +0.000 A 
ATOM     12  N   UNL     1       3.419   2.865  18.372  0.00  0.00    +0.000 N 
ATOM     13  C   UNL     1       3.305   1.425  18.385  0.00  0.00    +0.000 C 
ATOM     14  N   UNL     1       4.602   3.429  18.107  0.00  0.00    +0.000 NA
ATOM     15  C   UNL     1       4.407   4.748  18.290  0.00  0.00    +0.000 A 
BRANCH  15  16
ATOM     16  C   UNL     1       5.546   5.675  18.187  0.00  0.00    +0.000 A 
ATOM     17  C   UNL     1       5.518   6.734  17.263  0.00  0.00    +0.000 A 
ATOM     18  C   UNL     1       6.598   7.617  17.158  0.00  0.00    +0.000 A 
ATOM     19  C   UNL     1       7.704   7.451  17.983  0.00  0.00    +0.000 A 
ATOM     20  F   UNL     1       8.734   8.301  17.892  0.00  0.00    +0.000 F 
ATOM     21  C   UNL     1       7.762   6.406  18.892  0.00  0.00    +0.000 A 
ATOM     22  C   UNL     1       6.696   5.507  18.974  0.00  0.00    +0.000 A 
ENDBRANCH  15  16
ENDBRANCH   5  10
BRANCH   1  25
ATOM     23  C   UNL     1       1.720  12.866  19.595  0.00  0.00    +0.000 C 
ATOM     24  O   UNL     1       2.076  12.672  20.752  0.00  0.00    +0.000 OA
ATOM     25  N   UNL     1       1.474  11.912  18.622  0.00  0.00    +0.000 N 
ATOM     26  H   UNL     1       1.285  12.244  17.684  0.00  0.00    +0.000 HD
BRANCH  23  29
ATOM     27  C   UNL     1       2.434  16.268  18.304  0.00  0.00    +0.000 A 
ATOM     28  C   UNL     1       2.677  14.987  18.721  0.00  0.00    +0.000 A 
ATOM     29  C   UNL     1       1.561  14.281  19.121  0.00  0.00    +0.000 A 
ATOM     30  N   UNL     1       0.300  14.783  19.116  0.00  0.00    +0.000 NA
ATOM     31  C   UNL     1       0.204  16.054  18.699  0.00  0.00    +0.000 A 
ATOM     32  N   UNL     1       1.214  16.819  18.283  0.00  0.00    +0.000 NA
BRANCH  27  34
ATOM     33  C   UNL     1       4.705  16.720  18.643  0.00  0.00    +0.000 C 
ATOM     34  O   UNL     1       3.521  17.018  17.902  0.00  0.00    +0.000 OA
ENDBRANCH  27  34
BRANCH  31  35
ATOM     35  O   UNL     1      -1.013  16.692  18.673  0.00  0.00    +0.000 OA
ATOM     36  C   UNL     1      -0.993  17.933  17.991  0.00  0.00    +0.000 C 
ENDBRANCH  31  35
ENDBRANCH  23  29
ENDBRANCH   1  25
TORSDOF 6
ENDMDL
MODEL 8
REMARK VINA RESULT:      -8.4      3.087      3.632
REMARK  Name = 
REMARK  9 active torsions:
REMARK  status: ('A' for Active; 'I' for Inactive)
REMARK    1  A    between atoms: C_1  and  O_2
REMARK    2  A    between atoms: O_2  and  C_3
REMARK    3  A    between atoms: C_5  and  C_6
REMARK    4  A    between atoms: N_8  and  C_9
REMARK    5  A    between atoms: C_13  and  C_14
REMARK    6  A    between atoms: N_16  and  C_17
REMARK    7  A    between atoms: C_19  and  C_20
REMARK    8  A    between atoms: C_32  and  O_33
REMARK    9  A    between atoms: O_33  and  C_34
REMARK                            x       y       z     vdW  Elec       q    Type
REMARK                         _______ _______ _______ _____ _____    ______ ____
ROOT
ATOM      1  C   UNL     1       0.871  10.875  19.309  0.00  0.00    +0.000 A 
ATOM      2  C   UNL     1       0.974   9.934  20.309  0.00  0.00    +0.000 A 
ATOM      3  N   UNL     1       1.599   8.857  19.732  0.00  0.00    +0.000 N 
ATOM      4  N   UNL     1       1.770   7.630  20.306  0.00  0.00    +0.000 NA
ATOM      5  C   UNL     1       2.284   6.761  19.488  0.00  0.00    +0.000 A 
ATOM      6  C   UNL     1       2.767   7.037  18.106  0.00  0.00    +0.000 A 
ATOM      7  C   UNL     1       2.555   8.269  17.625  0.00  0.00    +0.000 A 
ATOM      8  C   UNL     1       1.903   9.224  18.434  0.00  0.00    +0.000 A 
ATOM      9  N   UNL     1       1.473  10.438  18.165  0.00  0.00    +0.000 NA
ENDROOT
BRANCH   5  10
ATOM     10  C   UNL     1       2.345   5.360  19.879  0.00  0.00    +0.000 A 
ATOM     11  C   UNL     1       1.538   4.729  20.812  0.00  0.00    +0.000 A 
ATOM     12  N   UNL     1       1.986   3.447  20.908  0.00  0.00    +0.000 N 
ATOM     13  C   UNL     1       1.523   2.436  21.829  0.00  0.00    +0.000 C 
ATOM     14  N   UNL     1       3.000   3.172  20.081  0.00  0.00    +0.000 NA
ATOM     15  C   UNL     1       3.265   4.333  19.455  0.00  0.00    +0.000 A 
BRANCH  15  16
ATOM     16  C   UNL     1       4.412   4.422  18.538  0.00  0.00    +0.000 A 
ATOM     17  C   UNL     1       4.291   3.992  17.206  0.00  0.00    +0.000 A 
ATOM     18  C   UNL     1       5.378   4.071  16.329  0.00  0.00    +0.000 A 
ATOM     19  C   UNL     1       6.586   4.590  16.778  0.00  0.00    +0.000 A 
ATOM     20  F   UNL     1       7.624   4.678  15.938  0.00  0.00    +0.000 F 
ATOM     21  C   UNL     1       6.736   5.008  18.092  0.00  0.00    +0.000 A 
ATOM     22  C   UNL     1       5.658   4.900  18.974  0.00  0.00    +0.000 A 
ENDBRANCH  15  16
ENDBRANCH   5  10
BRANCH   1  25
ATOM     23  C   UNL     1       0.912  13.304  19.531  0.00  0.00    +0.000 C 
ATOM     24  O   UNL     1       2.123  13.490  19.505  0.00  0.00    +0.000 OA
ATOM     25  N   UNL     1       0.246  12.096  19.421  0.00  0.00    +0.000 N 
ATOM     26  H   UNL     1      -0.764  12.127  19.360  0.00  0.00    +0.000 HD
BRANCH  23  29
ATOM     27  C   UNL     1      -0.787  16.538  18.894  0.00  0.00    +0.000 A 
ATOM     28  C   UNL     1       0.077  15.494  18.701  0.00  0.00    +0.000 A 
ATOM     29  C   UNL     1       0.007  14.495  19.651  0.00  0.00    +0.000 A 
ATOM     30  N   UNL     1      -0.840  14.511  20.711  0.00  0.00    +0.000 NA
ATOM     31  C   UNL     1      -1.622  15.598  20.790  0.00  0.00    +0.000 A 
ATOM     32  N   UNL     1      -1.641  16.611  19.922  0.00  0.00    +0.000 NA
BRANCH  27  34
ATOM     33  C   UNL     1       0.396  18.406  18.127  0.00  0.00    +0.000 C 
ATOM     34  O   UNL     1      -0.749  17.567  17.973  0.00  0.00    +0.000 OA
ENDBRANCH  27  34
BRANCH  31  35
ATOM     35  O   UNL     1      -2.506  15.752  21.832  0.00  0.00    +0.000 OA
ATOM     36  C   UNL     1      -2.798  14.547  22.516  0.00  0.00    +0.000 C 
ENDBRANCH  31  35
ENDBRANCH  23  29
ENDBRANCH   1  25
TORSDOF 6
ENDMDL
MODEL 9
REMARK VINA RESULT:      -8.4      4.423     10.774
REMARK  Name = 
REMARK  9 active torsions:
REMARK  status: ('A' for Active; 'I' for Inactive)
REMARK    1  A    between atoms: C_1  and  O_2
REMARK    2  A    between atoms: O_2  and  C_3
REMARK    3  A    between atoms: C_5  and  C_6
REMARK    4  A    between atoms: N_8  and  C_9
REMARK    5  A    between atoms: C_13  and  C_14
REMARK    6  A    between atoms: N_16  and  C_17
REMARK    7  A    between atoms: C_19  and  C_20
REMARK    8  A    between atoms: C_32  and  O_33
REMARK    9  A    between atoms: O_33  and  C_34
REMARK                            x       y       z     vdW  Elec       q    Type
REMARK                         _______ _______ _______ _____ _____    ______ ____
ROOT
ATOM      1  C   UNL     1       1.525   8.400  20.211  0.00  0.00    +0.000 A 
ATOM      2  C   UNL     1       1.180   9.668  19.797  0.00  0.00    +0.000 A 
ATOM      3  N   UNL     1       0.412  10.184  20.810  0.00  0.00    +0.000 N 
ATOM      4  N   UNL     1      -0.282  11.359  20.767  0.00  0.00    +0.000 NA
ATOM      5  C   UNL     1      -1.026  11.542  21.816  0.00  0.00    +0.000 A 
ATOM      6  C   UNL     1      -1.069  10.667  23.022  0.00  0.00    +0.000 A 
ATOM      7  C   UNL     1      -0.359   9.533  22.974  0.00  0.00    +0.000 A 
ATOM      8  C   UNL     1       0.384   9.233  21.812  0.00  0.00    +0.000 A 
ATOM      9  N   UNL     1       1.052   8.152  21.468  0.00  0.00    +0.000 NA
ENDROOT
BRANCH   5  10
ATOM     10  C   UNL     1      -1.977  12.645  21.837  0.00  0.00    +0.000 A 
ATOM     11  C   UNL     1      -2.163  13.553  22.866  0.00  0.00    +0.000 A 
ATOM     12  N   UNL     1      -3.190  14.361  22.489  0.00  0.00    +0.000 N 
ATOM     13  C   UNL     1      -3.814  15.395  23.281  0.00  0.00    +0.000 C 
ATOM     14  N   UNL     1      -3.670  14.083  21.272  0.00  0.00    +0.000 NA
ATOM     15  C   UNL     1      -2.966  13.015  20.855  0.00  0.00    +0.000 A 
BRANCH  15  16
ATOM     16  C   UNL     1      -3.311  12.367  19.580  0.00  0.00    +0.000 A 
ATOM     17  C   UNL     1      -4.649  12.064  19.276  0.00  0.00    +0.000 A 
ATOM     18  C   UNL     1      -4.983  11.446  18.066  0.00  0.00    +0.000 A 
ATOM     19  C   UNL     1      -3.983  11.138  17.153  0.00  0.00    +0.000 A 
ATOM     20  F   UNL     1      -4.302  10.556  15.990  0.00  0.00    +0.000 F 
ATOM     21  C   UNL     1      -2.653  11.413  17.435  0.00  0.00    +0.000 A 
ATOM     22  C   UNL     1      -2.318  12.003  18.656  0.00  0.00    +0.000 A 
ENDBRANCH  15  16
ENDBRANCH   5  10
BRANCH   1  25
ATOM     23  C   UNL     1       2.627   7.675  18.158  0.00  0.00    +0.000 C 
ATOM     24  O   UNL     1       2.439   8.669  17.466  0.00  0.00    +0.000 OA
ATOM     25  N   UNL     1       2.242   7.485  19.474  0.00  0.00    +0.000 N 
ATOM     26  H   UNL     1       2.564   6.643  19.935  0.00  0.00    +0.000 HD
BRANCH  23  29
ATOM     27  C   UNL     1       5.107   5.673  16.264  0.00  0.00    +0.000 A 
ATOM     28  C   UNL     1       4.472   6.783  16.751  0.00  0.00    +0.000 A 
ATOM     29  C   UNL     1       3.392   6.526  17.571  0.00  0.00    +0.000 A 
ATOM     30  N   UNL     1       2.960   5.280  17.893  0.00  0.00    +0.000 NA
ATOM     31  C   UNL     1       3.663   4.281  17.337  0.00  0.00    +0.000 A 
ATOM     32  N   UNL     1       4.725   4.421  16.542  0.00  0.00    +0.000 NA
BRANCH  27  34
ATOM     33  C   UNL     1       7.045   4.741  15.343  0.00  0.00    +0.000 C 
ATOM     34  O   UNL     1       6.190   5.880  15.432  0.00  0.00    +0.000 OA
ENDBRANCH  27  34
BRANCH  31  35
ATOM     35  O   UNL     1       3.313   2.970  17.558  0.00  0.00    +0.000 OA
ATOM     36  C   UNL     1       2.105   2.816  18.280  0.00  0.00    +0.000 C 
ENDBRANCH  31  35
ENDBRANCH  23  29
ENDBRANCH   1  25
TORSDOF 6
ENDMDL
