MODEL 1
REMARK VINA RESULT:      -6.9      0.000      0.000
REMARK  Name = 
REMARK  7 active torsions:
REMARK  status: ('A' for Active; 'I' for Inactive)
REMARK    1  A    between atoms: C_1  and  N_2
REMARK    2  A    between atoms: N_2  and  C_3
REMARK    3  A    between atoms: C_3  and  C_4
REMARK    4  A    between atoms: C_4  and  C_5
REMARK    5  A    between atoms: N_10  and  C_11
REMARK    6  A    between atoms: C_12  and  C_14
REMARK    7  A    between atoms: C_18  and  C_19
REMARK                            x       y       z     vdW  Elec       q    Type
REMARK                         _______ _______ _______ _____ _____    ______ ____
ROOT
ATOM      1  C   UNL     1       2.128   3.573  19.861  0.00  0.00    +0.000 A 
ATOM      2  N   UNL     1       2.130   2.660  20.909  0.00  0.00    +0.000 NA
ATOM      3  C   UNL     1       2.194   3.412  21.982  0.00  0.00    +0.000 A 
ATOM      4  O   UNL     1       2.214   4.747  21.752  0.00  0.00    +0.000 OA
ATOM      5  C   UNL     1       2.162   4.858  20.384  0.00  0.00    +0.000 A 
ENDROOT
BRANCH   5   6
ATOM      6  C   UNL     1       2.139   6.212  19.848  0.00  0.00    +0.000 A 
ATOM      7  C   UNL     1       2.637   6.493  18.565  0.00  0.00    +0.000 A 
ATOM      8  C   UNL     1       2.490   7.764  18.002  0.00  0.00    +0.000 A 
ATOM      9  C   UNL     1       1.868   8.771  18.727  0.00  0.00    +0.000 A 
ATOM     10  C   UNL     1       1.396   8.514  20.017  0.00  0.00    +0.000 A 
ATOM     11  C   UNL     1       1.549   7.247  20.580  0.00  0.00    +0.000 A 
ATOM     12  O   UNL     1       0.752   9.454  20.784  0.00  0.00    +0.000 OA
ATOM     13  C   UNL     1       0.294  10.543  19.981  0.00  0.00    +0.000 C 
ATOM     14  C   UNL     1       1.385  11.013  19.032  0.00  0.00    +0.000 C 
ATOM     15  O   UNL     1       1.735   9.983  18.103  0.00  0.00    +0.000 OA
ENDBRANCH   5   6
BRANCH   1  18
ATOM     16  C   UNL     1       2.992   2.693  16.293  0.00  0.00    +0.000 C 
ATOM     17  N   UNL     1       3.210   3.065  17.685  0.00  0.00    +0.000 N 
ATOM     18  C   UNL     1       2.032   3.238  18.438  0.00  0.00    +0.000 C 
ATOM     19  O   UNL     1       0.932   3.154  17.888  0.00  0.00    +0.000 OA
BRANCH  17  20
ATOM     20  C   UNL     1       4.534   2.902  18.294  0.00  0.00    +0.000 C 
BRANCH  20  21
ATOM     21  C   UNL     1       5.323   4.180  18.585  0.00  0.00    +0.000 C 
BRANCH  21  22
ATOM     22  C   UNL     1       6.518   4.412  17.626  0.00  0.00    +0.000 C 
ATOM     23  C   UNL     1       6.122   4.324  16.136  0.00  0.00    +0.000 C 
ATOM     24  C   UNL     1       5.255   5.503  15.706  0.00  0.00    +0.000 C 
ATOM     25  C   UNL     1       5.967   6.811  16.029  0.00  0.00    +0.000 C 
ATOM     26  C   UNL     1       6.428   6.869  17.488  0.00  0.00    +0.000 C 
ATOM     27  N   UNL     1       7.227   5.692  17.848  0.00  0.00    +0.000 NA
ATOM     28  C   UNL     1       7.781   5.817  19.194  0.00  0.00    +0.000 C 
ENDBRANCH  21  22
ENDBRANCH  20  21
ENDBRANCH  17  20
ENDBRANCH   1  18
TORSDOF 5
ENDMDL
MODEL 2
REMARK VINA RESULT:      -6.9      3.163      5.749
REMARK  Name = 
REMARK  7 active torsions:
REMARK  status: ('A' for Active; 'I' for Inactive)
REMARK    1  A    between atoms: C_1  and  N_2
REMARK    2  A    between atoms: N_2  and  C_3
REMARK    3  A    between atoms: C_3  and  C_4
REMARK    4  A    between atoms: C_4  and  C_5
REMARK    5  A    between atoms: N_10  and  C_11
REMARK    6  A    between atoms: C_12  and  C_14
REMARK    7  A    between atoms: C_18  and  C_19
REMARK                            x       y       z     vdW  Elec       q    Type
REMARK                         _______ _______ _______ _____ _____    ______ ____
ROOT
ATOM      1  C   UNL     1       0.993   9.342  20.579  0.00  0.00    +0.000 A 
ATOM      2  N   UNL     1       1.433   9.121  21.879  0.00  0.00    +0.000 NA
ATOM      3  C   UNL     1       0.462   9.590  22.625  0.00  0.00    +0.000 A 
ATOM      4  O   UNL     1      -0.599  10.089  21.945  0.00  0.00    +0.000 OA
ATOM      5  C   UNL     1      -0.266   9.923  20.623  0.00  0.00    +0.000 A 
ENDROOT
BRANCH   5   6
ATOM      6  C   UNL     1      -1.261  10.354  19.650  0.00  0.00    +0.000 A 
ATOM      7  C   UNL     1      -2.038  11.503  19.868  0.00  0.00    +0.000 A 
ATOM      8  C   UNL     1      -2.892  11.990  18.875  0.00  0.00    +0.000 A 
ATOM      9  C   UNL     1      -2.996  11.317  17.666  0.00  0.00    +0.000 A 
ATOM     10  C   UNL     1      -2.253  10.154  17.447  0.00  0.00    +0.000 A 
ATOM     11  C   UNL     1      -1.405   9.666  18.442  0.00  0.00    +0.000 A 
ATOM     12  O   UNL     1      -2.289   9.448  16.269  0.00  0.00    +0.000 OA
ATOM     13  C   UNL     1      -2.840  10.240  15.215  0.00  0.00    +0.000 C 
ATOM     14  C   UNL     1      -4.109  10.941  15.672  0.00  0.00    +0.000 C 
ATOM     15  O   UNL     1      -3.832  11.865  16.728  0.00  0.00    +0.000 OA
ENDBRANCH   5   6
BRANCH   1  18
ATOM     16  C   UNL     1       2.918   7.390  17.984  0.00  0.00    +0.000 C 
ATOM     17  N   UNL     1       2.268   7.671  19.258  0.00  0.00    +0.000 N 
ATOM     18  C   UNL     1       1.709   8.960  19.359  0.00  0.00    +0.000 C 
ATOM     19  O   UNL     1       1.863   9.772  18.444  0.00  0.00    +0.000 OA
BRANCH  17  20
ATOM     20  C   UNL     1       1.929   6.575  20.171  0.00  0.00    +0.000 C 
BRANCH  20  21
ATOM     21  C   UNL     1       2.527   5.203  19.857  0.00  0.00    +0.000 C 
BRANCH  21  22
ATOM     22  C   UNL     1       1.490   4.168  19.349  0.00  0.00    +0.000 C 
ATOM     23  C   UNL     1       1.459   4.051  17.810  0.00  0.00    +0.000 C 
ATOM     24  C   UNL     1       2.722   3.393  17.263  0.00  0.00    +0.000 C 
ATOM     25  C   UNL     1       2.930   2.040  17.933  0.00  0.00    +0.000 C 
ATOM     26  C   UNL     1       2.886   2.143  19.459  0.00  0.00    +0.000 C 
ATOM     27  N   UNL     1       1.665   2.814  19.919  0.00  0.00    +0.000 NA
ATOM     28  C   UNL     1       1.559   2.785  21.376  0.00  0.00    +0.000 C 
ENDBRANCH  21  22
ENDBRANCH  20  21
ENDBRANCH  17  20
ENDBRANCH   1  18
TORSDOF 5
ENDMDL
MODEL 3
REMARK VINA RESULT:      -6.9      4.398      8.635
REMARK  Name = 
REMARK  7 active torsions:
REMARK  status: ('A' for Active; 'I' for Inactive)
REMARK    1  A    between atoms: C_1  and  N_2
REMARK    2  A    between atoms: N_2  and  C_3
REMARK    3  A    between atoms: C_3  and  C_4
REMARK    4  A    between atoms: C_4  and  C_5
REMARK    5  A    between atoms: N_10  and  C_11
REMARK    6  A    between atoms: C_12  and  C_14
REMARK    7  A    between atoms: C_18  and  C_19
REMARK                            x       y       z     vdW  Elec       q    Type
REMARK                         _______ _______ _______ _____ _____    ______ ____
ROOT
ATOM      1  C   UNL     1       0.216  11.270  21.580  0.00  0.00    +0.000 A 
ATOM      2  N   UNL     1      -0.516  11.404  22.754  0.00  0.00    +0.000 NA
ATOM      3  C   UNL     1      -0.802  10.170  23.092  0.00  0.00    +0.000 A 
ATOM      4  O   UNL     1      -0.312   9.216  22.262  0.00  0.00    +0.000 OA
ATOM      5  C   UNL     1       0.354   9.920  21.289  0.00  0.00    +0.000 A 
ENDROOT
BRANCH   5   6
ATOM      6  C   UNL     1       1.018   9.128  20.262  0.00  0.00    +0.000 A 
ATOM      7  C   UNL     1       1.180   9.622  18.957  0.00  0.00    +0.000 A 
ATOM      8  C   UNL     1       1.934   8.920  18.014  0.00  0.00    +0.000 A 
ATOM      9  C   UNL     1       2.511   7.705  18.359  0.00  0.00    +0.000 A 
ATOM     10  C   UNL     1       2.331   7.186  19.644  0.00  0.00    +0.000 A 
ATOM     11  C   UNL     1       1.572   7.886  20.583  0.00  0.00    +0.000 A 
ATOM     12  O   UNL     1       2.888   6.002  20.063  0.00  0.00    +0.000 OA
ATOM     13  C   UNL     1       3.947   5.599  19.192  0.00  0.00    +0.000 C 
ATOM     14  C   UNL     1       3.527   5.722  17.736  0.00  0.00    +0.000 C 
ATOM     15  O   UNL     1       3.258   7.084  17.393  0.00  0.00    +0.000 OA
ENDBRANCH   5   6
BRANCH   1  18
ATOM     16  C   UNL     1       0.749  14.057  19.091  0.00  0.00    +0.000 C 
ATOM     17  N   UNL     1       0.078  12.947  19.754  0.00  0.00    +0.000 N 
ATOM     18  C   UNL     1       0.808  12.368  20.812  0.00  0.00    +0.000 C 
ATOM     19  O   UNL     1       1.952  12.756  21.056  0.00  0.00    +0.000 OA
BRANCH  17  20
ATOM     20  C   UNL     1      -1.358  12.726  19.555  0.00  0.00    +0.000 C 
BRANCH  20  21
ATOM     21  C   UNL     1      -1.780  12.071  18.238  0.00  0.00    +0.000 C 
BRANCH  21  22
ATOM     22  C   UNL     1      -2.866  10.977  18.400  0.00  0.00    +0.000 C 
ATOM     23  C   UNL     1      -4.099  11.465  19.191  0.00  0.00    +0.000 C 
ATOM     24  C   UNL     1      -4.918  12.480  18.401  0.00  0.00    +0.000 C 
ATOM     25  C   UNL     1      -5.304  11.891  17.050  0.00  0.00    +0.000 C 
ATOM     26  C   UNL     1      -4.091  11.339  16.296  0.00  0.00    +0.000 C 
ATOM     27  N   UNL     1      -3.328  10.396  17.122  0.00  0.00    +0.000 NA
ATOM     28  C   UNL     1      -2.256   9.766  16.355  0.00  0.00    +0.000 C 
ENDBRANCH  21  22
ENDBRANCH  20  21
ENDBRANCH  17  20
ENDBRANCH   1  18
TORSDOF 5
ENDMDL
MODEL 4
REMARK VINA RESULT:      -6.9      4.383      8.495
REMARK  Name = 
REMARK  7 active torsions:
REMARK  status: ('A' for Active; 'I' for Inactive)
REMARK    1  A    between atoms: C_1  and  N_2
REMARK    2  A    between atoms: N_2  and  C_3
REMARK    3  A    between atoms: C_3  and  C_4
REMARK    4  A    between atoms: C_4  and  C_5
REMARK    5  A    between atoms: N_10  and  C_11
REMARK    6  A    between atoms: C_12  and  C_14
REMARK    7  A    between atoms: C_18  and  C_19
REMARK                            x       y       z     vdW  Elec       q    Type
REMARK                         _______ _______ _______ _____ _____    ______ ____
ROOT
ATOM      1  C   UNL     1       0.187  11.034  21.808  0.00  0.00    +0.000 A 
ATOM      2  N   UNL     1      -0.512  11.094  23.008  0.00  0.00    +0.000 NA
ATOM      3  C   UNL     1      -0.729   9.837  23.310  0.00  0.00    +0.000 A 
ATOM      4  O   UNL     1      -0.222   8.936  22.432  0.00  0.00    +0.000 OA
ATOM      5  C   UNL     1       0.379   9.704  21.465  0.00  0.00    +0.000 A 
ENDROOT
BRANCH   5   6
ATOM      6  C   UNL     1       1.045   8.979  20.391  0.00  0.00    +0.000 A 
ATOM      7  C   UNL     1       1.165   9.536  19.107  0.00  0.00    +0.000 A 
ATOM      8  C   UNL     1       1.922   8.900  18.119  0.00  0.00    +0.000 A 
ATOM      9  C   UNL     1       2.542   7.691  18.398  0.00  0.00    +0.000 A 
ATOM     10  C   UNL     1       2.405   7.109  19.661  0.00  0.00    +0.000 A 
ATOM     11  C   UNL     1       1.644   7.742  20.645  0.00  0.00    +0.000 A 
ATOM     12  O   UNL     1       3.007   5.926  20.015  0.00  0.00    +0.000 OA
ATOM     13  C   UNL     1       4.059   5.596  19.108  0.00  0.00    +0.000 C 
ATOM     14  C   UNL     1       3.606   5.770  17.667  0.00  0.00    +0.000 C 
ATOM     15  O   UNL     1       3.288   7.137  17.391  0.00  0.00    +0.000 OA
ENDBRANCH   5   6
BRANCH   1  18
ATOM     16  C   UNL     1       0.429  14.121  19.648  0.00  0.00    +0.000 C 
ATOM     17  N   UNL     1      -0.188  12.981  20.313  0.00  0.00    +0.000 N 
ATOM     18  C   UNL     1       0.702  12.185  21.061  0.00  0.00    +0.000 C 
ATOM     19  O   UNL     1       1.909  12.433  21.048  0.00  0.00    +0.000 OA
BRANCH  17  20
ATOM     20  C   UNL     1      -1.645  12.916  20.466  0.00  0.00    +0.000 C 
BRANCH  20  21
ATOM     21  C   UNL     1      -2.366  11.775  19.743  0.00  0.00    +0.000 C 
BRANCH  21  22
ATOM     22  C   UNL     1      -2.748  12.103  18.277  0.00  0.00    +0.000 C 
ATOM     23  C   UNL     1      -1.763  11.505  17.250  0.00  0.00    +0.000 C 
ATOM     24  C   UNL     1      -1.869   9.985  17.176  0.00  0.00    +0.000 C 
ATOM     25  C   UNL     1      -3.310   9.583  16.886  0.00  0.00    +0.000 C 
ATOM     26  C   UNL     1      -4.296  10.236  17.858  0.00  0.00    +0.000 C 
ATOM     27  N   UNL     1      -4.119  11.692  17.908  0.00  0.00    +0.000 NA
ATOM     28  C   UNL     1      -5.150  12.324  18.727  0.00  0.00    +0.000 C 
ENDBRANCH  21  22
ENDBRANCH  20  21
ENDBRANCH  17  20
ENDBRANCH   1  18
TORSDOF 5
ENDMDL
MODEL 5
REMARK VINA RESULT:      -6.9      3.457      5.816
REMARK  Name = 
REMARK  7 active torsions:
REMARK  status: ('A' for Active; 'I' for Inactive)
REMARK    1  A    between atoms: C_1  and  N_2
REMARK    2  A    between atoms: N_2  and  C_3
REMARK    3  A    between atoms: C_3  and  C_4
REMARK    4  A    between atoms: C_4  and  C_5
REMARK    5  A    between atoms: N_10  and  C_11
REMARK    6  A    between atoms: C_12  and  C_14
REMARK    7  A    between atoms: C_18  and  C_19
REMARK                            x       y       z     vdW  Elec       q    Type
REMARK                         _______ _______ _______ _____ _____    ______ ____
ROOT
ATOM      1  C   UNL     1       0.986   9.557  20.000  0.00  0.00    +0.000 A 
ATOM      2  N   UNL     1       1.423   9.434  21.314  0.00  0.00    +0.000 NA
ATOM      3  C   UNL     1       0.428   9.910  22.023  0.00  0.00    +0.000 A 
ATOM      4  O   UNL     1      -0.646  10.323  21.307  0.00  0.00    +0.000 OA
ATOM      5  C   UNL     1      -0.295  10.088  20.000  0.00  0.00    +0.000 A 
ENDROOT
BRANCH   5   6
ATOM      6  C   UNL     1      -1.298  10.417  18.996  0.00  0.00    +0.000 A 
ATOM      7  C   UNL     1      -1.264   9.834  17.719  0.00  0.00    +0.000 A 
ATOM      8  C   UNL     1      -2.301  10.046  16.806  0.00  0.00    +0.000 A 
ATOM      9  C   UNL     1      -3.367  10.863  17.153  0.00  0.00    +0.000 A 
ATOM     10  C   UNL     1      -3.398  11.476  18.409  0.00  0.00    +0.000 A 
ATOM     11  C   UNL     1      -2.359  11.268  19.317  0.00  0.00    +0.000 A 
ATOM     12  O   UNL     1      -4.430  12.280  18.829  0.00  0.00    +0.000 OA
ATOM     13  C   UNL     1      -5.591  12.089  18.018  0.00  0.00    +0.000 C 
ATOM     14  C   UNL     1      -5.226  12.099  16.542  0.00  0.00    +0.000 C 
ATOM     15  O   UNL     1      -4.360  11.006  16.220  0.00  0.00    +0.000 OA
ENDBRANCH   5   6
BRANCH   1  18
ATOM     16  C   UNL     1       3.067   7.552  17.570  0.00  0.00    +0.000 C 
ATOM     17  N   UNL     1       2.401   7.891  18.821  0.00  0.00    +0.000 N 
ATOM     18  C   UNL     1       1.727   9.128  18.810  0.00  0.00    +0.000 C 
ATOM     19  O   UNL     1       1.801   9.861  17.822  0.00  0.00    +0.000 OA
BRANCH  17  20
ATOM     20  C   UNL     1       2.168   6.860  19.837  0.00  0.00    +0.000 C 
BRANCH  20  21
ATOM     21  C   UNL     1       2.746   5.471  19.557  0.00  0.00    +0.000 C 
BRANCH  21  22
ATOM     22  C   UNL     1       1.672   4.384  19.298  0.00  0.00    +0.000 C 
ATOM     23  C   UNL     1       1.490   4.062  17.799  0.00  0.00    +0.000 C 
ATOM     24  C   UNL     1       2.697   3.328  17.223  0.00  0.00    +0.000 C 
ATOM     25  C   UNL     1       2.979   2.076  18.045  0.00  0.00    +0.000 C 
ATOM     26  C   UNL     1       3.085   2.383  19.541  0.00  0.00    +0.000 C 
ATOM     27  N   UNL     1       1.911   3.118  20.024  0.00  0.00    +0.000 NA
ATOM     28  C   UNL     1       1.949   3.286  21.476  0.00  0.00    +0.000 C 
ENDBRANCH  21  22
ENDBRANCH  20  21
ENDBRANCH  17  20
ENDBRANCH   1  18
TORSDOF 5
ENDMDL
MODEL 6
REMARK VINA RESULT:      -6.8      0.786      1.618
REMARK  Name = 
REMARK  7 active torsions:
REMARK  status: ('A' for Active; 'I' for Inactive)
REMARK    1  A    between atoms: C_1  and  N_2
REMARK    2  A    between atoms: N_2  and  C_3
REMARK    3  A    between atoms: C_3  and  C_4
REMARK    4  A    between atoms: C_4  and  C_5
REMARK    5  A    between atoms: N_10  and  C_11
REMARK    6  A    between atoms: C_12  and  C_14
REMARK    7  A    between atoms: C_18  and  C_19
REMARK                            x       y       z     vdW  Elec       q    Type
REMARK                         _______ _______ _______ _____ _____    ______ ____
ROOT
ATOM      1  C   UNL     1       2.192   3.721  19.548  0.00  0.00    +0.000 A 
ATOM      2  N   UNL     1       2.274   2.682  20.468  0.00  0.00    +0.000 NA
ATOM      3  C   UNL     1       2.329   3.291  21.628  0.00  0.00    +0.000 A 
ATOM      4  O   UNL     1       2.272   4.644  21.573  0.00  0.00    +0.000 OA
ATOM      5  C   UNL     1       2.173   4.927  20.233  0.00  0.00    +0.000 A 
ENDROOT
BRANCH   5   6
ATOM      6  C   UNL     1       2.063   6.336  19.879  0.00  0.00    +0.000 A 
ATOM      7  C   UNL     1       2.427   6.794  18.602  0.00  0.00    +0.000 A 
ATOM      8  C   UNL     1       2.193   8.118  18.222  0.00  0.00    +0.000 A 
ATOM      9  C   UNL     1       1.616   9.002  19.124  0.00  0.00    +0.000 A 
ATOM     10  C   UNL     1       1.278   8.568  20.409  0.00  0.00    +0.000 A 
ATOM     11  C   UNL     1       1.519   7.247  20.789  0.00  0.00    +0.000 A 
ATOM     12  O   UNL     1       0.686   9.380  21.346  0.00  0.00    +0.000 OA
ATOM     13  C   UNL     1       0.123  10.542  20.734  0.00  0.00    +0.000 C 
ATOM     14  C   UNL     1       1.105  11.168  19.757  0.00  0.00    +0.000 C 
ATOM     15  O   UNL     1       1.392  10.277  18.675  0.00  0.00    +0.000 OA
ENDBRANCH   5   6
BRANCH   1  18
ATOM     16  C   UNL     1       2.990   3.235  15.890  0.00  0.00    +0.000 C 
ATOM     17  N   UNL     1       3.235   3.421  17.315  0.00  0.00    +0.000 N 
ATOM     18  C   UNL     1       2.071   3.568  18.096  0.00  0.00    +0.000 C 
ATOM     19  O   UNL     1       0.966   3.612  17.552  0.00  0.00    +0.000 OA
BRANCH  17  20
ATOM     20  C   UNL     1       4.550   3.112  17.885  0.00  0.00    +0.000 C 
BRANCH  20  21
ATOM     21  C   UNL     1       5.681   4.098  17.587  0.00  0.00    +0.000 C 
BRANCH  21  22
ATOM     22  C   UNL     1       5.460   5.508  18.190  0.00  0.00    +0.000 C 
ATOM     23  C   UNL     1       6.200   5.714  19.530  0.00  0.00    +0.000 C 
ATOM     24  C   UNL     1       7.712   5.783  19.341  0.00  0.00    +0.000 C 
ATOM     25  C   UNL     1       8.056   6.868  18.329  0.00  0.00    +0.000 C 
ATOM     26  C   UNL     1       7.267   6.709  17.027  0.00  0.00    +0.000 C 
ATOM     27  N   UNL     1       5.825   6.615  17.279  0.00  0.00    +0.000 NA
ATOM     28  C   UNL     1       5.067   6.605  16.029  0.00  0.00    +0.000 C 
ENDBRANCH  21  22
ENDBRANCH  20  21
ENDBRANCH  17  20
ENDBRANCH   1  18
TORSDOF 5
ENDMDL
MODEL 7
REMARK VINA RESULT:      -6.7      3.395      7.703
REMARK  Name = 
REMARK  7 active torsions:
REMARK  status: ('A' for Active; 'I' for Inactive)
REMARK    1  A    between atoms: C_1  and  N_2
REMARK    2  A    between atoms: N_2  and  C_3
REMARK    3  A    between atoms: C_3  and  C_4
REMARK    4  A    between atoms: C_4  and  C_5
REMARK    5  A    between atoms: N_10  and  C_11
REMARK    6  A    between atoms: C_12  and  C_14
REMARK    7  A    between atoms: C_18  and  C_19
REMARK                            x       y       z     vdW  Elec       q    Type
REMARK                         _______ _______ _______ _____ _____    ______ ____
ROOT
ATOM      1  C   UNL     1       2.673   6.705  18.986  0.00  0.00    +0.000 A 
ATOM      2  N   UNL     1       2.031   6.225  20.122  0.00  0.00    +0.000 NA
ATOM      3  C   UNL     1       2.653   5.101  20.385  0.00  0.00    +0.000 A 
ATOM      4  O   UNL     1       3.667   4.790  19.541  0.00  0.00    +0.000 OA
ATOM      5  C   UNL     1       3.691   5.828  18.642  0.00  0.00    +0.000 A 
ENDROOT
BRANCH   5   6
ATOM      6  C   UNL     1       4.727   5.767  17.618  0.00  0.00    +0.000 A 
ATOM      7  C   UNL     1       6.026   6.236  17.873  0.00  0.00    +0.000 A 
ATOM      8  C   UNL     1       7.050   6.051  16.940  0.00  0.00    +0.000 A 
ATOM      9  C   UNL     1       6.778   5.422  15.734  0.00  0.00    +0.000 A 
ATOM     10  C   UNL     1       5.482   4.979  15.454  0.00  0.00    +0.000 A 
ATOM     11  C   UNL     1       4.459   5.169  16.384  0.00  0.00    +0.000 A 
ATOM     12  O   UNL     1       5.143   4.329  14.292  0.00  0.00    +0.000 OA
ATOM     13  C   UNL     1       6.306   3.833  13.625  0.00  0.00    +0.000 C 
ATOM     14  C   UNL     1       7.390   4.897  13.565  0.00  0.00    +0.000 C 
ATOM     15  O   UNL     1       7.834   5.252  14.878  0.00  0.00    +0.000 OA
ENDBRANCH   5   6
BRANCH   1  18
ATOM     16  C   UNL     1       1.312  10.128  18.161  0.00  0.00    +0.000 C 
ATOM     17  N   UNL     1       1.502   8.893  18.911  0.00  0.00    +0.000 N 
ATOM     18  C   UNL     1       2.373   7.966  18.304  0.00  0.00    +0.000 C 
ATOM     19  O   UNL     1       2.841   8.200  17.188  0.00  0.00    +0.000 OA
BRANCH  17  20
ATOM     20  C   UNL     1       1.104   8.815  20.320  0.00  0.00    +0.000 C 
BRANCH  20  21
ATOM     21  C   UNL     1      -0.027   9.743  20.770  0.00  0.00    +0.000 C 
BRANCH  21  22
ATOM     22  C   UNL     1       0.421  10.838  21.772  0.00  0.00    +0.000 C 
ATOM     23  C   UNL     1       0.185  12.270  21.244  0.00  0.00    +0.000 C 
ATOM     24  C   UNL     1      -1.299  12.616  21.180  0.00  0.00    +0.000 C 
ATOM     25  C   UNL     1      -1.939  12.399  22.546  0.00  0.00    +0.000 C 
ATOM     26  C   UNL     1      -1.642  11.005  23.104  0.00  0.00    +0.000 C 
ATOM     27  N   UNL     1      -0.203  10.721  23.108  0.00  0.00    +0.000 NA
ATOM     28  C   UNL     1       0.087   9.450  23.769  0.00  0.00    +0.000 C 
ENDBRANCH  21  22
ENDBRANCH  20  21
ENDBRANCH  17  20
ENDBRANCH   1  18
TORSDOF 5
ENDMDL
MODEL 8
REMARK VINA RESULT:      -6.6      0.916      1.104
REMARK  Name = 
REMARK  7 active torsions:
REMARK  status: ('A' for Active; 'I' for Inactive)
REMARK    1  A    between atoms: C_1  and  N_2
REMARK    2  A    between atoms: N_2  and  C_3
REMARK    3  A    between atoms: C_3  and  C_4
REMARK    4  A    between atoms: C_4  and  C_5
REMARK    5  A    between atoms: N_10  and  C_11
REMARK    6  A    between atoms: C_12  and  C_14
REMARK    7  A    between atoms: C_18  and  C_19
REMARK                            x       y       z     vdW  Elec       q    Type
REMARK                         _______ _______ _______ _____ _____    ______ ____
ROOT
ATOM      1  C   UNL     1       2.300   3.591  19.599  0.00  0.00    +0.000 A 
ATOM      2  N   UNL     1       2.119   2.540  20.491  0.00  0.00    +0.000 NA
ATOM      3  C   UNL     1       1.787   3.131  21.613  0.00  0.00    +0.000 A 
ATOM      4  O   UNL     1       1.709   4.483  21.553  0.00  0.00    +0.000 OA
ATOM      5  C   UNL     1       2.030   4.785  20.252  0.00  0.00    +0.000 A 
ENDROOT
BRANCH   5   6
ATOM      6  C   UNL     1       1.994   6.196  19.892  0.00  0.00    +0.000 A 
ATOM      7  C   UNL     1       2.476   6.640  18.649  0.00  0.00    +0.000 A 
ATOM      8  C   UNL     1       2.316   7.970  18.252  0.00  0.00    +0.000 A 
ATOM      9  C   UNL     1       1.696   8.873  19.104  0.00  0.00    +0.000 A 
ATOM     10  C   UNL     1       1.240   8.453  20.357  0.00  0.00    +0.000 A 
ATOM     11  C   UNL     1       1.406   7.126  20.754  0.00  0.00    +0.000 A 
ATOM     12  O   UNL     1       0.600   9.285  21.243  0.00  0.00    +0.000 OA
ATOM     13  C   UNL     1       0.126  10.463  20.587  0.00  0.00    +0.000 C 
ATOM     14  C   UNL     1       1.205  11.056  19.695  0.00  0.00    +0.000 C 
ATOM     15  O   UNL     1       1.550  10.154  18.639  0.00  0.00    +0.000 OA
ENDBRANCH   5   6
BRANCH   1  18
ATOM     16  C   UNL     1       4.220   3.448  16.352  0.00  0.00    +0.000 C 
ATOM     17  N   UNL     1       3.985   3.646  17.776  0.00  0.00    +0.000 N 
ATOM     18  C   UNL     1       2.649   3.459  18.182  0.00  0.00    +0.000 C 
ATOM     19  O   UNL     1       1.776   3.231  17.342  0.00  0.00    +0.000 OA
BRANCH  17  20
ATOM     20  C   UNL     1       5.112   3.672  18.714  0.00  0.00    +0.000 C 
BRANCH  20  21
ATOM     21  C   UNL     1       5.848   5.004  18.873  0.00  0.00    +0.000 C 
BRANCH  21  22
ATOM     22  C   UNL     1       7.221   5.052  18.155  0.00  0.00    +0.000 C 
ATOM     23  C   UNL     1       7.123   5.559  16.700  0.00  0.00    +0.000 C 
ATOM     24  C   UNL     1       6.782   7.044  16.635  0.00  0.00    +0.000 C 
ATOM     25  C   UNL     1       7.795   7.841  17.449  0.00  0.00    +0.000 C 
ATOM     26  C   UNL     1       7.948   7.293  18.869  0.00  0.00    +0.000 C 
ATOM     27  N   UNL     1       8.241   5.855  18.863  0.00  0.00    +0.000 NA
ATOM     28  C   UNL     1       8.526   5.365  20.210  0.00  0.00    +0.000 C 
ENDBRANCH  21  22
ENDBRANCH  20  21
ENDBRANCH  17  20
ENDBRANCH   1  18
TORSDOF 5
ENDMDL
MODEL 9
REMARK VINA RESULT:      -6.5      3.487      5.899
REMARK  Name = 
REMARK  7 active torsions:
REMARK  status: ('A' for Active; 'I' for Inactive)
REMARK    1  A    between atoms: C_1  and  N_2
REMARK    2  A    between atoms: N_2  and  C_3
REMARK    3  A    between atoms: C_3  and  C_4
REMARK    4  A    between atoms: C_4  and  C_5
REMARK    5  A    between atoms: N_10  and  C_11
REMARK    6  A    between atoms: C_12  and  C_14
REMARK    7  A    between atoms: C_18  and  C_19
REMARK                            x       y       z     vdW  Elec       q    Type
REMARK                         _______ _______ _______ _____ _____    ______ ____
ROOT
ATOM      1  C   UNL     1       0.990   9.682  20.027  0.00  0.00    +0.000 A 
ATOM      2  N   UNL     1       1.440   9.527  21.334  0.00  0.00    +0.000 NA
ATOM      3  C   UNL     1       0.429   9.930  22.065  0.00  0.00    +0.000 A 
ATOM      4  O   UNL     1      -0.667  10.323  21.370  0.00  0.00    +0.000 OA
ATOM      5  C   UNL     1      -0.313  10.156  20.054  0.00  0.00    +0.000 A 
ENDROOT
BRANCH   5   6
ATOM      6  C   UNL     1      -1.335  10.481  19.068  0.00  0.00    +0.000 A 
ATOM      7  C   UNL     1      -1.342   9.870  17.803  0.00  0.00    +0.000 A 
ATOM      8  C   UNL     1      -2.398  10.079  16.911  0.00  0.00    +0.000 A 
ATOM      9  C   UNL     1      -3.442  10.922  17.267  0.00  0.00    +0.000 A 
ATOM     10  C   UNL     1      -3.432  11.561  18.509  0.00  0.00    +0.000 A 
ATOM     11  C   UNL     1      -2.374  11.356  19.396  0.00  0.00    +0.000 A 
ATOM     12  O   UNL     1      -4.440  12.391  18.937  0.00  0.00    +0.000 OA
ATOM     13  C   UNL     1      -5.623  12.202  18.158  0.00  0.00    +0.000 C 
ATOM     14  C   UNL     1      -5.295  12.174  16.674  0.00  0.00    +0.000 C 
ATOM     15  O   UNL     1      -4.455  11.060  16.355  0.00  0.00    +0.000 OA
ENDBRANCH   5   6
BRANCH   1  18
ATOM     16  C   UNL     1       3.119   7.856  17.500  0.00  0.00    +0.000 C 
ATOM     17  N   UNL     1       2.444   8.113  18.765  0.00  0.00    +0.000 N 
ATOM     18  C   UNL     1       1.742   9.335  18.819  0.00  0.00    +0.000 C 
ATOM     19  O   UNL     1       1.802  10.121  17.872  0.00  0.00    +0.000 OA
BRANCH  17  20
ATOM     20  C   UNL     1       2.232   7.024  19.724  0.00  0.00    +0.000 C 
BRANCH  20  21
ATOM     21  C   UNL     1       2.192   5.603  19.158  0.00  0.00    +0.000 C 
BRANCH  21  22
ATOM     22  C   UNL     1       2.943   4.561  20.025  0.00  0.00    +0.000 C 
ATOM     23  C   UNL     1       2.020   3.835  21.028  0.00  0.00    +0.000 C 
ATOM     24  C   UNL     1       1.049   2.890  20.329  0.00  0.00    +0.000 C 
ATOM     25  C   UNL     1       1.823   1.910  19.455  0.00  0.00    +0.000 C 
ATOM     26  C   UNL     1       2.793   2.625  18.511  0.00  0.00    +0.000 C 
ATOM     27  N   UNL     1       3.675   3.543  19.240  0.00  0.00    +0.000 NA
ATOM     28  C   UNL     1       4.690   4.117  18.359  0.00  0.00    +0.000 C 
ENDBRANCH  21  22
ENDBRANCH  20  21
ENDBRANCH  17  20
ENDBRANCH   1  18
TORSDOF 5
ENDMDL
