MODEL 1
REMARK VINA RESULT:      -9.0      0.000      0.000
REMARK  Name = 
REMARK  5 active torsions:
REMARK  status: ('A' for Active; 'I' for Inactive)
REMARK    1  A    between atoms: C_2  and  C_4
REMARK    2  A    between atoms: C_9  and  O_10
REMARK    3  A    between atoms: O_10  and  C_11
REMARK    4  A    between atoms: C_11  and  C_12
REMARK    5  A    between atoms: C_18  and  C_19
REMARK                            x       y       z     vdW  Elec       q    Type
REMARK                         _______ _______ _______ _____ _____    ______ ____
ROOT
ATOM      1  C   UNL     1       2.896   3.189  17.890  0.00  0.00    +0.000 C 
ATOM      2  O   UNL     1       2.072   3.526  17.039  0.00  0.00    +0.000 OA
ATOM      3  N   UNL     1       2.721   3.440  19.241  0.00  0.00    +0.000 N 
ATOM      4  C   UNL     1       3.525   2.948  20.343  0.00  0.00    +0.000 C 
ATOM      5  C   UNL     1       2.548   2.824  21.498  0.00  0.00    +0.000 C 
ATOM      6  C   UNL     1       1.478   3.866  21.224  0.00  0.00    +0.000 C 
ATOM      7  C   UNL     1       1.593   4.200  19.725  0.00  0.00    +0.000 C 
ENDROOT
BRANCH   7   8
ATOM      8  C   UNL     1       1.720   5.711  19.576  0.00  0.00    +0.000 A 
ATOM      9  C   UNL     1       2.394   6.390  18.558  0.00  0.00    +0.000 A 
ATOM     10  C   UNL     1       2.378   7.795  18.511  0.00  0.00    +0.000 A 
ATOM     11  C   UNL     1       1.765   8.495  19.545  0.00  0.00    +0.000 A 
ATOM     12  C   UNL     1       1.363   7.803  20.679  0.00  0.00    +0.000 A 
ATOM     13  C   UNL     1       1.205   6.436  20.649  0.00  0.00    +0.000 A 
ATOM     14  O   UNL     1       1.435   8.367  21.922  0.00  0.00    +0.000 OA
ATOM     15  C   UNL     1       0.319   9.177  22.231  0.00  0.00    +0.000 C 
ATOM     16  C   UNL     1       0.310  10.472  21.435  0.00  0.00    +0.000 C 
ATOM     17  C   UNL     1       0.260  10.217  19.932  0.00  0.00    +0.000 C 
ATOM     18  O   UNL     1       1.561   9.849  19.421  0.00  0.00    +0.000 OA
ENDBRANCH   7   8
BRANCH   1  19
ATOM     19  C   UNL     1       4.218   2.534  17.493  0.00  0.00    +0.000 C 
BRANCH  19  20
ATOM     20  O   UNL     1       4.973   3.271  16.528  0.00  0.00    +0.000 OA
BRANCH  20  26
ATOM     21  C   UNL     1       6.680   4.971  16.237  0.00  0.00    +0.000 A 
ATOM     22  C   UNL     1       7.473   5.987  16.817  0.00  0.00    +0.000 A 
ATOM     23  C   UNL     1       7.395   6.292  18.176  0.00  0.00    +0.000 A 
ATOM     24  C   UNL     1       6.539   5.571  18.982  0.00  0.00    +0.000 A 
ATOM     25  C   UNL     1       5.752   4.564  18.435  0.00  0.00    +0.000 A 
ATOM     26  C   UNL     1       5.774   4.263  17.058  0.00  0.00    +0.000 A 
BRANCH  21  28
ATOM     27  N   UNL     1       6.325   3.698  14.153  0.00  0.00    +0.000 N 
ATOM     28  C   UNL     1       6.918   4.759  14.780  0.00  0.00    +0.000 C 
ATOM     29  O   UNL     1       7.653   5.503  14.129  0.00  0.00    +0.000 OA
ATOM     30  H   UNL     1       6.514   3.564  13.169  0.00  0.00    +0.000 HD
ATOM     31  H   UNL     1       5.704   3.062  14.635  0.00  0.00    +0.000 HD
ENDBRANCH  21  28
ENDBRANCH  20  26
ENDBRANCH  19  20
ENDBRANCH   1  19
TORSDOF 5
ENDMDL
MODEL 2
REMARK VINA RESULT:      -8.6      1.130      1.216
REMARK  Name = 
REMARK  5 active torsions:
REMARK  status: ('A' for Active; 'I' for Inactive)
REMARK    1  A    between atoms: C_2  and  C_4
REMARK    2  A    between atoms: C_9  and  O_10
REMARK    3  A    between atoms: O_10  and  C_11
REMARK    4  A    between atoms: C_11  and  C_12
REMARK    5  A    between atoms: C_18  and  C_19
REMARK                            x       y       z     vdW  Elec       q    Type
REMARK                         _______ _______ _______ _____ _____    ______ ____
ROOT
ATOM      1  C   UNL     1       3.822   3.786  18.214  0.00  0.00    +0.000 C 
ATOM      2  O   UNL     1       3.373   4.093  17.109  0.00  0.00    +0.000 OA
ATOM      3  N   UNL     1       3.094   3.930  19.384  0.00  0.00    +0.000 N 
ATOM      4  C   UNL     1       3.443   3.452  20.708  0.00  0.00    +0.000 C 
ATOM      5  C   UNL     1       2.109   3.156  21.368  0.00  0.00    +0.000 C 
ATOM      6  C   UNL     1       1.122   4.101  20.704  0.00  0.00    +0.000 C 
ATOM      7  C   UNL     1       1.786   4.540  19.385  0.00  0.00    +0.000 C 
ENDROOT
BRANCH   7   8
ATOM      8  C   UNL     1       1.783   6.063  19.329  0.00  0.00    +0.000 A 
ATOM      9  C   UNL     1       2.286   6.855  18.293  0.00  0.00    +0.000 A 
ATOM     10  C   UNL     1       2.160   8.255  18.346  0.00  0.00    +0.000 A 
ATOM     11  C   UNL     1       1.616   8.839  19.485  0.00  0.00    +0.000 A 
ATOM     12  C   UNL     1       1.396   8.048  20.604  0.00  0.00    +0.000 A 
ATOM     13  C   UNL     1       1.337   6.678  20.498  0.00  0.00    +0.000 A 
ATOM     14  O   UNL     1       1.564   8.540  21.869  0.00  0.00    +0.000 OA
ATOM     15  C   UNL     1       0.432   9.237  22.350  0.00  0.00    +0.000 C 
ATOM     16  C   UNL     1       0.237  10.572  21.651  0.00  0.00    +0.000 C 
ATOM     17  C   UNL     1       0.039  10.405  20.148  0.00  0.00    +0.000 C 
ATOM     18  O   UNL     1       1.299  10.176  19.477  0.00  0.00    +0.000 OA
ENDBRANCH   7   8
BRANCH   1  19
ATOM     19  C   UNL     1       5.259   3.294  18.373  0.00  0.00    +0.000 C 
BRANCH  19  20
ATOM     20  O   UNL     1       6.154   3.755  17.357  0.00  0.00    +0.000 OA
BRANCH  20  26
ATOM     21  C   UNL     1       6.427   6.085  16.738  0.00  0.00    +0.000 A 
ATOM     22  C   UNL     1       7.004   7.343  17.025  0.00  0.00    +0.000 A 
ATOM     23  C   UNL     1       7.851   7.529  18.118  0.00  0.00    +0.000 A 
ATOM     24  C   UNL     1       8.154   6.456  18.928  0.00  0.00    +0.000 A 
ATOM     25  C   UNL     1       7.603   5.208  18.664  0.00  0.00    +0.000 A 
ATOM     26  C   UNL     1       6.707   4.997  17.595  0.00  0.00    +0.000 A 
BRANCH  21  28
ATOM     27  N   UNL     1       5.425   4.889  14.827  0.00  0.00    +0.000 N 
ATOM     28  C   UNL     1       5.576   6.062  15.514  0.00  0.00    +0.000 C 
ATOM     29  O   UNL     1       5.020   7.077  15.092  0.00  0.00    +0.000 OA
ATOM     30  H   UNL     1       4.856   4.900  13.991  0.00  0.00    +0.000 HD
ATOM     31  H   UNL     1       5.848   4.024  15.133  0.00  0.00    +0.000 HD
ENDBRANCH  21  28
ENDBRANCH  20  26
ENDBRANCH  19  20
ENDBRANCH   1  19
TORSDOF 5
ENDMDL
MODEL 3
REMARK VINA RESULT:      -8.3      3.069      5.468
REMARK  Name = 
REMARK  5 active torsions:
REMARK  status: ('A' for Active; 'I' for Inactive)
REMARK    1  A    between atoms: C_2  and  C_4
REMARK    2  A    between atoms: C_9  and  O_10
REMARK    3  A    between atoms: O_10  and  C_11
REMARK    4  A    between atoms: C_11  and  C_12
REMARK    5  A    between atoms: C_18  and  C_19
REMARK                            x       y       z     vdW  Elec       q    Type
REMARK                         _______ _______ _______ _____ _____    ______ ____
ROOT
ATOM      1  C   UNL     1       1.914   8.131  18.657  0.00  0.00    +0.000 C 
ATOM      2  O   UNL     1       1.729   8.465  17.486  0.00  0.00    +0.000 OA
ATOM      3  N   UNL     1       1.307   8.776  19.723  0.00  0.00    +0.000 N 
ATOM      4  C   UNL     1       1.310   8.374  21.117  0.00  0.00    +0.000 C 
ATOM      5  C   UNL     1      -0.019   8.870  21.656  0.00  0.00    +0.000 C 
ATOM      6  C   UNL     1      -0.366  10.077  20.802  0.00  0.00    +0.000 C 
ATOM      7  C   UNL     1       0.486   9.946  19.526  0.00  0.00    +0.000 C 
ENDROOT
BRANCH   7   8
ATOM      8  C   UNL     1       1.252  11.247  19.322  0.00  0.00    +0.000 A 
ATOM      9  C   UNL     1       2.081  11.560  18.242  0.00  0.00    +0.000 A 
ATOM     10  C   UNL     1       2.680  12.829  18.151  0.00  0.00    +0.000 A 
ATOM     11  C   UNL     1       2.511  13.728  19.199  0.00  0.00    +0.000 A 
ATOM     12  C   UNL     1       1.928  13.283  20.378  0.00  0.00    +0.000 A 
ATOM     13  C   UNL     1       1.184  12.126  20.402  0.00  0.00    +0.000 A 
ATOM     14  O   UNL     1       2.328  13.759  21.596  0.00  0.00    +0.000 OA
ATOM     15  C   UNL     1       1.705  14.978  21.949  0.00  0.00    +0.000 C 
ATOM     16  C   UNL     1       2.209  16.145  21.115  0.00  0.00    +0.000 C 
ATOM     17  C   UNL     1       1.945  15.937  19.627  0.00  0.00    +0.000 C 
ATOM     18  O   UNL     1       2.913  15.034  19.046  0.00  0.00    +0.000 OA
ENDBRANCH   7   8
BRANCH   1  19
ATOM     19  C   UNL     1       2.900   7.021  19.015  0.00  0.00    +0.000 C 
BRANCH  19  20
ATOM     20  O   UNL     1       2.574   5.744  18.461  0.00  0.00    +0.000 OA
BRANCH  20  26
ATOM     21  C   UNL     1       3.598   3.827  19.540  0.00  0.00    +0.000 A 
ATOM     22  C   UNL     1       3.497   2.795  20.500  0.00  0.00    +0.000 A 
ATOM     23  C   UNL     1       2.351   2.625  21.276  0.00  0.00    +0.000 A 
ATOM     24  C   UNL     1       1.276   3.468  21.089  0.00  0.00    +0.000 A 
ATOM     25  C   UNL     1       1.350   4.488  20.147  0.00  0.00    +0.000 A 
ATOM     26  C   UNL     1       2.511   4.715  19.380  0.00  0.00    +0.000 A 
BRANCH  21  28
ATOM     27  N   UNL     1       4.861   3.607  17.432  0.00  0.00    +0.000 N 
ATOM     28  C   UNL     1       4.881   3.839  18.780  0.00  0.00    +0.000 C 
ATOM     29  O   UNL     1       5.962   4.031  19.337  0.00  0.00    +0.000 OA
ATOM     30  H   UNL     1       5.745   3.604  16.940  0.00  0.00    +0.000 HD
ATOM     31  H   UNL     1       4.003   3.455  16.921  0.00  0.00    +0.000 HD
ENDBRANCH  21  28
ENDBRANCH  20  26
ENDBRANCH  19  20
ENDBRANCH   1  19
TORSDOF 5
ENDMDL
MODEL 4
REMARK VINA RESULT:      -8.2      1.396      2.029
REMARK  Name = 
REMARK  5 active torsions:
REMARK  status: ('A' for Active; 'I' for Inactive)
REMARK    1  A    between atoms: C_2  and  C_4
REMARK    2  A    between atoms: C_9  and  O_10
REMARK    3  A    between atoms: O_10  and  C_11
REMARK    4  A    between atoms: C_11  and  C_12
REMARK    5  A    between atoms: C_18  and  C_19
REMARK                            x       y       z     vdW  Elec       q    Type
REMARK                         _______ _______ _______ _____ _____    ______ ____
ROOT
ATOM      1  C   UNL     1       2.715   3.289  17.840  0.00  0.00    +0.000 C 
ATOM      2  O   UNL     1       1.810   3.627  17.077  0.00  0.00    +0.000 OA
ATOM      3  N   UNL     1       2.673   3.532  19.204  0.00  0.00    +0.000 N 
ATOM      4  C   UNL     1       3.585   3.038  20.218  0.00  0.00    +0.000 C 
ATOM      5  C   UNL     1       2.728   2.902  21.464  0.00  0.00    +0.000 C 
ATOM      6  C   UNL     1       1.630   3.939  21.303  0.00  0.00    +0.000 C 
ATOM      7  C   UNL     1       1.595   4.283  19.801  0.00  0.00    +0.000 C 
ENDROOT
BRANCH   7   8
ATOM      8  C   UNL     1       1.699   5.795  19.651  0.00  0.00    +0.000 A 
ATOM      9  C   UNL     1       2.355   6.483  18.625  0.00  0.00    +0.000 A 
ATOM     10  C   UNL     1       2.318   7.888  18.577  0.00  0.00    +0.000 A 
ATOM     11  C   UNL     1       1.704   8.580  19.616  0.00  0.00    +0.000 A 
ATOM     12  C   UNL     1       1.322   7.883  20.754  0.00  0.00    +0.000 A 
ATOM     13  C   UNL     1       1.183   6.514  20.727  0.00  0.00    +0.000 A 
ATOM     14  O   UNL     1       1.397   8.449  21.996  0.00  0.00    +0.000 OA
ATOM     15  C   UNL     1       0.271   9.244  22.313  0.00  0.00    +0.000 C 
ATOM     16  C   UNL     1       0.237  10.538  21.517  0.00  0.00    +0.000 C 
ATOM     17  C   UNL     1       0.178  10.281  20.015  0.00  0.00    +0.000 C 
ATOM     18  O   UNL     1       1.480   9.930  19.493  0.00  0.00    +0.000 OA
ENDBRANCH   7   8
BRANCH   1  19
ATOM     19  C   UNL     1       3.995   2.645  17.311  0.00  0.00    +0.000 C 
BRANCH  19  20
ATOM     20  O   UNL     1       5.176   3.422  17.522  0.00  0.00    +0.000 OA
BRANCH  20  26
ATOM     21  C   UNL     1       6.864   4.785  16.437  0.00  0.00    +0.000 A 
ATOM     22  C   UNL     1       7.447   5.240  15.232  0.00  0.00    +0.000 A 
ATOM     23  C   UNL     1       6.957   4.848  13.987  0.00  0.00    +0.000 A 
ATOM     24  C   UNL     1       5.860   4.014  13.924  0.00  0.00    +0.000 A 
ATOM     25  C   UNL     1       5.267   3.558  15.095  0.00  0.00    +0.000 A 
ATOM     26  C   UNL     1       5.767   3.898  16.369  0.00  0.00    +0.000 A 
BRANCH  21  28
ATOM     27  N   UNL     1       7.532   6.686  17.862  0.00  0.00    +0.000 N 
ATOM     28  C   UNL     1       7.496   5.332  17.672  0.00  0.00    +0.000 C 
ATOM     29  O   UNL     1       8.007   4.596  18.518  0.00  0.00    +0.000 OA
ATOM     30  H   UNL     1       7.980   7.035  18.699  0.00  0.00    +0.000 HD
ATOM     31  H   UNL     1       7.119   7.336  17.207  0.00  0.00    +0.000 HD
ENDBRANCH  21  28
ENDBRANCH  20  26
ENDBRANCH  19  20
ENDBRANCH   1  19
TORSDOF 5
ENDMDL
MODEL 5
REMARK VINA RESULT:      -8.1      3.271      5.363
REMARK  Name = 
REMARK  5 active torsions:
REMARK  status: ('A' for Active; 'I' for Inactive)
REMARK    1  A    between atoms: C_2  and  C_4
REMARK    2  A    between atoms: C_9  and  O_10
REMARK    3  A    between atoms: O_10  and  C_11
REMARK    4  A    between atoms: C_11  and  C_12
REMARK    5  A    between atoms: C_18  and  C_19
REMARK                            x       y       z     vdW  Elec       q    Type
REMARK                         _______ _______ _______ _____ _____    ______ ____
ROOT
ATOM      1  C   UNL     1       1.937   8.407  18.513  0.00  0.00    +0.000 C 
ATOM      2  O   UNL     1       1.834   8.784  17.345  0.00  0.00    +0.000 OA
ATOM      3  N   UNL     1       1.283   9.036  19.562  0.00  0.00    +0.000 N 
ATOM      4  C   UNL     1       1.188   8.590  20.938  0.00  0.00    +0.000 C 
ATOM      5  C   UNL     1      -0.158   9.108  21.412  0.00  0.00    +0.000 C 
ATOM      6  C   UNL     1      -0.417  10.352  20.579  0.00  0.00    +0.000 C 
ATOM      7  C   UNL     1       0.509  10.236  19.353  0.00  0.00    +0.000 C 
ENDROOT
BRANCH   7   8
ATOM      8  C   UNL     1       1.322  11.519  19.241  0.00  0.00    +0.000 A 
ATOM      9  C   UNL     1       2.226  11.841  18.224  0.00  0.00    +0.000 A 
ATOM     10  C   UNL     1       2.864  13.094  18.214  0.00  0.00    +0.000 A 
ATOM     11  C   UNL     1       2.656  13.964  19.279  0.00  0.00    +0.000 A 
ATOM     12  C   UNL     1       1.989  13.499  20.404  0.00  0.00    +0.000 A 
ATOM     13  C   UNL     1       1.213  12.364  20.344  0.00  0.00    +0.000 A 
ATOM     14  O   UNL     1       2.326  13.923  21.659  0.00  0.00    +0.000 OA
ATOM     15  C   UNL     1       1.717  15.149  22.015  0.00  0.00    +0.000 C 
ATOM     16  C   UNL     1       2.304  16.326  21.253  0.00  0.00    +0.000 C 
ATOM     17  C   UNL     1       2.127  16.174  19.746  0.00  0.00    +0.000 C 
ATOM     18  O   UNL     1       3.104  15.260  19.195  0.00  0.00    +0.000 OA
ENDBRANCH   7   8
BRANCH   1  19
ATOM     19  C   UNL     1       2.867   7.257  18.894  0.00  0.00    +0.000 C 
BRANCH  19  20
ATOM     20  O   UNL     1       3.370   6.515  17.780  0.00  0.00    +0.000 OA
BRANCH  20  26
ATOM     21  C   UNL     1       4.123   4.210  17.680  0.00  0.00    +0.000 A 
ATOM     22  C   UNL     1       3.793   2.837  17.731  0.00  0.00    +0.000 A 
ATOM     23  C   UNL     1       2.476   2.405  17.891  0.00  0.00    +0.000 A 
ATOM     24  C   UNL     1       1.465   3.338  17.978  0.00  0.00    +0.000 A 
ATOM     25  C   UNL     1       1.764   4.694  17.926  0.00  0.00    +0.000 A 
ATOM     26  C   UNL     1       3.089   5.164  17.813  0.00  0.00    +0.000 A 
BRANCH  21  28
ATOM     27  N   UNL     1       6.462   4.180  18.465  0.00  0.00    +0.000 N 
ATOM     28  C   UNL     1       5.573   4.489  17.473  0.00  0.00    +0.000 C 
ATOM     29  O   UNL     1       5.991   5.011  16.438  0.00  0.00    +0.000 OA
ATOM     30  H   UNL     1       7.438   4.393  18.309  0.00  0.00    +0.000 HD
ATOM     31  H   UNL     1       6.177   3.741  19.330  0.00  0.00    +0.000 HD
ENDBRANCH  21  28
ENDBRANCH  20  26
ENDBRANCH  19  20
ENDBRANCH   1  19
TORSDOF 5
ENDMDL
MODEL 6
REMARK VINA RESULT:      -8.0      3.936      9.106
REMARK  Name = 
REMARK  5 active torsions:
REMARK  status: ('A' for Active; 'I' for Inactive)
REMARK    1  A    between atoms: C_2  and  C_4
REMARK    2  A    between atoms: C_9  and  O_10
REMARK    3  A    between atoms: O_10  and  C_11
REMARK    4  A    between atoms: C_11  and  C_12
REMARK    5  A    between atoms: C_18  and  C_19
REMARK                            x       y       z     vdW  Elec       q    Type
REMARK                         _______ _______ _______ _____ _____    ______ ____
ROOT
ATOM      1  C   UNL     1      -0.017  10.153  18.852  0.00  0.00    +0.000 C 
ATOM      2  O   UNL     1       0.892  10.414  18.063  0.00  0.00    +0.000 OA
ATOM      3  N   UNL     1       0.205   9.536  20.072  0.00  0.00    +0.000 N 
ATOM      4  C   UNL     1      -0.747   9.334  21.147  0.00  0.00    +0.000 C 
ATOM      5  C   UNL     1       0.092   9.379  22.411  0.00  0.00    +0.000 C 
ATOM      6  C   UNL     1       1.471   8.906  21.985  0.00  0.00    +0.000 C 
ATOM      7  C   UNL     1       1.518   9.077  20.454  0.00  0.00    +0.000 C 
ENDROOT
BRANCH   7   8
ATOM      8  C   UNL     1       1.946   7.751  19.836  0.00  0.00    +0.000 A 
ATOM      9  C   UNL     1       2.421   7.559  18.535  0.00  0.00    +0.000 A 
ATOM     10  C   UNL     1       2.840   6.284  18.115  0.00  0.00    +0.000 A 
ATOM     11  C   UNL     1       2.682   5.206  18.979  0.00  0.00    +0.000 A 
ATOM     12  C   UNL     1       1.945   5.380  20.142  0.00  0.00    +0.000 A 
ATOM     13  C   UNL     1       1.704   6.640  20.640  0.00  0.00    +0.000 A 
ATOM     14  O   UNL     1       1.158   4.381  20.644  0.00  0.00    +0.000 OA
ATOM     15  C   UNL     1       1.874   3.457  21.440  0.00  0.00    +0.000 C 
ATOM     16  C   UNL     1       2.795   2.576  20.612  0.00  0.00    +0.000 C 
ATOM     17  C   UNL     1       3.835   3.393  19.853  0.00  0.00    +0.000 C 
ATOM     18  O   UNL     1       3.263   3.999  18.671  0.00  0.00    +0.000 OA
ENDBRANCH   7   8
BRANCH   1  19
ATOM     19  C   UNL     1      -1.476  10.427  18.492  0.00  0.00    +0.000 C 
BRANCH  19  20
ATOM     20  O   UNL     1      -1.829  11.812  18.477  0.00  0.00    +0.000 OA
BRANCH  20  26
ATOM     21  C   UNL     1      -4.152  12.066  19.131  0.00  0.00    +0.000 A 
ATOM     22  C   UNL     1      -5.085  12.439  20.124  0.00  0.00    +0.000 A 
ATOM     23  C   UNL     1      -4.678  12.928  21.365  0.00  0.00    +0.000 A 
ATOM     24  C   UNL     1      -3.332  13.074  21.626  0.00  0.00    +0.000 A 
ATOM     25  C   UNL     1      -2.395  12.718  20.663  0.00  0.00    +0.000 A 
ATOM     26  C   UNL     1      -2.773  12.177  19.416  0.00  0.00    +0.000 A 
BRANCH  21  28
ATOM     27  N   UNL     1      -4.208  11.980  16.665  0.00  0.00    +0.000 N 
ATOM     28  C   UNL     1      -4.764  11.596  17.854  0.00  0.00    +0.000 C 
ATOM     29  O   UNL     1      -5.772  10.889  17.842  0.00  0.00    +0.000 OA
ATOM     30  H   UNL     1      -4.650  11.664  15.812  0.00  0.00    +0.000 HD
ATOM     31  H   UNL     1      -3.375  12.551  16.616  0.00  0.00    +0.000 HD
ENDBRANCH  21  28
ENDBRANCH  20  26
ENDBRANCH  19  20
ENDBRANCH   1  19
TORSDOF 5
ENDMDL
MODEL 7
REMARK VINA RESULT:      -8.0      2.107      7.577
REMARK  Name = 
REMARK  5 active torsions:
REMARK  status: ('A' for Active; 'I' for Inactive)
REMARK    1  A    between atoms: C_2  and  C_4
REMARK    2  A    between atoms: C_9  and  O_10
REMARK    3  A    between atoms: O_10  and  C_11
REMARK    4  A    between atoms: C_11  and  C_12
REMARK    5  A    between atoms: C_18  and  C_19
REMARK                            x       y       z     vdW  Elec       q    Type
REMARK                         _______ _______ _______ _____ _____    ______ ____
ROOT
ATOM      1  C   UNL     1       3.262   5.455  19.555  0.00  0.00    +0.000 C 
ATOM      2  O   UNL     1       4.334   5.730  20.095  0.00  0.00    +0.000 OA
ATOM      3  N   UNL     1       3.124   4.413  18.652  0.00  0.00    +0.000 N 
ATOM      4  C   UNL     1       1.895   3.889  18.087  0.00  0.00    +0.000 C 
ATOM      5  C   UNL     1       2.181   2.416  17.859  0.00  0.00    +0.000 C 
ATOM      6  C   UNL     1       3.681   2.336  17.636  0.00  0.00    +0.000 C 
ATOM      7  C   UNL     1       4.262   3.639  18.218  0.00  0.00    +0.000 C 
ENDROOT
BRANCH   7   8
ATOM      8  C   UNL     1       5.125   4.300  17.150  0.00  0.00    +0.000 A 
ATOM      9  C   UNL     1       5.942   5.421  17.322  0.00  0.00    +0.000 A 
ATOM     10  C   UNL     1       6.736   5.889  16.260  0.00  0.00    +0.000 A 
ATOM     11  C   UNL     1       6.620   5.280  15.015  0.00  0.00    +0.000 A 
ATOM     12  C   UNL     1       5.595   4.368  14.806  0.00  0.00    +0.000 A 
ATOM     13  C   UNL     1       4.952   3.777  15.870  0.00  0.00    +0.000 A 
ATOM     14  O   UNL     1       4.961   4.271  13.599  0.00  0.00    +0.000 OA
ATOM     15  C   UNL     1       5.647   3.451  12.675  0.00  0.00    +0.000 C 
ATOM     16  C   UNL     1       6.924   4.100  12.166  0.00  0.00    +0.000 C 
ATOM     17  C   UNL     1       7.903   4.393  13.298  0.00  0.00    +0.000 C 
ATOM     18  O   UNL     1       7.522   5.584  14.023  0.00  0.00    +0.000 OA
ENDBRANCH   7   8
BRANCH   1  19
ATOM     19  C   UNL     1       2.018   6.309  19.792  0.00  0.00    +0.000 C 
BRANCH  19  20
ATOM     20  O   UNL     1       2.222   7.711  19.602  0.00  0.00    +0.000 OA
BRANCH  20  26
ATOM     21  C   UNL     1       0.620   9.525  19.786  0.00  0.00    +0.000 A 
ATOM     22  C   UNL     1      -0.197  10.324  20.617  0.00  0.00    +0.000 A 
ATOM     23  C   UNL     1      -0.220  10.158  22.002  0.00  0.00    +0.000 A 
ATOM     24  C   UNL     1       0.591   9.205  22.581  0.00  0.00    +0.000 A 
ATOM     25  C   UNL     1       1.407   8.410  21.786  0.00  0.00    +0.000 A 
ATOM     26  C   UNL     1       1.418   8.521  20.380  0.00  0.00    +0.000 A 
BRANCH  21  28
ATOM     27  N   UNL     1       1.700  10.005  17.620  0.00  0.00    +0.000 N 
ATOM     28  C   UNL     1       0.543   9.863  18.336  0.00  0.00    +0.000 C 
ATOM     29  O   UNL     1      -0.536  10.040  17.768  0.00  0.00    +0.000 OA
ATOM     30  H   UNL     1       1.624  10.251  16.642  0.00  0.00    +0.000 HD
ATOM     31  H   UNL     1       2.612   9.861  18.031  0.00  0.00    +0.000 HD
ENDBRANCH  21  28
ENDBRANCH  20  26
ENDBRANCH  19  20
ENDBRANCH   1  19
TORSDOF 5
ENDMDL
MODEL 8
REMARK VINA RESULT:      -8.0      3.262      5.904
REMARK  Name = 
REMARK  5 active torsions:
REMARK  status: ('A' for Active; 'I' for Inactive)
REMARK    1  A    between atoms: C_2  and  C_4
REMARK    2  A    between atoms: C_9  and  O_10
REMARK    3  A    between atoms: O_10  and  C_11
REMARK    4  A    between atoms: C_11  and  C_12
REMARK    5  A    between atoms: C_18  and  C_19
REMARK                            x       y       z     vdW  Elec       q    Type
REMARK                         _______ _______ _______ _____ _____    ______ ____
ROOT
ATOM      1  C   UNL     1       1.828   8.432  18.615  0.00  0.00    +0.000 C 
ATOM      2  O   UNL     1       1.719   8.780  17.439  0.00  0.00    +0.000 OA
ATOM      3  N   UNL     1       1.209   9.107  19.656  0.00  0.00    +0.000 N 
ATOM      4  C   UNL     1       1.122   8.700  21.045  0.00  0.00    +0.000 C 
ATOM      5  C   UNL     1      -0.201   9.269  21.524  0.00  0.00    +0.000 C 
ATOM      6  C   UNL     1      -0.437  10.498  20.662  0.00  0.00    +0.000 C 
ATOM      7  C   UNL     1       0.466  10.322  19.427  0.00  0.00    +0.000 C 
ENDROOT
BRANCH   7   8
ATOM      8  C   UNL     1       1.314  11.578  19.268  0.00  0.00    +0.000 A 
ATOM      9  C   UNL     1       2.163  11.875  18.199  0.00  0.00    +0.000 A 
ATOM     10  C   UNL     1       2.841  13.106  18.152  0.00  0.00    +0.000 A 
ATOM     11  C   UNL     1       2.729  13.977  19.231  0.00  0.00    +0.000 A 
ATOM     12  C   UNL     1       2.116  13.530  20.394  0.00  0.00    +0.000 A 
ATOM     13  C   UNL     1       1.300  12.422  20.378  0.00  0.00    +0.000 A 
ATOM     14  O   UNL     1       2.544  13.936  21.627  0.00  0.00    +0.000 OA
ATOM     15  C   UNL     1       2.000  15.179  22.023  0.00  0.00    +0.000 C 
ATOM     16  C   UNL     1       2.578  16.340  21.230  0.00  0.00    +0.000 C 
ATOM     17  C   UNL     1       2.304  16.201  19.736  0.00  0.00    +0.000 C 
ATOM     18  O   UNL     1       3.213  15.259  19.123  0.00  0.00    +0.000 OA
ENDBRANCH   7   8
BRANCH   1  19
ATOM     19  C   UNL     1       2.731   7.266  19.013  0.00  0.00    +0.000 C 
BRANCH  19  20
ATOM     20  O   UNL     1       2.072   5.998  19.048  0.00  0.00    +0.000 OA
BRANCH  20  26
ATOM     21  C   UNL     1       2.212   3.674  18.363  0.00  0.00    +0.000 A 
ATOM     22  C   UNL     1       2.904   2.675  17.642  0.00  0.00    +0.000 A 
ATOM     23  C   UNL     1       4.082   2.954  16.950  0.00  0.00    +0.000 A 
ATOM     24  C   UNL     1       4.601   4.231  16.987  0.00  0.00    +0.000 A 
ATOM     25  C   UNL     1       3.942   5.229  17.694  0.00  0.00    +0.000 A 
ATOM     26  C   UNL     1       2.724   4.990  18.365  0.00  0.00    +0.000 A 
BRANCH  21  28
ATOM     27  N   UNL     1       0.697   3.683  20.311  0.00  0.00    +0.000 N 
ATOM     28  C   UNL     1       0.990   3.190  19.069  0.00  0.00    +0.000 C 
ATOM     29  O   UNL     1       0.248   2.342  18.573  0.00  0.00    +0.000 OA
ATOM     30  H   UNL     1      -0.127   3.328  20.778  0.00  0.00    +0.000 HD
ATOM     31  H   UNL     1       1.264   4.388  20.762  0.00  0.00    +0.000 HD
ENDBRANCH  21  28
ENDBRANCH  20  26
ENDBRANCH  19  20
ENDBRANCH   1  19
TORSDOF 5
ENDMDL
MODEL 9
REMARK VINA RESULT:      -8.0      4.098      8.984
REMARK  Name = 
REMARK  5 active torsions:
REMARK  status: ('A' for Active; 'I' for Inactive)
REMARK    1  A    between atoms: C_2  and  C_4
REMARK    2  A    between atoms: C_9  and  O_10
REMARK    3  A    between atoms: O_10  and  C_11
REMARK    4  A    between atoms: C_11  and  C_12
REMARK    5  A    between atoms: C_18  and  C_19
REMARK                            x       y       z     vdW  Elec       q    Type
REMARK                         _______ _______ _______ _____ _____    ______ ____
ROOT
ATOM      1  C   UNL     1      -0.260  10.110  19.159  0.00  0.00    +0.000 C 
ATOM      2  O   UNL     1       0.566  10.425  18.302  0.00  0.00    +0.000 OA
ATOM      3  N   UNL     1       0.095   9.498  20.351  0.00  0.00    +0.000 N 
ATOM      4  C   UNL     1      -0.753   9.238  21.498  0.00  0.00    +0.000 C 
ATOM      5  C   UNL     1       0.185   9.321  22.689  0.00  0.00    +0.000 C 
ATOM      6  C   UNL     1       1.547   8.926  22.146  0.00  0.00    +0.000 C 
ATOM      7  C   UNL     1       1.459   9.108  20.619  0.00  0.00    +0.000 C 
ENDROOT
BRANCH   7   8
ATOM      8  C   UNL     1       1.904   7.812  19.952  0.00  0.00    +0.000 A 
ATOM      9  C   UNL     1       2.403   7.677  18.654  0.00  0.00    +0.000 A 
ATOM     10  C   UNL     1       2.836   6.423  18.188  0.00  0.00    +0.000 A 
ATOM     11  C   UNL     1       2.669   5.308  19.003  0.00  0.00    +0.000 A 
ATOM     12  C   UNL     1       1.910   5.430  20.159  0.00  0.00    +0.000 A 
ATOM     13  C   UNL     1       1.654   6.666  20.706  0.00  0.00    +0.000 A 
ATOM     14  O   UNL     1       1.121   4.407  20.605  0.00  0.00    +0.000 OA
ATOM     15  C   UNL     1       1.828   3.454  21.374  0.00  0.00    +0.000 C 
ATOM     16  C   UNL     1       2.767   2.612  20.526  0.00  0.00    +0.000 C 
ATOM     17  C   UNL     1       3.816   3.466  19.821  0.00  0.00    +0.000 C 
ATOM     18  O   UNL     1       3.261   4.118  18.656  0.00  0.00    +0.000 OA
ENDBRANCH   7   8
BRANCH   1  19
ATOM     19  C   UNL     1      -1.756  10.306  18.923  0.00  0.00    +0.000 C 
BRANCH  19  20
ATOM     20  O   UNL     1      -2.149  11.668  18.740  0.00  0.00    +0.000 OA
BRANCH  20  26
ATOM     21  C   UNL     1      -4.200  11.597  17.445  0.00  0.00    +0.000 A 
ATOM     22  C   UNL     1      -5.597  11.804  17.398  0.00  0.00    +0.000 A 
ATOM     23  C   UNL     1      -6.305  12.282  18.501  0.00  0.00    +0.000 A 
ATOM     24  C   UNL     1      -5.625  12.584  19.661  0.00  0.00    +0.000 A 
ATOM     25  C   UNL     1      -4.249  12.394  19.730  0.00  0.00    +0.000 A 
ATOM     26  C   UNL     1      -3.512  11.868  18.649  0.00  0.00    +0.000 A 
BRANCH  21  28
ATOM     27  N   UNL     1      -2.355  11.540  15.807  0.00  0.00    +0.000 N 
ATOM     28  C   UNL     1      -3.605  11.114  16.166  0.00  0.00    +0.000 C 
ATOM     29  O   UNL     1      -4.217  10.358  15.411  0.00  0.00    +0.000 OA
ATOM     30  H   UNL     1      -1.978  11.212  14.928  0.00  0.00    +0.000 HD
ATOM     31  H   UNL     1      -1.803  12.151  16.392  0.00  0.00    +0.000 HD
ENDBRANCH  21  28
ENDBRANCH  20  26
ENDBRANCH  19  20
ENDBRANCH   1  19
TORSDOF 5
ENDMDL
