MODEL 1
REMARK VINA RESULT:      -7.3      0.000      0.000
REMARK  Name = 
REMARK  12 active torsions:
REMARK  status: ('A' for Active; 'I' for Inactive)
REMARK    1  A    between atoms: C_1  and  O_2
REMARK    2  A    between atoms: O_2  and  C_3
REMARK    3  A    between atoms: N_8  and  C_9
REMARK    4  A    between atoms: C_9  and  C_10
REMARK    5  A    between atoms: C_12  and  O_13
REMARK    6  A    between atoms: O_13  and  C_14
REMARK    7  A    between atoms: C_15  and  O_16
REMARK    8  A    between atoms: O_16  and  C_17
REMARK    9  A    between atoms: C_18  and  O_19
REMARK   10  A    between atoms: O_19  and  C_20
REMARK   11  A    between atoms: C_26  and  O_27
REMARK   12  A    between atoms: O_27  and  C_28
REMARK                            x       y       z     vdW  Elec       q    Type
REMARK                         _______ _______ _______ _____ _____    ______ ____
ROOT
ATOM      1  C   UNL     1       3.560   4.909  19.100  0.00  0.00    +0.000 A 
ATOM      2  C   UNL     1       2.762   5.544  20.070  0.00  0.00    +0.000 A 
ATOM      3  C   UNL     1       2.206   6.801  19.836  0.00  0.00    +0.000 A 
ATOM      4  N   UNL     1       1.448   7.427  20.838  0.00  0.00    +0.000 NA
ATOM      5  C   UNL     1       1.019   8.623  20.605  0.00  0.00    +0.000 A 
ATOM      6  N   UNL     1       1.240   9.330  19.448  0.00  0.00    +0.000 N 
ATOM      7  C   UNL     1       1.937   8.769  18.392  0.00  0.00    +0.000 A 
ATOM      8  O   UNL     1       2.181   9.352  17.340  0.00  0.00    +0.000 OA
ATOM      9  C   UNL     1       2.444   7.405  18.606  0.00  0.00    +0.000 A 
ATOM     10  C   UNL     1       3.194   6.772  17.610  0.00  0.00    +0.000 A 
ATOM     11  C   UNL     1       3.761   5.517  17.846  0.00  0.00    +0.000 A 
ENDROOT
BRANCH   1  13
ATOM     12  C   UNL     1       3.168   2.889  20.296  0.00  0.00    +0.000 C 
ATOM     13  O   UNL     1       4.040   3.687  19.502  0.00  0.00    +0.000 OA
ENDBRANCH   1  13
BRANCH  11  14
ATOM     14  O   UNL     1       4.497   4.846  16.908  0.00  0.00    +0.000 OA
ATOM     15  C   UNL     1       5.881   5.153  16.792  0.00  0.00    +0.000 C 
ENDBRANCH  11  14
BRANCH   6  16
ATOM     16  C   UNL     1       0.861  10.729  19.350  0.00  0.00    +0.000 C 
BRANCH  16  17
ATOM     17  C   UNL     1      -0.588  10.941  18.984  0.00  0.00    +0.000 A 
ATOM     18  C   UNL     1      -1.362  11.844  19.713  0.00  0.00    +0.000 A 
ATOM     19  C   UNL     1      -2.681  12.124  19.340  0.00  0.00    +0.000 A 
ATOM     20  C   UNL     1      -3.262  11.461  18.234  0.00  0.00    +0.000 A 
ATOM     21  C   UNL     1      -2.499  10.519  17.512  0.00  0.00    +0.000 A 
ATOM     22  C   UNL     1      -1.172  10.269  17.902  0.00  0.00    +0.000 A 
BRANCH  19  23
ATOM     23  O   UNL     1      -3.462  13.025  20.028  0.00  0.00    +0.000 OA
ATOM     24  C   UNL     1      -3.769  12.685  21.377  0.00  0.00    +0.000 C 
ENDBRANCH  19  23
BRANCH  20  25
ATOM     25  O   UNL     1      -4.586  11.767  18.002  0.00  0.00    +0.000 OA
ATOM     26  C   UNL     1      -5.569  10.838  18.443  0.00  0.00    +0.000 C 
ENDBRANCH  20  25
BRANCH  21  27
ATOM     27  O   UNL     1      -3.095   9.870  16.461  0.00  0.00    +0.000 OA
ATOM     28  C   UNL     1      -2.921  10.397  15.152  0.00  0.00    +0.000 C 
ENDBRANCH  21  27
ENDBRANCH  16  17
ENDBRANCH   6  16
TORSDOF 7
ENDMDL
MODEL 2
REMARK VINA RESULT:      -7.1      0.605      2.471
REMARK  Name = 
REMARK  12 active torsions:
REMARK  status: ('A' for Active; 'I' for Inactive)
REMARK    1  A    between atoms: C_1  and  O_2
REMARK    2  A    between atoms: O_2  and  C_3
REMARK    3  A    between atoms: N_8  and  C_9
REMARK    4  A    between atoms: C_9  and  C_10
REMARK    5  A    between atoms: C_12  and  O_13
REMARK    6  A    between atoms: O_13  and  C_14
REMARK    7  A    between atoms: C_15  and  O_16
REMARK    8  A    between atoms: O_16  and  C_17
REMARK    9  A    between atoms: C_18  and  O_19
REMARK   10  A    between atoms: O_19  and  C_20
REMARK   11  A    between atoms: C_26  and  O_27
REMARK   12  A    between atoms: O_27  and  C_28
REMARK                            x       y       z     vdW  Elec       q    Type
REMARK                         _______ _______ _______ _____ _____    ______ ____
ROOT
ATOM      1  C   UNL     1       3.134   4.526  19.761  0.00  0.00    +0.000 A 
ATOM      2  C   UNL     1       2.359   5.360  20.588  0.00  0.00    +0.000 A 
ATOM      3  C   UNL     1       1.946   6.620  20.156  0.00  0.00    +0.000 A 
ATOM      4  N   UNL     1       1.208   7.446  21.019  0.00  0.00    +0.000 NA
ATOM      5  C   UNL     1       0.915   8.634  20.605  0.00  0.00    +0.000 A 
ATOM      6  N   UNL     1       1.264   9.152  19.381  0.00  0.00    +0.000 N 
ATOM      7  C   UNL     1       1.951   8.388  18.453  0.00  0.00    +0.000 A 
ATOM      8  O   UNL     1       2.305   8.796  17.351  0.00  0.00    +0.000 OA
ATOM      9  C   UNL     1       2.305   7.025  18.876  0.00  0.00    +0.000 A 
ATOM     10  C   UNL     1       3.034   6.193  18.020  0.00  0.00    +0.000 A 
ATOM     11  C   UNL     1       3.457   4.935  18.453  0.00  0.00    +0.000 A 
ENDROOT
BRANCH   1  13
ATOM     12  C   UNL     1       2.562   2.827  21.326  0.00  0.00    +0.000 C 
ATOM     13  O   UNL     1       3.467   3.330  20.350  0.00  0.00    +0.000 OA
ENDBRANCH   1  13
BRANCH  11  14
ATOM     14  O   UNL     1       4.166   4.074  17.660  0.00  0.00    +0.000 OA
ATOM     15  C   UNL     1       4.903   4.615  16.570  0.00  0.00    +0.000 C 
ENDBRANCH  11  14
BRANCH   6  16
ATOM     16  C   UNL     1       1.035  10.554  19.076  0.00  0.00    +0.000 C 
BRANCH  16  17
ATOM     17  C   UNL     1      -0.407  10.882  18.774  0.00  0.00    +0.000 A 
ATOM     18  C   UNL     1      -1.047  10.271  17.696  0.00  0.00    +0.000 A 
ATOM     19  C   UNL     1      -2.406  10.492  17.447  0.00  0.00    +0.000 A 
ATOM     20  C   UNL     1      -3.144  11.374  18.271  0.00  0.00    +0.000 A 
ATOM     21  C   UNL     1      -2.497  12.025  19.343  0.00  0.00    +0.000 A 
ATOM     22  C   UNL     1      -1.134  11.773  19.575  0.00  0.00    +0.000 A 
BRANCH  19  23
ATOM     23  O   UNL     1      -3.068   9.887  16.404  0.00  0.00    +0.000 OA
ATOM     24  C   UNL     1      -2.803  10.413  15.106  0.00  0.00    +0.000 C 
ENDBRANCH  19  23
BRANCH  20  25
ATOM     25  O   UNL     1      -4.455  11.564  17.891  0.00  0.00    +0.000 OA
ATOM     26  C   UNL     1      -5.454  10.790  18.542  0.00  0.00    +0.000 C 
ENDBRANCH  20  25
BRANCH  21  27
ATOM     27  O   UNL     1      -3.228  12.896  20.109  0.00  0.00    +0.000 OA
ATOM     28  C   UNL     1      -2.795  13.160  21.437  0.00  0.00    +0.000 C 
ENDBRANCH  21  27
ENDBRANCH  16  17
ENDBRANCH   6  16
TORSDOF 7
ENDMDL
MODEL 3
REMARK VINA RESULT:      -7.0      1.474      2.328
REMARK  Name = 
REMARK  12 active torsions:
REMARK  status: ('A' for Active; 'I' for Inactive)
REMARK    1  A    between atoms: C_1  and  O_2
REMARK    2  A    between atoms: O_2  and  C_3
REMARK    3  A    between atoms: N_8  and  C_9
REMARK    4  A    between atoms: C_9  and  C_10
REMARK    5  A    between atoms: C_12  and  O_13
REMARK    6  A    between atoms: O_13  and  C_14
REMARK    7  A    between atoms: C_15  and  O_16
REMARK    8  A    between atoms: O_16  and  C_17
REMARK    9  A    between atoms: C_18  and  O_19
REMARK   10  A    between atoms: O_19  and  C_20
REMARK   11  A    between atoms: C_26  and  O_27
REMARK   12  A    between atoms: O_27  and  C_28
REMARK                            x       y       z     vdW  Elec       q    Type
REMARK                         _______ _______ _______ _____ _____    ______ ____
ROOT
ATOM      1  C   UNL     1       2.827   5.375  18.847  0.00  0.00    +0.000 A 
ATOM      2  C   UNL     1       2.862   6.510  18.017  0.00  0.00    +0.000 A 
ATOM      3  C   UNL     1       2.342   7.732  18.444  0.00  0.00    +0.000 A 
ATOM      4  N   UNL     1       2.354   8.837  17.578  0.00  0.00    +0.000 NA
ATOM      5  C   UNL     1       1.791   9.925  17.988  0.00  0.00    +0.000 A 
ATOM      6  N   UNL     1       1.185  10.088  19.210  0.00  0.00    +0.000 N 
ATOM      7  C   UNL     1       1.170   9.064  20.141  0.00  0.00    +0.000 A 
ATOM      8  O   UNL     1       0.633   9.141  21.242  0.00  0.00    +0.000 OA
ATOM      9  C   UNL     1       1.803   7.804  19.723  0.00  0.00    +0.000 A 
ATOM     10  C   UNL     1       1.801   6.700  20.582  0.00  0.00    +0.000 A 
ATOM     11  C   UNL     1       2.312   5.474  20.154  0.00  0.00    +0.000 A 
ENDROOT
BRANCH   1  13
ATOM     12  C   UNL     1       2.515   3.521  17.387  0.00  0.00    +0.000 C 
ATOM     13  O   UNL     1       3.365   4.254  18.263  0.00  0.00    +0.000 OA
ENDBRANCH   1  13
BRANCH  11  14
ATOM     14  O   UNL     1       2.344   4.362  20.951  0.00  0.00    +0.000 OA
ATOM     15  C   UNL     1       1.245   3.460  20.894  0.00  0.00    +0.000 C 
ENDBRANCH  11  14
BRANCH   6  16
ATOM     16  C   UNL     1       0.434  11.295  19.509  0.00  0.00    +0.000 C 
BRANCH  16  17
ATOM     17  C   UNL     1      -1.002  11.248  19.045  0.00  0.00    +0.000 A 
ATOM     18  C   UNL     1      -1.967  12.016  19.695  0.00  0.00    +0.000 A 
ATOM     19  C   UNL     1      -3.285  12.058  19.230  0.00  0.00    +0.000 A 
ATOM     20  C   UNL     1      -3.667  11.286  18.108  0.00  0.00    +0.000 A 
ATOM     21  C   UNL     1      -2.706  10.477  17.464  0.00  0.00    +0.000 A 
ATOM     22  C   UNL     1      -1.386  10.466  17.947  0.00  0.00    +0.000 A 
BRANCH  19  23
ATOM     23  O   UNL     1      -4.254  12.822  19.838  0.00  0.00    +0.000 OA
ATOM     24  C   UNL     1      -3.826  13.609  20.946  0.00  0.00    +0.000 C 
ENDBRANCH  19  23
BRANCH  20  25
ATOM     25  O   UNL     1      -5.004  11.355  17.782  0.00  0.00    +0.000 OA
ATOM     26  C   UNL     1      -5.893  10.455  18.432  0.00  0.00    +0.000 C 
ENDBRANCH  20  25
BRANCH  21  27
ATOM     27  O   UNL     1      -3.108   9.717  16.396  0.00  0.00    +0.000 OA
ATOM     28  C   UNL     1      -2.939  10.243  15.086  0.00  0.00    +0.000 C 
ENDBRANCH  21  27
ENDBRANCH  16  17
ENDBRANCH   6  16
TORSDOF 7
ENDMDL
MODEL 4
REMARK VINA RESULT:      -6.9      2.734      8.830
REMARK  Name = 
REMARK  12 active torsions:
REMARK  status: ('A' for Active; 'I' for Inactive)
REMARK    1  A    between atoms: C_1  and  O_2
REMARK    2  A    between atoms: O_2  and  C_3
REMARK    3  A    between atoms: N_8  and  C_9
REMARK    4  A    between atoms: C_9  and  C_10
REMARK    5  A    between atoms: C_12  and  O_13
REMARK    6  A    between atoms: O_13  and  C_14
REMARK    7  A    between atoms: C_15  and  O_16
REMARK    8  A    between atoms: O_16  and  C_17
REMARK    9  A    between atoms: C_18  and  O_19
REMARK   10  A    between atoms: O_19  and  C_20
REMARK   11  A    between atoms: C_26  and  O_27
REMARK   12  A    between atoms: O_27  and  C_28
REMARK                            x       y       z     vdW  Elec       q    Type
REMARK                         _______ _______ _______ _____ _____    ______ ____
ROOT
ATOM      1  C   UNL     1      -0.067  11.251  21.878  0.00  0.00    +0.000 A 
ATOM      2  C   UNL     1       0.382   9.928  22.039  0.00  0.00    +0.000 A 
ATOM      3  C   UNL     1       0.983   9.237  20.986  0.00  0.00    +0.000 A 
ATOM      4  N   UNL     1       1.383   7.903  21.165  0.00  0.00    +0.000 NA
ATOM      5  C   UNL     1       1.863   7.280  20.140  0.00  0.00    +0.000 A 
ATOM      6  N   UNL     1       2.019   7.824  18.887  0.00  0.00    +0.000 N 
ATOM      7  C   UNL     1       1.693   9.145  18.638  0.00  0.00    +0.000 A 
ATOM      8  O   UNL     1       1.793   9.685  17.540  0.00  0.00    +0.000 OA
ATOM      9  C   UNL     1       1.145   9.900  19.775  0.00  0.00    +0.000 A 
ATOM     10  C   UNL     1       0.750  11.231  19.608  0.00  0.00    +0.000 A 
ATOM     11  C   UNL     1       0.139  11.921  20.657  0.00  0.00    +0.000 A 
ENDROOT
BRANCH   1  13
ATOM     12  C   UNL     1      -2.073  11.768  23.051  0.00  0.00    +0.000 C 
ATOM     13  O   UNL     1      -0.650  11.771  23.008  0.00  0.00    +0.000 OA
ENDBRANCH   1  13
BRANCH  11  14
ATOM     14  O   UNL     1      -0.262  13.226  20.556  0.00  0.00    +0.000 OA
ATOM     15  C   UNL     1      -0.714  13.695  19.291  0.00  0.00    +0.000 C 
ENDBRANCH  11  14
BRANCH   6  16
ATOM     16  C   UNL     1       2.409   6.992  17.762  0.00  0.00    +0.000 C 
BRANCH  16  17
ATOM     17  C   UNL     1       3.764   6.348  17.923  0.00  0.00    +0.000 A 
ATOM     18  C   UNL     1       4.885   6.933  17.336  0.00  0.00    +0.000 A 
ATOM     19  C   UNL     1       6.163   6.404  17.542  0.00  0.00    +0.000 A 
ATOM     20  C   UNL     1       6.331   5.238  18.325  0.00  0.00    +0.000 A 
ATOM     21  C   UNL     1       5.199   4.617  18.894  0.00  0.00    +0.000 A 
ATOM     22  C   UNL     1       3.929   5.179  18.680  0.00  0.00    +0.000 A 
BRANCH  19  23
ATOM     23  O   UNL     1       7.290   6.972  16.992  0.00  0.00    +0.000 OA
ATOM     24  C   UNL     1       7.693   8.222  17.543  0.00  0.00    +0.000 C 
ENDBRANCH  19  23
BRANCH  20  25
ATOM     25  O   UNL     1       7.626   4.772  18.404  0.00  0.00    +0.000 OA
ATOM     26  C   UNL     1       8.418   5.194  19.506  0.00  0.00    +0.000 C 
ENDBRANCH  20  25
BRANCH  21  27
ATOM     27  O   UNL     1       5.386   3.473  19.626  0.00  0.00    +0.000 OA
ATOM     28  C   UNL     1       4.292   2.577  19.777  0.00  0.00    +0.000 C 
ENDBRANCH  21  27
ENDBRANCH  16  17
ENDBRANCH   6  16
TORSDOF 7
ENDMDL
MODEL 5
REMARK VINA RESULT:      -6.8      2.781      8.560
REMARK  Name = 
REMARK  12 active torsions:
REMARK  status: ('A' for Active; 'I' for Inactive)
REMARK    1  A    between atoms: C_1  and  O_2
REMARK    2  A    between atoms: O_2  and  C_3
REMARK    3  A    between atoms: N_8  and  C_9
REMARK    4  A    between atoms: C_9  and  C_10
REMARK    5  A    between atoms: C_12  and  O_13
REMARK    6  A    between atoms: O_13  and  C_14
REMARK    7  A    between atoms: C_15  and  O_16
REMARK    8  A    between atoms: O_16  and  C_17
REMARK    9  A    between atoms: C_18  and  O_19
REMARK   10  A    between atoms: O_19  and  C_20
REMARK   11  A    between atoms: C_26  and  O_27
REMARK   12  A    between atoms: O_27  and  C_28
REMARK                            x       y       z     vdW  Elec       q    Type
REMARK                         _______ _______ _______ _____ _____    ______ ____
ROOT
ATOM      1  C   UNL     1      -0.474  11.331  22.299  0.00  0.00    +0.000 A 
ATOM      2  C   UNL     1       0.011  10.012  22.348  0.00  0.00    +0.000 A 
ATOM      3  C   UNL     1       0.693   9.453  21.267  0.00  0.00    +0.000 A 
ATOM      4  N   UNL     1       1.130   8.121  21.330  0.00  0.00    +0.000 NA
ATOM      5  C   UNL     1       1.687   7.623  20.276  0.00  0.00    +0.000 A 
ATOM      6  N   UNL     1       1.893   8.299  19.098  0.00  0.00    +0.000 N 
ATOM      7  C   UNL     1       1.535   9.630  18.967  0.00  0.00    +0.000 A 
ATOM      8  O   UNL     1       1.678  10.285  17.939  0.00  0.00    +0.000 OA
ATOM      9  C   UNL     1       0.900  10.245  20.143  0.00  0.00    +0.000 A 
ATOM     10  C   UNL     1       0.468  11.574  20.091  0.00  0.00    +0.000 A 
ATOM     11  C   UNL     1      -0.224  12.132  21.168  0.00  0.00    +0.000 A 
ENDROOT
BRANCH   1  13
ATOM     12  C   UNL     1      -2.549  11.856  23.339  0.00  0.00    +0.000 C 
ATOM     13  O   UNL     1      -1.136  11.713  23.440  0.00  0.00    +0.000 OA
ENDBRANCH   1  13
BRANCH  11  14
ATOM     14  O   UNL     1      -0.664  13.428  21.178  0.00  0.00    +0.000 OA
ATOM     15  C   UNL     1      -1.558  13.844  20.153  0.00  0.00    +0.000 C 
ENDBRANCH  11  14
BRANCH   6  16
ATOM     16  C   UNL     1       2.374   7.603  17.917  0.00  0.00    +0.000 C 
BRANCH  16  17
ATOM     17  C   UNL     1       3.006   6.265  18.216  0.00  0.00    +0.000 A 
ATOM     18  C   UNL     1       4.324   6.205  18.666  0.00  0.00    +0.000 A 
ATOM     19  C   UNL     1       4.904   4.986  19.032  0.00  0.00    +0.000 A 
ATOM     20  C   UNL     1       4.166   3.785  18.915  0.00  0.00    +0.000 A 
ATOM     21  C   UNL     1       2.844   3.830  18.426  0.00  0.00    +0.000 A 
ATOM     22  C   UNL     1       2.284   5.071  18.078  0.00  0.00    +0.000 A 
BRANCH  19  23
ATOM     23  O   UNL     1       6.196   4.899  19.499  0.00  0.00    +0.000 OA
ATOM     24  C   UNL     1       7.205   5.441  18.652  0.00  0.00    +0.000 C 
ENDBRANCH  19  23
BRANCH  20  25
ATOM     25  O   UNL     1       4.862   2.641  19.241  0.00  0.00    +0.000 OA
ATOM     26  C   UNL     1       4.574   2.022  20.488  0.00  0.00    +0.000 C 
ENDBRANCH  20  25
BRANCH  21  27
ATOM     27  O   UNL     1       2.160   2.649  18.295  0.00  0.00    +0.000 OA
ATOM     28  C   UNL     1       0.883   2.531  18.910  0.00  0.00    +0.000 C 
ENDBRANCH  21  27
ENDBRANCH  16  17
ENDBRANCH   6  16
TORSDOF 7
ENDMDL
MODEL 6
REMARK VINA RESULT:      -6.8      1.424      3.358
REMARK  Name = 
REMARK  12 active torsions:
REMARK  status: ('A' for Active; 'I' for Inactive)
REMARK    1  A    between atoms: C_1  and  O_2
REMARK    2  A    between atoms: O_2  and  C_3
REMARK    3  A    between atoms: N_8  and  C_9
REMARK    4  A    between atoms: C_9  and  C_10
REMARK    5  A    between atoms: C_12  and  O_13
REMARK    6  A    between atoms: O_13  and  C_14
REMARK    7  A    between atoms: C_15  and  O_16
REMARK    8  A    between atoms: O_16  and  C_17
REMARK    9  A    between atoms: C_18  and  O_19
REMARK   10  A    between atoms: O_19  and  C_20
REMARK   11  A    between atoms: C_26  and  O_27
REMARK   12  A    between atoms: O_27  and  C_28
REMARK                            x       y       z     vdW  Elec       q    Type
REMARK                         _______ _______ _______ _____ _____    ______ ____
ROOT
ATOM      1  C   UNL     1       2.740   5.623  18.761  0.00  0.00    +0.000 A 
ATOM      2  C   UNL     1       2.747   6.791  17.977  0.00  0.00    +0.000 A 
ATOM      3  C   UNL     1       2.227   7.991  18.464  0.00  0.00    +0.000 A 
ATOM      4  N   UNL     1       2.211   9.129  17.643  0.00  0.00    +0.000 NA
ATOM      5  C   UNL     1       1.649  10.195  18.109  0.00  0.00    +0.000 A 
ATOM      6  N   UNL     1       1.071  10.304  19.351  0.00  0.00    +0.000 N 
ATOM      7  C   UNL     1       1.085   9.244  20.240  0.00  0.00    +0.000 A 
ATOM      8  O   UNL     1       0.574   9.272  21.355  0.00  0.00    +0.000 OA
ATOM      9  C   UNL     1       1.718   8.006  19.757  0.00  0.00    +0.000 A 
ATOM     10  C   UNL     1       1.745   6.869  20.571  0.00  0.00    +0.000 A 
ATOM     11  C   UNL     1       2.255   5.665  20.082  0.00  0.00    +0.000 A 
ENDROOT
BRANCH   1  13
ATOM     12  C   UNL     1       4.669   4.575  17.843  0.00  0.00    +0.000 C 
ATOM     13  O   UNL     1       3.273   4.532  18.120  0.00  0.00    +0.000 OA
ENDBRANCH   1  13
BRANCH  11  14
ATOM     14  O   UNL     1       2.314   4.523  20.833  0.00  0.00    +0.000 OA
ATOM     15  C   UNL     1       1.208   3.629  20.789  0.00  0.00    +0.000 C 
ENDBRANCH  11  14
BRANCH   6  16
ATOM     16  C   UNL     1       0.317  11.491  19.716  0.00  0.00    +0.000 C 
BRANCH  16  17
ATOM     17  C   UNL     1      -1.107  11.484  19.216  0.00  0.00    +0.000 A 
ATOM     18  C   UNL     1      -1.469  10.646  18.162  0.00  0.00    +0.000 A 
ATOM     19  C   UNL     1      -2.799  10.557  17.738  0.00  0.00    +0.000 A 
ATOM     20  C   UNL     1      -3.795  11.350  18.354  0.00  0.00    +0.000 A 
ATOM     21  C   UNL     1      -3.433  12.229  19.398  0.00  0.00    +0.000 A 
ATOM     22  C   UNL     1      -2.091  12.286  19.810  0.00  0.00    +0.000 A 
BRANCH  19  23
ATOM     23  O   UNL     1      -3.189   9.724  16.714  0.00  0.00    +0.000 OA
ATOM     24  C   UNL     1      -2.756  10.093  15.408  0.00  0.00    +0.000 C 
ENDBRANCH  19  23
BRANCH  20  25
ATOM     25  O   UNL     1      -5.055  11.228  17.810  0.00  0.00    +0.000 OA
ATOM     26  C   UNL     1      -6.030  10.503  18.549  0.00  0.00    +0.000 C 
ENDBRANCH  20  25
BRANCH  21  27
ATOM     27  O   UNL     1      -4.412  13.007  19.959  0.00  0.00    +0.000 OA
ATOM     28  C   UNL     1      -4.855  12.698  21.275  0.00  0.00    +0.000 C 
ENDBRANCH  21  27
ENDBRANCH  16  17
ENDBRANCH   6  16
TORSDOF 7
ENDMDL
MODEL 7
REMARK VINA RESULT:      -6.6      2.826      8.853
REMARK  Name = 
REMARK  12 active torsions:
REMARK  status: ('A' for Active; 'I' for Inactive)
REMARK    1  A    between atoms: C_1  and  O_2
REMARK    2  A    between atoms: O_2  and  C_3
REMARK    3  A    between atoms: N_8  and  C_9
REMARK    4  A    between atoms: C_9  and  C_10
REMARK    5  A    between atoms: C_12  and  O_13
REMARK    6  A    between atoms: O_13  and  C_14
REMARK    7  A    between atoms: C_15  and  O_16
REMARK    8  A    between atoms: O_16  and  C_17
REMARK    9  A    between atoms: C_18  and  O_19
REMARK   10  A    between atoms: O_19  and  C_20
REMARK   11  A    between atoms: C_26  and  O_27
REMARK   12  A    between atoms: O_27  and  C_28
REMARK                            x       y       z     vdW  Elec       q    Type
REMARK                         _______ _______ _______ _____ _____    ______ ____
ROOT
ATOM      1  C   UNL     1       0.123  11.847  21.439  0.00  0.00    +0.000 A 
ATOM      2  C   UNL     1       0.391  10.502  21.749  0.00  0.00    +0.000 A 
ATOM      3  C   UNL     1       0.964   9.645  20.809  0.00  0.00    +0.000 A 
ATOM      4  N   UNL     1       1.181   8.297  21.135  0.00  0.00    +0.000 NA
ATOM      5  C   UNL     1       1.641   7.524  20.208  0.00  0.00    +0.000 A 
ATOM      6  N   UNL     1       1.940   7.919  18.926  0.00  0.00    +0.000 N 
ATOM      7  C   UNL     1       1.799   9.240  18.536  0.00  0.00    +0.000 A 
ATOM      8  O   UNL     1       2.034   9.654  17.405  0.00  0.00    +0.000 OA
ATOM      9  C   UNL     1       1.282  10.162  19.559  0.00  0.00    +0.000 A 
ATOM     10  C   UNL     1       1.068  11.508  19.245  0.00  0.00    +0.000 A 
ATOM     11  C   UNL     1       0.486  12.365  20.181  0.00  0.00    +0.000 A 
ENDROOT
BRANCH   1  13
ATOM     12  C   UNL     1      -1.855  12.351  22.662  0.00  0.00    +0.000 C 
ATOM     13  O   UNL     1      -0.457  12.542  22.472  0.00  0.00    +0.000 OA
ENDBRANCH   1  13
BRANCH  11  14
ATOM     14  O   UNL     1       0.259  13.692  19.934  0.00  0.00    +0.000 OA
ATOM     15  C   UNL     1      -0.987  14.067  19.359  0.00  0.00    +0.000 C 
ENDBRANCH  11  14
BRANCH   6  16
ATOM     16  C   UNL     1       2.290   6.941  17.911  0.00  0.00    +0.000 C 
BRANCH  16  17
ATOM     17  C   UNL     1       3.696   6.407  18.041  0.00  0.00    +0.000 A 
ATOM     18  C   UNL     1       3.932   5.245  18.775  0.00  0.00    +0.000 A 
ATOM     19  C   UNL     1       5.211   4.683  18.837  0.00  0.00    +0.000 A 
ATOM     20  C   UNL     1       6.296   5.310  18.182  0.00  0.00    +0.000 A 
ATOM     21  C   UNL     1       6.075   6.506  17.466  0.00  0.00    +0.000 A 
ATOM     22  C   UNL     1       4.776   7.040  17.410  0.00  0.00    +0.000 A 
BRANCH  19  23
ATOM     23  O   UNL     1       5.470   3.526  19.537  0.00  0.00    +0.000 OA
ATOM     24  C   UNL     1       4.332   2.767  19.934  0.00  0.00    +0.000 C 
ENDBRANCH  19  23
BRANCH  20  25
ATOM     25  O   UNL     1       7.519   4.703  18.369  0.00  0.00    +0.000 OA
ATOM     26  C   UNL     1       8.357   5.201  19.403  0.00  0.00    +0.000 C 
ENDBRANCH  20  25
BRANCH  21  27
ATOM     27  O   UNL     1       7.148   7.110  16.863  0.00  0.00    +0.000 OA
ATOM     28  C   UNL     1       7.773   8.203  17.524  0.00  0.00    +0.000 C 
ENDBRANCH  21  27
ENDBRANCH  16  17
ENDBRANCH   6  16
TORSDOF 7
ENDMDL
MODEL 8
REMARK VINA RESULT:      -6.6      2.678      8.551
REMARK  Name = 
REMARK  12 active torsions:
REMARK  status: ('A' for Active; 'I' for Inactive)
REMARK    1  A    between atoms: C_1  and  O_2
REMARK    2  A    between atoms: O_2  and  C_3
REMARK    3  A    between atoms: N_8  and  C_9
REMARK    4  A    between atoms: C_9  and  C_10
REMARK    5  A    between atoms: C_12  and  O_13
REMARK    6  A    between atoms: O_13  and  C_14
REMARK    7  A    between atoms: C_15  and  O_16
REMARK    8  A    between atoms: O_16  and  C_17
REMARK    9  A    between atoms: C_18  and  O_19
REMARK   10  A    between atoms: O_19  and  C_20
REMARK   11  A    between atoms: C_26  and  O_27
REMARK   12  A    between atoms: O_27  and  C_28
REMARK                            x       y       z     vdW  Elec       q    Type
REMARK                         _______ _______ _______ _____ _____    ______ ____
ROOT
ATOM      1  C   UNL     1      -0.359  11.684  21.756  0.00  0.00    +0.000 A 
ATOM      2  C   UNL     1       0.173  10.407  22.010  0.00  0.00    +0.000 A 
ATOM      3  C   UNL     1       0.831   9.687  21.013  0.00  0.00    +0.000 A 
ATOM      4  N   UNL     1       1.315   8.398  21.285  0.00  0.00    +0.000 NA
ATOM      5  C   UNL     1       1.848   7.740  20.309  0.00  0.00    +0.000 A 
ATOM      6  N   UNL     1       1.983   8.206  19.024  0.00  0.00    +0.000 N 
ATOM      7  C   UNL     1       1.575   9.483  18.682  0.00  0.00    +0.000 A 
ATOM      8  O   UNL     1       1.655   9.953  17.551  0.00  0.00    +0.000 OA
ATOM      9  C   UNL     1       0.965  10.276  19.761  0.00  0.00    +0.000 A 
ATOM     10  C   UNL     1       0.487  11.564  19.499  0.00  0.00    +0.000 A 
ATOM     11  C   UNL     1      -0.181  12.282  20.493  0.00  0.00    +0.000 A 
ENDROOT
BRANCH   1  13
ATOM     12  C   UNL     1      -2.349  11.877  23.046  0.00  0.00    +0.000 C 
ATOM     13  O   UNL     1      -0.988  12.240  22.843  0.00  0.00    +0.000 OA
ENDBRANCH   1  13
BRANCH  11  14
ATOM     14  O   UNL     1      -0.665  13.547  20.300  0.00  0.00    +0.000 OA
ATOM     15  C   UNL     1      -0.373  14.199  19.069  0.00  0.00    +0.000 C 
ENDBRANCH  11  14
BRANCH   6  16
ATOM     16  C   UNL     1       2.441   7.328  17.961  0.00  0.00    +0.000 C 
BRANCH  16  17
ATOM     17  C   UNL     1       2.965   6.000  18.453  0.00  0.00    +0.000 A 
ATOM     18  C   UNL     1       2.073   5.023  18.896  0.00  0.00    +0.000 A 
ATOM     19  C   UNL     1       2.527   3.755  19.274  0.00  0.00    +0.000 A 
ATOM     20  C   UNL     1       3.909   3.458  19.246  0.00  0.00    +0.000 A 
ATOM     21  C   UNL     1       4.823   4.451  18.834  0.00  0.00    +0.000 A 
ATOM     22  C   UNL     1       4.336   5.711  18.447  0.00  0.00    +0.000 A 
BRANCH  19  23
ATOM     23  O   UNL     1       1.669   2.765  19.696  0.00  0.00    +0.000 OA
ATOM     24  C   UNL     1       1.195   2.877  21.035  0.00  0.00    +0.000 C 
ENDBRANCH  19  23
BRANCH  20  25
ATOM     25  O   UNL     1       4.244   2.201  19.703  0.00  0.00    +0.000 OA
ATOM     26  C   UNL     1       4.113   1.111  18.800  0.00  0.00    +0.000 C 
ENDBRANCH  20  25
BRANCH  21  27
ATOM     27  O   UNL     1       6.160   4.147  18.842  0.00  0.00    +0.000 OA
ATOM     28  C   UNL     1       7.004   4.768  17.881  0.00  0.00    +0.000 C 
ENDBRANCH  21  27
ENDBRANCH  16  17
ENDBRANCH   6  16
TORSDOF 7
ENDMDL
MODEL 9
REMARK VINA RESULT:      -6.4      1.235      2.817
REMARK  Name = 
REMARK  12 active torsions:
REMARK  status: ('A' for Active; 'I' for Inactive)
REMARK    1  A    between atoms: C_1  and  O_2
REMARK    2  A    between atoms: O_2  and  C_3
REMARK    3  A    between atoms: N_8  and  C_9
REMARK    4  A    between atoms: C_9  and  C_10
REMARK    5  A    between atoms: C_12  and  O_13
REMARK    6  A    between atoms: O_13  and  C_14
REMARK    7  A    between atoms: C_15  and  O_16
REMARK    8  A    between atoms: O_16  and  C_17
REMARK    9  A    between atoms: C_18  and  O_19
REMARK   10  A    between atoms: O_19  and  C_20
REMARK   11  A    between atoms: C_26  and  O_27
REMARK   12  A    between atoms: O_27  and  C_28
REMARK                            x       y       z     vdW  Elec       q    Type
REMARK                         _______ _______ _______ _____ _____    ______ ____
ROOT
ATOM      1  C   UNL     1       2.730   4.952  19.774  0.00  0.00    +0.000 A 
ATOM      2  C   UNL     1       2.087   5.869  20.626  0.00  0.00    +0.000 A 
ATOM      3  C   UNL     1       1.766   7.155  20.191  0.00  0.00    +0.000 A 
ATOM      4  N   UNL     1       1.162   8.061  21.077  0.00  0.00    +0.000 NA
ATOM      5  C   UNL     1       0.955   9.264  20.653  0.00  0.00    +0.000 A 
ATOM      6  N   UNL     1       1.276   9.726  19.400  0.00  0.00    +0.000 N 
ATOM      7  C   UNL     1       1.831   8.886  18.451  0.00  0.00    +0.000 A 
ATOM      8  O   UNL     1       2.154   9.239  17.321  0.00  0.00    +0.000 OA
ATOM      9  C   UNL     1       2.083   7.502  18.883  0.00  0.00    +0.000 A 
ATOM     10  C   UNL     1       2.679   6.591  18.004  0.00  0.00    +0.000 A 
ATOM     11  C   UNL     1       3.009   5.307  18.441  0.00  0.00    +0.000 A 
ENDROOT
BRANCH   1  13
ATOM     12  C   UNL     1       2.117   3.355  21.428  0.00  0.00    +0.000 C 
ATOM     13  O   UNL     1       2.986   3.741  20.369  0.00  0.00    +0.000 OA
ENDBRANCH   1  13
BRANCH  11  14
ATOM     14  O   UNL     1       3.587   4.370  17.626  0.00  0.00    +0.000 OA
ATOM     15  C   UNL     1       5.005   4.262  17.624  0.00  0.00    +0.000 C 
ENDBRANCH  11  14
BRANCH   6  16
ATOM     16  C   UNL     1       1.159  11.138  19.077  0.00  0.00    +0.000 C 
BRANCH  16  17
ATOM     17  C   UNL     1      -0.192  11.726  19.405  0.00  0.00    +0.000 A 
ATOM     18  C   UNL     1      -1.285  11.456  18.583  0.00  0.00    +0.000 A 
ATOM     19  C   UNL     1      -2.564  11.917  18.913  0.00  0.00    +0.000 A 
ATOM     20  C   UNL     1      -2.758  12.701  20.073  0.00  0.00    +0.000 A 
ATOM     21  C   UNL     1      -1.653  13.011  20.893  0.00  0.00    +0.000 A 
ATOM     22  C   UNL     1      -0.382  12.522  20.543  0.00  0.00    +0.000 A 
BRANCH  19  23
ATOM     23  O   UNL     1      -3.665  11.649  18.131  0.00  0.00    +0.000 OA
ATOM     24  C   UNL     1      -3.713  10.352  17.543  0.00  0.00    +0.000 C 
ENDBRANCH  19  23
BRANCH  20  25
ATOM     25  O   UNL     1      -4.047  13.154  20.260  0.00  0.00    +0.000 OA
ATOM     26  C   UNL     1      -4.819  12.553  21.292  0.00  0.00    +0.000 C 
ENDBRANCH  20  25
BRANCH  21  27
ATOM     27  O   UNL     1      -1.863  13.796  21.997  0.00  0.00    +0.000 OA
ATOM     28  C   UNL     1      -1.163  13.485  23.195  0.00  0.00    +0.000 C 
ENDBRANCH  21  27
ENDBRANCH  16  17
ENDBRANCH   6  16
TORSDOF 7
ENDMDL
