MODEL 1
REMARK VINA RESULT:      -7.4      0.000      0.000
REMARK  Name = 
REMARK  8 active torsions:
REMARK  status: ('A' for Active; 'I' for Inactive)
REMARK    1  A    between atoms: C_1  and  C_2
REMARK    2  A    between atoms: C_2  and  C_3
REMARK    3  A    between atoms: C_3  and  C_4
REMARK    4  A    between atoms: C_4  and  C_5
REMARK    5  A    between atoms: C_5  and  C_6
REMARK    6  A    between atoms: N_9  and  C_10
REMARK    7  A    between atoms: C_10  and  C_11
REMARK    8  A    between atoms: N_18  and  C_19
REMARK                            x       y       z     vdW  Elec       q    Type
REMARK                         _______ _______ _______ _____ _____    ______ ____
ROOT
ATOM      1  C   UNL     1       2.741   5.357  17.832  0.00  0.00    +0.000 A 
ATOM      2  N   UNL     1       3.696   4.681  17.207  0.00  0.00    +0.000 NA
ATOM      3  C   UNL     1       4.774   5.514  17.031  0.00  0.00    +0.000 A 
ATOM      4  N   UNL     1       5.908   5.258  16.514  0.00  0.00    +0.000 NA
ATOM      5  S   UNL     1       4.516   7.133  17.639  0.00  0.00    +0.000 S 
ATOM      6  N   UNL     1       2.980   6.697  18.171  0.00  0.00    +0.000 N 
ENDROOT
BRANCH   6   7
ATOM      7  C   UNL     1       2.163   7.684  18.789  0.00  0.00    +0.000 A 
ATOM      8  C   UNL     1       1.640   8.796  18.117  0.00  0.00    +0.000 A 
ATOM      9  C   UNL     1       0.912   9.798  18.775  0.00  0.00    +0.000 A 
ATOM     10  C   UNL     1       0.678   9.709  20.138  0.00  0.00    +0.000 A 
ATOM     11  C   UNL     1       1.162   8.616  20.839  0.00  0.00    +0.000 A 
ATOM     12  C   UNL     1       1.881   7.620  20.173  0.00  0.00    +0.000 A 
ENDBRANCH   6   7
BRANCH   1  13
ATOM     13  C   UNL     1       1.470   4.597  18.209  0.00  0.00    +0.000 C 
BRANCH  13  14
ATOM     14  C   UNL     1       1.572   3.075  18.090  0.00  0.00    +0.000 C 
BRANCH  14  15
ATOM     15  C   UNL     1       1.809   2.350  19.410  0.00  0.00    +0.000 C 
BRANCH  15  17
ATOM     16  C   UNL     1       1.684   2.633  21.906  0.00  0.00    +0.000 C 
ATOM     17  C   UNL     1       1.188   3.138  20.565  0.00  0.00    +0.000 C 
ENDBRANCH  15  17
ENDBRANCH  14  15
ENDBRANCH  13  14
ENDBRANCH   1  13
BRANCH   4  18
ATOM     18  C   UNL     1       6.277   3.991  15.924  0.00  0.00    +0.000 C 
BRANCH  18  19
ATOM     19  C   UNL     1       6.608   4.216  14.460  0.00  0.00    +0.000 A 
ATOM     20  C   UNL     1       6.038   3.420  13.455  0.00  0.00    +0.000 A 
ATOM     21  C   UNL     1       6.399   3.606  12.125  0.00  0.00    +0.000 A 
ATOM     22  C   UNL     1       7.317   4.600  11.832  0.00  0.00    +0.000 A 
ATOM     23  N   UNL     1       7.875   5.405  12.763  0.00  0.00    +0.000 NA
ATOM     24  C   UNL     1       7.510   5.191  14.053  0.00  0.00    +0.000 A 
ENDBRANCH  18  19
ENDBRANCH   4  18
TORSDOF 7
ENDMDL
MODEL 2
REMARK VINA RESULT:      -7.4      1.250      1.968
REMARK  Name = 
REMARK  8 active torsions:
REMARK  status: ('A' for Active; 'I' for Inactive)
REMARK    1  A    between atoms: C_1  and  C_2
REMARK    2  A    between atoms: C_2  and  C_3
REMARK    3  A    between atoms: C_3  and  C_4
REMARK    4  A    between atoms: C_4  and  C_5
REMARK    5  A    between atoms: C_5  and  C_6
REMARK    6  A    between atoms: N_9  and  C_10
REMARK    7  A    between atoms: C_10  and  C_11
REMARK    8  A    between atoms: N_18  and  C_19
REMARK                            x       y       z     vdW  Elec       q    Type
REMARK                         _______ _______ _______ _____ _____    ______ ____
ROOT
ATOM      1  C   UNL     1       2.450   5.879  19.558  0.00  0.00    +0.000 A 
ATOM      2  N   UNL     1       3.187   5.174  18.711  0.00  0.00    +0.000 NA
ATOM      3  C   UNL     1       3.684   6.025  17.755  0.00  0.00    +0.000 A 
ATOM      4  N   UNL     1       4.464   5.770  16.783  0.00  0.00    +0.000 NA
ATOM      5  S   UNL     1       3.165   7.683  17.953  0.00  0.00    +0.000 S 
ATOM      6  N   UNL     1       2.315   7.259  19.341  0.00  0.00    +0.000 N 
ENDROOT
BRANCH   6   7
ATOM      7  C   UNL     1       1.573   8.263  20.025  0.00  0.00    +0.000 A 
ATOM      8  C   UNL     1       1.250   8.203  21.386  0.00  0.00    +0.000 A 
ATOM      9  C   UNL     1       0.443   9.165  22.010  0.00  0.00    +0.000 A 
ATOM     10  C   UNL     1      -0.062  10.231  21.282  0.00  0.00    +0.000 A 
ATOM     11  C   UNL     1       0.249  10.339  19.936  0.00  0.00    +0.000 A 
ATOM     12  C   UNL     1       1.059   9.378  19.325  0.00  0.00    +0.000 A 
ENDBRANCH   6   7
BRANCH   1  13
ATOM     13  C   UNL     1       1.860   5.145  20.762  0.00  0.00    +0.000 C 
BRANCH  13  14
ATOM     14  C   UNL     1       0.923   3.987  20.412  0.00  0.00    +0.000 C 
BRANCH  14  15
ATOM     15  C   UNL     1       1.584   2.613  20.414  0.00  0.00    +0.000 C 
BRANCH  15  17
ATOM     16  C   UNL     1       3.034   1.680  18.583  0.00  0.00    +0.000 C 
ATOM     17  C   UNL     1       1.620   2.043  18.995  0.00  0.00    +0.000 C 
ENDBRANCH  15  17
ENDBRANCH  14  15
ENDBRANCH  13  14
ENDBRANCH   1  13
BRANCH   4  18
ATOM     18  C   UNL     1       4.954   4.452  16.444  0.00  0.00    +0.000 C 
BRANCH  18  19
ATOM     19  C   UNL     1       5.830   4.564  15.209  0.00  0.00    +0.000 A 
ATOM     20  C   UNL     1       5.530   3.851  14.039  0.00  0.00    +0.000 A 
ATOM     21  C   UNL     1       6.378   3.923  12.939  0.00  0.00    +0.000 A 
ATOM     22  C   UNL     1       7.505   4.722  13.035  0.00  0.00    +0.000 A 
ATOM     23  N   UNL     1       7.822   5.442  14.134  0.00  0.00    +0.000 NA
ATOM     24  C   UNL     1       6.981   5.342  15.194  0.00  0.00    +0.000 A 
ENDBRANCH  18  19
ENDBRANCH   4  18
TORSDOF 7
ENDMDL
MODEL 3
REMARK VINA RESULT:      -7.4      2.559      4.930
REMARK  Name = 
REMARK  8 active torsions:
REMARK  status: ('A' for Active; 'I' for Inactive)
REMARK    1  A    between atoms: C_1  and  C_2
REMARK    2  A    between atoms: C_2  and  C_3
REMARK    3  A    between atoms: C_3  and  C_4
REMARK    4  A    between atoms: C_4  and  C_5
REMARK    5  A    between atoms: C_5  and  C_6
REMARK    6  A    between atoms: N_9  and  C_10
REMARK    7  A    between atoms: C_10  and  C_11
REMARK    8  A    between atoms: N_18  and  C_19
REMARK                            x       y       z     vdW  Elec       q    Type
REMARK                         _______ _______ _______ _____ _____    ______ ____
ROOT
ATOM      1  C   UNL     1       1.531   8.609  20.172  0.00  0.00    +0.000 A 
ATOM      2  N   UNL     1       2.252   7.562  19.793  0.00  0.00    +0.000 NA
ATOM      3  C   UNL     1       2.508   7.676  18.448  0.00  0.00    +0.000 A 
ATOM      4  N   UNL     1       3.193   6.913  17.695  0.00  0.00    +0.000 NA
ATOM      5  S   UNL     1       1.792   9.093  17.715  0.00  0.00    +0.000 S 
ATOM      6  N   UNL     1       1.182   9.567  19.209  0.00  0.00    +0.000 N 
ENDROOT
BRANCH   6   7
ATOM      7  C   UNL     1       0.396  10.752  19.284  0.00  0.00    +0.000 A 
ATOM      8  C   UNL     1       0.909  12.006  19.641  0.00  0.00    +0.000 A 
ATOM      9  C   UNL     1       0.092  13.136  19.791  0.00  0.00    +0.000 A 
ATOM     10  C   UNL     1      -1.274  13.043  19.579  0.00  0.00    +0.000 A 
ATOM     11  C   UNL     1      -1.821  11.825  19.207  0.00  0.00    +0.000 A 
ATOM     12  C   UNL     1      -0.997  10.706  19.054  0.00  0.00    +0.000 A 
ENDBRANCH   6   7
BRANCH   1  13
ATOM     13  C   UNL     1       1.199   8.736  21.659  0.00  0.00    +0.000 C 
BRANCH  13  14
ATOM     14  C   UNL     1      -0.296   8.728  21.985  0.00  0.00    +0.000 C 
BRANCH  14  15
ATOM     15  C   UNL     1      -0.691   9.593  23.176  0.00  0.00    +0.000 C 
BRANCH  15  17
ATOM     16  C   UNL     1      -2.064  11.699  23.088  0.00  0.00    +0.000 C 
ATOM     17  C   UNL     1      -0.721  11.068  22.770  0.00  0.00    +0.000 C 
ENDBRANCH  15  17
ENDBRANCH  14  15
ENDBRANCH  13  14
ENDBRANCH   1  13
BRANCH   4  18
ATOM     18  C   UNL     1       3.816   5.679  18.122  0.00  0.00    +0.000 C 
BRANCH  18  19
ATOM     19  C   UNL     1       4.931   5.338  17.150  0.00  0.00    +0.000 A 
ATOM     20  C   UNL     1       4.899   4.156  16.395  0.00  0.00    +0.000 A 
ATOM     21  C   UNL     1       5.959   3.836  15.553  0.00  0.00    +0.000 A 
ATOM     22  C   UNL     1       7.023   4.718  15.479  0.00  0.00    +0.000 A 
ATOM     23  N   UNL     1       7.086   5.877  16.171  0.00  0.00    +0.000 NA
ATOM     24  C   UNL     1       6.042   6.157  16.992  0.00  0.00    +0.000 A 
ENDBRANCH  18  19
ENDBRANCH   4  18
TORSDOF 7
ENDMDL
MODEL 4
REMARK VINA RESULT:      -7.3      3.639      6.219
REMARK  Name = 
REMARK  8 active torsions:
REMARK  status: ('A' for Active; 'I' for Inactive)
REMARK    1  A    between atoms: C_1  and  C_2
REMARK    2  A    between atoms: C_2  and  C_3
REMARK    3  A    between atoms: C_3  and  C_4
REMARK    4  A    between atoms: C_4  and  C_5
REMARK    5  A    between atoms: C_5  and  C_6
REMARK    6  A    between atoms: N_9  and  C_10
REMARK    7  A    between atoms: C_10  and  C_11
REMARK    8  A    between atoms: N_18  and  C_19
REMARK                            x       y       z     vdW  Elec       q    Type
REMARK                         _______ _______ _______ _____ _____    ______ ____
ROOT
ATOM      1  C   UNL     1       1.505   8.584  20.368  0.00  0.00    +0.000 A 
ATOM      2  N   UNL     1       2.205   7.480  20.151  0.00  0.00    +0.000 NA
ATOM      3  C   UNL     1       2.493   7.405  18.810  0.00  0.00    +0.000 A 
ATOM      4  N   UNL     1       3.175   6.532  18.184  0.00  0.00    +0.000 NA
ATOM      5  S   UNL     1       1.832   8.728  17.875  0.00  0.00    +0.000 S 
ATOM      6  N   UNL     1       1.202   9.413  19.277  0.00  0.00    +0.000 N 
ENDROOT
BRANCH   6   7
ATOM      7  C   UNL     1       0.448  10.615  19.172  0.00  0.00    +0.000 A 
ATOM      8  C   UNL     1      -0.897  10.660  18.783  0.00  0.00    +0.000 A 
ATOM      9  C   UNL     1      -1.587  11.868  18.604  0.00  0.00    +0.000 A 
ATOM     10  C   UNL     1      -0.945  13.077  18.820  0.00  0.00    +0.000 A 
ATOM     11  C   UNL     1       0.380  13.078  19.224  0.00  0.00    +0.000 A 
ATOM     12  C   UNL     1       1.057  11.868  19.405  0.00  0.00    +0.000 A 
ENDBRANCH   6   7
BRANCH   1  13
ATOM     13  C   UNL     1       1.143   8.918  21.815  0.00  0.00    +0.000 C 
BRANCH  13  14
ATOM     14  C   UNL     1      -0.358   9.024  22.093  0.00  0.00    +0.000 C 
BRANCH  14  15
ATOM     15  C   UNL     1      -0.735  10.040  23.165  0.00  0.00    +0.000 C 
BRANCH  15  17
ATOM     16  C   UNL     1      -2.221  12.030  22.767  0.00  0.00    +0.000 C 
ATOM     17  C   UNL     1      -0.840  11.438  22.553  0.00  0.00    +0.000 C 
ENDBRANCH  15  17
ENDBRANCH  14  15
ENDBRANCH  13  14
ENDBRANCH   1  13
BRANCH   4  18
ATOM     18  C   UNL     1       3.755   5.352  18.787  0.00  0.00    +0.000 C 
BRANCH  18  19
ATOM     19  C   UNL     1       2.717   4.245  18.783  0.00  0.00    +0.000 A 
ATOM     20  C   UNL     1       1.825   4.081  19.854  0.00  0.00    +0.000 A 
ATOM     21  C   UNL     1       0.921   3.025  19.856  0.00  0.00    +0.000 A 
ATOM     22  C   UNL     1       0.923   2.163  18.773  0.00  0.00    +0.000 A 
ATOM     23  N   UNL     1       1.748   2.294  17.711  0.00  0.00    +0.000 NA
ATOM     24  C   UNL     1       2.626   3.328  17.744  0.00  0.00    +0.000 A 
ENDBRANCH  18  19
ENDBRANCH   4  18
TORSDOF 7
ENDMDL
MODEL 5
REMARK VINA RESULT:      -7.3      2.138      7.757
REMARK  Name = 
REMARK  8 active torsions:
REMARK  status: ('A' for Active; 'I' for Inactive)
REMARK    1  A    between atoms: C_1  and  C_2
REMARK    2  A    between atoms: C_2  and  C_3
REMARK    3  A    between atoms: C_3  and  C_4
REMARK    4  A    between atoms: C_4  and  C_5
REMARK    5  A    between atoms: C_5  and  C_6
REMARK    6  A    between atoms: N_9  and  C_10
REMARK    7  A    between atoms: C_10  and  C_11
REMARK    8  A    between atoms: N_18  and  C_19
REMARK                            x       y       z     vdW  Elec       q    Type
REMARK                         _______ _______ _______ _____ _____    ______ ____
ROOT
ATOM      1  C   UNL     1       3.946   5.100  19.128  0.00  0.00    +0.000 A 
ATOM      2  N   UNL     1       3.127   5.706  19.976  0.00  0.00    +0.000 NA
ATOM      3  C   UNL     1       2.723   6.894  19.417  0.00  0.00    +0.000 A 
ATOM      4  N   UNL     1       1.912   7.761  19.875  0.00  0.00    +0.000 NA
ATOM      5  S   UNL     1       3.430   7.207  17.848  0.00  0.00    +0.000 S 
ATOM      6  N   UNL     1       4.236   5.732  17.909  0.00  0.00    +0.000 N 
ENDROOT
BRANCH   6   7
ATOM      7  C   UNL     1       5.092   5.374  16.830  0.00  0.00    +0.000 A 
ATOM      8  C   UNL     1       4.730   4.485  15.810  0.00  0.00    +0.000 A 
ATOM      9  C   UNL     1       5.628   4.085  14.809  0.00  0.00    +0.000 A 
ATOM     10  C   UNL     1       6.924   4.575  14.797  0.00  0.00    +0.000 A 
ATOM     11  C   UNL     1       7.318   5.471  15.778  0.00  0.00    +0.000 A 
ATOM     12  C   UNL     1       6.414   5.868  16.767  0.00  0.00    +0.000 A 
ENDBRANCH   6   7
BRANCH   1  13
ATOM     13  C   UNL     1       4.456   3.711  19.509  0.00  0.00    +0.000 C 
BRANCH  13  14
ATOM     14  C   UNL     1       3.373   2.635  19.611  0.00  0.00    +0.000 C 
BRANCH  14  15
ATOM     15  C   UNL     1       2.558   2.431  18.339  0.00  0.00    +0.000 C 
BRANCH  15  17
ATOM     16  C   UNL     1       0.781   2.973  20.035  0.00  0.00    +0.000 C 
ATOM     17  C   UNL     1       1.065   2.370  18.672  0.00  0.00    +0.000 C 
ENDBRANCH  15  17
ENDBRANCH  14  15
ENDBRANCH  13  14
ENDBRANCH   1  13
BRANCH   4  18
ATOM     18  C   UNL     1       1.272   7.686  21.170  0.00  0.00    +0.000 C 
BRANCH  18  19
ATOM     19  C   UNL     1       0.601   9.017  21.456  0.00  0.00    +0.000 A 
ATOM     20  C   UNL     1       0.309   9.920  20.424  0.00  0.00    +0.000 A 
ATOM     21  C   UNL     1      -0.254  11.158  20.715  0.00  0.00    +0.000 A 
ATOM     22  C   UNL     1      -0.522  11.457  22.040  0.00  0.00    +0.000 A 
ATOM     23  N   UNL     1      -0.277  10.610  23.065  0.00  0.00    +0.000 NA
ATOM     24  C   UNL     1       0.281   9.415  22.749  0.00  0.00    +0.000 A 
ENDBRANCH  18  19
ENDBRANCH   4  18
TORSDOF 7
ENDMDL
MODEL 6
REMARK VINA RESULT:      -7.3      3.742      6.387
REMARK  Name = 
REMARK  8 active torsions:
REMARK  status: ('A' for Active; 'I' for Inactive)
REMARK    1  A    between atoms: C_1  and  C_2
REMARK    2  A    between atoms: C_2  and  C_3
REMARK    3  A    between atoms: C_3  and  C_4
REMARK    4  A    between atoms: C_4  and  C_5
REMARK    5  A    between atoms: C_5  and  C_6
REMARK    6  A    between atoms: N_9  and  C_10
REMARK    7  A    between atoms: C_10  and  C_11
REMARK    8  A    between atoms: N_18  and  C_19
REMARK                            x       y       z     vdW  Elec       q    Type
REMARK                         _______ _______ _______ _____ _____    ______ ____
ROOT
ATOM      1  C   UNL     1       1.423   8.852  20.431  0.00  0.00    +0.000 A 
ATOM      2  N   UNL     1       2.102   7.725  20.264  0.00  0.00    +0.000 NA
ATOM      3  C   UNL     1       2.372   7.575  18.925  0.00  0.00    +0.000 A 
ATOM      4  N   UNL     1       3.030   6.658  18.338  0.00  0.00    +0.000 NA
ATOM      5  S   UNL     1       1.723   8.859  17.931  0.00  0.00    +0.000 S 
ATOM      6  N   UNL     1       1.122   9.627  19.302  0.00  0.00    +0.000 N 
ENDROOT
BRANCH   6   7
ATOM      7  C   UNL     1       0.387  10.836  19.143  0.00  0.00    +0.000 A 
ATOM      8  C   UNL     1       0.887  12.101  19.474  0.00  0.00    +0.000 A 
ATOM      9  C   UNL     1       0.106  13.263  19.389  0.00  0.00    +0.000 A 
ATOM     10  C   UNL     1      -1.209  13.190  18.958  0.00  0.00    +0.000 A 
ATOM     11  C   UNL     1      -1.739  11.960  18.603  0.00  0.00    +0.000 A 
ATOM     12  C   UNL     1      -0.950  10.809  18.686  0.00  0.00    +0.000 A 
ENDBRANCH   6   7
BRANCH   1  13
ATOM     13  C   UNL     1       1.085   9.266  21.863  0.00  0.00    +0.000 C 
BRANCH  13  14
ATOM     14  C   UNL     1      -0.397   9.157  22.229  0.00  0.00    +0.000 C 
BRANCH  14  15
ATOM     15  C   UNL     1      -0.905  10.258  23.152  0.00  0.00    +0.000 C 
BRANCH  15  17
ATOM     16  C   UNL     1      -1.006  12.760  22.910  0.00  0.00    +0.000 C 
ATOM     17  C   UNL     1      -1.446  11.429  22.328  0.00  0.00    +0.000 C 
ENDBRANCH  15  17
ENDBRANCH  14  15
ENDBRANCH  13  14
ENDBRANCH   1  13
BRANCH   4  18
ATOM     18  C   UNL     1       3.598   5.502  18.996  0.00  0.00    +0.000 C 
BRANCH  18  19
ATOM     19  C   UNL     1       2.597   4.363  18.921  0.00  0.00    +0.000 A 
ATOM     20  C   UNL     1       1.647   4.162  19.933  0.00  0.00    +0.000 A 
ATOM     21  C   UNL     1       0.778   3.078  19.873  0.00  0.00    +0.000 A 
ATOM     22  C   UNL     1       0.875   2.225  18.787  0.00  0.00    +0.000 A 
ATOM     23  N   UNL     1       1.759   2.391  17.778  0.00  0.00    +0.000 NA
ATOM     24  C   UNL     1       2.601   3.451  17.872  0.00  0.00    +0.000 A 
ENDBRANCH  18  19
ENDBRANCH   4  18
TORSDOF 7
ENDMDL
MODEL 7
REMARK VINA RESULT:      -7.2      2.087      7.718
REMARK  Name = 
REMARK  8 active torsions:
REMARK  status: ('A' for Active; 'I' for Inactive)
REMARK    1  A    between atoms: C_1  and  C_2
REMARK    2  A    between atoms: C_2  and  C_3
REMARK    3  A    between atoms: C_3  and  C_4
REMARK    4  A    between atoms: C_4  and  C_5
REMARK    5  A    between atoms: C_5  and  C_6
REMARK    6  A    between atoms: N_9  and  C_10
REMARK    7  A    between atoms: C_10  and  C_11
REMARK    8  A    between atoms: N_18  and  C_19
REMARK                            x       y       z     vdW  Elec       q    Type
REMARK                         _______ _______ _______ _____ _____    ______ ____
ROOT
ATOM      1  C   UNL     1       3.951   4.978  19.104  0.00  0.00    +0.000 A 
ATOM      2  N   UNL     1       3.119   5.597  19.930  0.00  0.00    +0.000 NA
ATOM      3  C   UNL     1       2.760   6.797  19.366  0.00  0.00    +0.000 A 
ATOM      4  N   UNL     1       1.954   7.679  19.804  0.00  0.00    +0.000 NA
ATOM      5  S   UNL     1       3.523   7.103  17.822  0.00  0.00    +0.000 S 
ATOM      6  N   UNL     1       4.293   5.609  17.899  0.00  0.00    +0.000 N 
ENDROOT
BRANCH   6   7
ATOM      7  C   UNL     1       5.175   5.238  16.845  0.00  0.00    +0.000 A 
ATOM      8  C   UNL     1       6.510   5.651  16.763  0.00  0.00    +0.000 A 
ATOM      9  C   UNL     1       7.327   5.341  15.666  0.00  0.00    +0.000 A 
ATOM     10  C   UNL     1       6.826   4.593  14.613  0.00  0.00    +0.000 A 
ATOM     11  C   UNL     1       5.515   4.148  14.660  0.00  0.00    +0.000 A 
ATOM     12  C   UNL     1       4.711   4.458  15.761  0.00  0.00    +0.000 A 
ENDBRANCH   6   7
BRANCH   1  13
ATOM     13  C   UNL     1       4.418   3.575  19.493  0.00  0.00    +0.000 C 
BRANCH  13  14
ATOM     14  C   UNL     1       3.293   2.598  19.840  0.00  0.00    +0.000 C 
BRANCH  14  15
ATOM     15  C   UNL     1       2.855   2.627  21.300  0.00  0.00    +0.000 C 
BRANCH  15  17
ATOM     16  C   UNL     1       0.716   3.054  20.047  0.00  0.00    +0.000 C 
ATOM     17  C   UNL     1       1.330   2.714  21.392  0.00  0.00    +0.000 C 
ENDBRANCH  15  17
ENDBRANCH  14  15
ENDBRANCH  13  14
ENDBRANCH   1  13
BRANCH   4  18
ATOM     18  C   UNL     1       1.273   7.612  21.077  0.00  0.00    +0.000 C 
BRANCH  18  19
ATOM     19  C   UNL     1       0.612   8.952  21.344  0.00  0.00    +0.000 A 
ATOM     20  C   UNL     1       0.210   9.787  20.290  0.00  0.00    +0.000 A 
ATOM     21  C   UNL     1      -0.341  11.036  20.558  0.00  0.00    +0.000 A 
ATOM     22  C   UNL     1      -0.487  11.414  21.882  0.00  0.00    +0.000 A 
ATOM     23  N   UNL     1      -0.134  10.635  22.928  0.00  0.00    +0.000 NA
ATOM     24  C   UNL     1       0.410   9.427  22.634  0.00  0.00    +0.000 A 
ENDBRANCH  18  19
ENDBRANCH   4  18
TORSDOF 7
ENDMDL
MODEL 8
REMARK VINA RESULT:      -7.2      2.647      7.572
REMARK  Name = 
REMARK  8 active torsions:
REMARK  status: ('A' for Active; 'I' for Inactive)
REMARK    1  A    between atoms: C_1  and  C_2
REMARK    2  A    between atoms: C_2  and  C_3
REMARK    3  A    between atoms: C_3  and  C_4
REMARK    4  A    between atoms: C_4  and  C_5
REMARK    5  A    between atoms: C_5  and  C_6
REMARK    6  A    between atoms: N_9  and  C_10
REMARK    7  A    between atoms: C_10  and  C_11
REMARK    8  A    between atoms: N_18  and  C_19
REMARK                            x       y       z     vdW  Elec       q    Type
REMARK                         _______ _______ _______ _____ _____    ______ ____
ROOT
ATOM      1  C   UNL     1       2.477   6.508  19.641  0.00  0.00    +0.000 A 
ATOM      2  N   UNL     1       1.632   7.499  19.888  0.00  0.00    +0.000 NA
ATOM      3  C   UNL     1       1.803   8.466  18.927  0.00  0.00    +0.000 A 
ATOM      4  N   UNL     1       1.172   9.559  18.768  0.00  0.00    +0.000 NA
ATOM      5  S   UNL     1       3.057   8.087  17.767  0.00  0.00    +0.000 S 
ATOM      6  N   UNL     1       3.331   6.615  18.534  0.00  0.00    +0.000 N 
ENDROOT
BRANCH   6   7
ATOM      7  C   UNL     1       4.359   5.765  18.037  0.00  0.00    +0.000 A 
ATOM      8  C   UNL     1       5.491   5.397  18.775  0.00  0.00    +0.000 A 
ATOM      9  C   UNL     1       6.529   4.630  18.226  0.00  0.00    +0.000 A 
ATOM     10  C   UNL     1       6.458   4.199  16.911  0.00  0.00    +0.000 A 
ATOM     11  C   UNL     1       5.346   4.525  16.150  0.00  0.00    +0.000 A 
ATOM     12  C   UNL     1       4.315   5.285  16.709  0.00  0.00    +0.000 A 
ENDBRANCH   6   7
BRANCH   1  13
ATOM     13  C   UNL     1       2.403   5.277  20.544  0.00  0.00    +0.000 C 
BRANCH  13  14
ATOM     14  C   UNL     1       1.221   4.346  20.264  0.00  0.00    +0.000 C 
BRANCH  14  15
ATOM     15  C   UNL     1       1.610   2.954  19.780  0.00  0.00    +0.000 C 
BRANCH  15  17
ATOM     16  C   UNL     1       2.940   2.014  17.863  0.00  0.00    +0.000 C 
ATOM     17  C   UNL     1       1.827   2.963  18.265  0.00  0.00    +0.000 C 
ENDBRANCH  15  17
ENDBRANCH  14  15
ENDBRANCH  13  14
ENDBRANCH   1  13
BRANCH   4  18
ATOM     18  C   UNL     1       0.140  10.050  19.654  0.00  0.00    +0.000 C 
BRANCH  18  19
ATOM     19  C   UNL     1      -1.061  10.456  18.820  0.00  0.00    +0.000 A 
ATOM     20  C   UNL     1      -1.302   9.878  17.565  0.00  0.00    +0.000 A 
ATOM     21  C   UNL     1      -2.377  10.306  16.792  0.00  0.00    +0.000 A 
ATOM     22  C   UNL     1      -3.195  11.298  17.306  0.00  0.00    +0.000 A 
ATOM     23  N   UNL     1      -3.014  11.868  18.518  0.00  0.00    +0.000 NA
ATOM     24  C   UNL     1      -1.950  11.436  19.243  0.00  0.00    +0.000 A 
ENDBRANCH  18  19
ENDBRANCH   4  18
TORSDOF 7
ENDMDL
MODEL 9
REMARK VINA RESULT:      -7.2      3.701      6.291
REMARK  Name = 
REMARK  8 active torsions:
REMARK  status: ('A' for Active; 'I' for Inactive)
REMARK    1  A    between atoms: C_1  and  C_2
REMARK    2  A    between atoms: C_2  and  C_3
REMARK    3  A    between atoms: C_3  and  C_4
REMARK    4  A    between atoms: C_4  and  C_5
REMARK    5  A    between atoms: C_5  and  C_6
REMARK    6  A    between atoms: N_9  and  C_10
REMARK    7  A    between atoms: C_10  and  C_11
REMARK    8  A    between atoms: N_18  and  C_19
REMARK                            x       y       z     vdW  Elec       q    Type
REMARK                         _______ _______ _______ _____ _____    ______ ____
ROOT
ATOM      1  C   UNL     1       1.550   8.552  20.343  0.00  0.00    +0.000 A 
ATOM      2  N   UNL     1       2.291   7.474  20.132  0.00  0.00    +0.000 NA
ATOM      3  C   UNL     1       2.552   7.383  18.786  0.00  0.00    +0.000 A 
ATOM      4  N   UNL     1       3.255   6.526  18.162  0.00  0.00    +0.000 NA
ATOM      5  S   UNL     1       1.815   8.657  17.842  0.00  0.00    +0.000 S 
ATOM      6  N   UNL     1       1.188   9.344  19.244  0.00  0.00    +0.000 N 
ENDROOT
BRANCH   6   7
ATOM      7  C   UNL     1       0.381  10.511  19.133  0.00  0.00    +0.000 A 
ATOM      8  C   UNL     1       0.865  11.813  19.309  0.00  0.00    +0.000 A 
ATOM      9  C   UNL     1       0.026  12.937  19.280  0.00  0.00    +0.000 A 
ATOM     10  C   UNL     1      -1.335  12.787  19.065  0.00  0.00    +0.000 A 
ATOM     11  C   UNL     1      -1.854  11.517  18.868  0.00  0.00    +0.000 A 
ATOM     12  C   UNL     1      -1.008  10.404  18.892  0.00  0.00    +0.000 A 
ENDBRANCH   6   7
BRANCH   1  13
ATOM     13  C   UNL     1       1.206   8.900  21.792  0.00  0.00    +0.000 C 
BRANCH  13  14
ATOM     14  C   UNL     1      -0.291   8.943  22.104  0.00  0.00    +0.000 C 
BRANCH  14  15
ATOM     15  C   UNL     1      -0.685   9.941  23.187  0.00  0.00    +0.000 C 
BRANCH  15  17
ATOM     16  C   UNL     1      -2.211  11.929  22.965  0.00  0.00    +0.000 C 
ATOM     17  C   UNL     1      -0.869  11.334  22.580  0.00  0.00    +0.000 C 
ENDBRANCH  15  17
ENDBRANCH  14  15
ENDBRANCH  13  14
ENDBRANCH   1  13
BRANCH   4  18
ATOM     18  C   UNL     1       3.899   5.385  18.776  0.00  0.00    +0.000 C 
BRANCH  18  19
ATOM     19  C   UNL     1       2.839   4.347  19.098  0.00  0.00    +0.000 A 
ATOM     20  C   UNL     1       2.035   3.792  18.091  0.00  0.00    +0.000 A 
ATOM     21  C   UNL     1       1.032   2.886  18.417  0.00  0.00    +0.000 A 
ATOM     22  C   UNL     1       0.867   2.547  19.749  0.00  0.00    +0.000 A 
ATOM     23  N   UNL     1       1.630   3.040  20.749  0.00  0.00    +0.000 NA
ATOM     24  C   UNL     1       2.594   3.930  20.401  0.00  0.00    +0.000 A 
ENDBRANCH  18  19
ENDBRANCH   4  18
TORSDOF 7
ENDMDL
