MODEL 1
REMARK VINA RESULT:      -8.5      0.000      0.000
REMARK  Name = 
REMARK  7 active torsions:
REMARK  status: ('A' for Active; 'I' for Inactive)
REMARK    1  A    between atoms: C_1  and  C_2
REMARK    2  A    between atoms: C_8  and  N_9
REMARK    3  A    between atoms: C_13  and  C_15
REMARK    4  A    between atoms: C_15  and  S_16
REMARK    5  A    between atoms: S_16  and  C_17
REMARK    6  A    between atoms: C_22  and  C_23
REMARK    7  A    between atoms: C_22  and  C_24
REMARK                            x       y       z     vdW  Elec       q    Type
REMARK                         _______ _______ _______ _____ _____    ______ ____
ROOT
ATOM      1  C   UNL     1       8.469   8.297  18.620  0.00  0.00    +0.000 C 
ENDROOT
BRANCH   1   6
ATOM      2  N   UNL     1       9.908  12.993  20.076  0.00  0.00    +0.000 N 
ATOM      3  C   UNL     1       8.781  13.132  19.134  0.00  0.00    +0.000 C 
ATOM      4  C   UNL     1       8.964  12.111  17.995  0.00  0.00    +0.000 C 
ATOM      5  N   UNL     1       9.124  10.737  18.518  0.00  0.00    +0.000 N 
ATOM      6  C   UNL     1       8.289   9.723  18.055  0.00  0.00    +0.000 C 
ATOM      7  O   UNL     1       7.395   9.982  17.241  0.00  0.00    +0.000 OA
ATOM      8  C   UNL     1      10.191  10.610  19.522  0.00  0.00    +0.000 C 
ATOM      9  C   UNL     1      10.023  11.646  20.658  0.00  0.00    +0.000 C 
BRANCH   2  17
ATOM     10  C   UNL     1      12.054  14.464  18.677  0.00  0.00    +0.000 C 
ATOM     11  C   UNL     1      11.480  14.868  20.010  0.00  0.00    +0.000 A 
ATOM     12  C   UNL     1      11.923  16.086  20.564  0.00  0.00    +0.000 A 
ATOM     13  C   UNL     1      11.380  16.578  21.747  0.00  0.00    +0.000 A 
ATOM     14  C   UNL     1      10.407  15.836  22.403  0.00  0.00    +0.000 A 
ATOM     15 CL   UNL     1       9.715  16.439  23.860  0.00  0.00    +0.000 Cl
ATOM     16  C   UNL     1       9.969  14.624  21.873  0.00  0.00    +0.000 A 
ATOM     17  C   UNL     1      10.472  14.114  20.658  0.00  0.00    +0.000 A 
ENDBRANCH   2  17
ENDBRANCH   1   6
BRANCH   1  18
ATOM     18  S   UNL     1       7.656   7.107  17.519  0.00  0.00    +0.000 S 
BRANCH  18  19
ATOM     19  C   UNL     1       6.751   6.020  18.517  0.00  0.00    +0.000 A 
ATOM     20  N   UNL     1       7.119   5.515  19.664  0.00  0.00    +0.000 NA
ATOM     21  N   UNL     1       6.127   4.647  20.097  0.00  0.00    +0.000 NA
ATOM     22  C   UNL     1       5.167   4.642  19.196  0.00  0.00    +0.000 A 
ATOM     23  N   UNL     1       5.508   5.529  18.177  0.00  0.00    +0.000 N 
ATOM     24  C   UNL     1       4.552   5.854  17.105  0.00  0.00    +0.000 C 
ATOM     25  C   UNL     1       5.183   6.291  15.770  0.00  0.00    +0.000 C 
ATOM     26  C   UNL     1       3.611   6.977  17.600  0.00  0.00    +0.000 C 
ATOM     27  C   UNL     1       3.711   4.587  16.762  0.00  0.00    +0.000 C 
ATOM     28  C   UNL     1       3.154   3.890  17.974  0.00  0.00    +0.000 A 
ATOM     29  C   UNL     1       1.927   3.214  17.904  0.00  0.00    +0.000 A 
ATOM     30  C   UNL     1       1.435   2.549  19.017  0.00  0.00    +0.000 A 
ATOM     31  C   UNL     1       2.181   2.528  20.202  0.00  0.00    +0.000 A 
ATOM     32  C   UNL     1       3.418   3.187  20.268  0.00  0.00    +0.000 A 
ATOM     33  C   UNL     1       3.911   3.881  19.166  0.00  0.00    +0.000 A 
ENDBRANCH  18  19
ENDBRANCH   1  18
TORSDOF 4
ENDMDL
MODEL 2
REMARK VINA RESULT:      -8.2      3.426     11.451
REMARK  Name = 
REMARK  7 active torsions:
REMARK  status: ('A' for Active; 'I' for Inactive)
REMARK    1  A    between atoms: C_1  and  C_2
REMARK    2  A    between atoms: C_8  and  N_9
REMARK    3  A    between atoms: C_13  and  C_15
REMARK    4  A    between atoms: C_15  and  S_16
REMARK    5  A    between atoms: S_16  and  C_17
REMARK    6  A    between atoms: C_22  and  C_23
REMARK    7  A    between atoms: C_22  and  C_24
REMARK                            x       y       z     vdW  Elec       q    Type
REMARK                         _______ _______ _______ _____ _____    ______ ____
ROOT
ATOM      1  C   UNL     1       7.820   9.331  17.632  0.00  0.00    +0.000 C 
ENDROOT
BRANCH   1   6
ATOM      2  N   UNL     1       4.733   5.307  18.355  0.00  0.00    +0.000 N 
ATOM      3  C   UNL     1       5.863   5.192  19.298  0.00  0.00    +0.000 C 
ATOM      4  C   UNL     1       7.156   5.608  18.569  0.00  0.00    +0.000 C 
ATOM      5  N   UNL     1       7.030   6.952  17.967  0.00  0.00    +0.000 N 
ATOM      6  C   UNL     1       7.974   7.931  18.266  0.00  0.00    +0.000 C 
ATOM      7  O   UNL     1       8.888   7.686  19.061  0.00  0.00    +0.000 OA
ATOM      8  C   UNL     1       5.856   7.099  17.092  0.00  0.00    +0.000 C 
ATOM      9  C   UNL     1       4.558   6.664  17.813  0.00  0.00    +0.000 C 
BRANCH   2  17
ATOM     10  C   UNL     1       4.475   3.401  16.114  0.00  0.00    +0.000 C 
ATOM     11  C   UNL     1       3.579   3.410  17.325  0.00  0.00    +0.000 A 
ATOM     12  C   UNL     1       2.633   2.372  17.440  0.00  0.00    +0.000 A 
ATOM     13  C   UNL     1       1.827   2.254  18.569  0.00  0.00    +0.000 A 
ATOM     14  C   UNL     1       1.942   3.196  19.581  0.00  0.00    +0.000 A 
ATOM     15 CL   UNL     1       0.963   3.055  20.990  0.00  0.00    +0.000 Cl
ATOM     16  C   UNL     1       2.866   4.235  19.476  0.00  0.00    +0.000 A 
ATOM     17  C   UNL     1       3.722   4.363  18.362  0.00  0.00    +0.000 A 
ENDBRANCH   2  17
ENDBRANCH   1   6
BRANCH   1  18
ATOM     18  S   UNL     1       9.199  10.385  18.157  0.00  0.00    +0.000 S 
BRANCH  18  19
ATOM     19  C   UNL     1       8.663  12.026  18.045  0.00  0.00    +0.000 A 
ATOM     20  N   UNL     1       7.748  12.501  17.241  0.00  0.00    +0.000 NA
ATOM     21  N   UNL     1       7.669  13.872  17.433  0.00  0.00    +0.000 NA
ATOM     22  C   UNL     1       8.545  14.207  18.357  0.00  0.00    +0.000 A 
ATOM     23  N   UNL     1       9.187  13.053  18.800  0.00  0.00    +0.000 N 
ATOM     24  C   UNL     1      10.110  13.093  19.947  0.00  0.00    +0.000 C 
ATOM     25  C   UNL     1      11.195  12.000  19.959  0.00  0.00    +0.000 C 
ATOM     26  C   UNL     1       9.288  12.990  21.253  0.00  0.00    +0.000 C 
ATOM     27  C   UNL     1      10.892  14.443  19.933  0.00  0.00    +0.000 C 
ATOM     28  C   UNL     1      10.010  15.645  19.735  0.00  0.00    +0.000 A 
ATOM     29  C   UNL     1      10.344  16.876  20.320  0.00  0.00    +0.000 A 
ATOM     30  C   UNL     1       9.542  17.987  20.107  0.00  0.00    +0.000 A 
ATOM     31  C   UNL     1       8.415  17.885  19.282  0.00  0.00    +0.000 A 
ATOM     32  C   UNL     1       8.090  16.659  18.681  0.00  0.00    +0.000 A 
ATOM     33  C   UNL     1       8.872  15.530  18.908  0.00  0.00    +0.000 A 
ENDBRANCH  18  19
ENDBRANCH   1  18
TORSDOF 4
ENDMDL
MODEL 3
REMARK VINA RESULT:      -8.1      8.867     12.029
REMARK  Name = 
REMARK  7 active torsions:
REMARK  status: ('A' for Active; 'I' for Inactive)
REMARK    1  A    between atoms: C_1  and  C_2
REMARK    2  A    between atoms: C_8  and  N_9
REMARK    3  A    between atoms: C_13  and  C_15
REMARK    4  A    between atoms: C_15  and  S_16
REMARK    5  A    between atoms: S_16  and  C_17
REMARK    6  A    between atoms: C_22  and  C_23
REMARK    7  A    between atoms: C_22  and  C_24
REMARK                            x       y       z     vdW  Elec       q    Type
REMARK                         _______ _______ _______ _____ _____    ______ ____
ROOT
ATOM      1  C   UNL     1       0.807  11.439  21.060  0.00  0.00    +0.000 C 
ENDROOT
BRANCH   1   6
ATOM      2  N   UNL     1       2.283   7.197  18.596  0.00  0.00    +0.000 N 
ATOM      3  C   UNL     1       2.513   8.348  17.702  0.00  0.00    +0.000 C 
ATOM      4  C   UNL     1       1.322   9.318  17.833  0.00  0.00    +0.000 C 
ATOM      5  N   UNL     1       1.091   9.706  19.240  0.00  0.00    +0.000 N 
ATOM      6  C   UNL     1       1.042  11.055  19.583  0.00  0.00    +0.000 C 
ATOM      7  O   UNL     1       1.230  11.919  18.719  0.00  0.00    +0.000 OA
ATOM      8  C   UNL     1       0.946   8.560  20.152  0.00  0.00    +0.000 C 
ATOM      9  C   UNL     1       2.130   7.575  20.011  0.00  0.00    +0.000 C 
BRANCH   2  17
ATOM     10  C   UNL     1       4.920   6.706  17.361  0.00  0.00    +0.000 C 
ATOM     11  C   UNL     1       3.896   5.633  17.624  0.00  0.00    +0.000 A 
ATOM     12  C   UNL     1       4.271   4.300  17.364  0.00  0.00    +0.000 A 
ATOM     13  C   UNL     1       3.419   3.241  17.663  0.00  0.00    +0.000 A 
ATOM     14  C   UNL     1       2.167   3.513  18.198  0.00  0.00    +0.000 A 
ATOM     15 CL   UNL     1       1.107   2.212  18.586  0.00  0.00    +0.000 Cl
ATOM     16  C   UNL     1       1.778   4.828  18.449  0.00  0.00    +0.000 A 
ATOM     17  C   UNL     1       2.632   5.921  18.192  0.00  0.00    +0.000 A 
ENDBRANCH   2  17
ENDBRANCH   1   6
BRANCH   1  18
ATOM     18  S   UNL     1      -0.043  13.039  21.138  0.00  0.00    +0.000 S 
BRANCH  18  19
ATOM     19  C   UNL     1      -1.697  12.764  20.711  0.00  0.00    +0.000 A 
ATOM     20  N   UNL     1      -2.156  12.383  19.547  0.00  0.00    +0.000 NA
ATOM     21  N   UNL     1      -3.540  12.342  19.617  0.00  0.00    +0.000 NA
ATOM     22  C   UNL     1      -3.900  12.702  20.832  0.00  0.00    +0.000 A 
ATOM     23  N   UNL     1      -2.751  12.954  21.579  0.00  0.00    +0.000 N 
ATOM     24  C   UNL     1      -2.832  13.224  23.024  0.00  0.00    +0.000 C 
ATOM     25  C   UNL     1      -1.686  14.075  23.601  0.00  0.00    +0.000 C 
ATOM     26  C   UNL     1      -2.879  11.876  23.781  0.00  0.00    +0.000 C 
ATOM     27  C   UNL     1      -4.131  14.033  23.326  0.00  0.00    +0.000 C 
ATOM     28  C   UNL     1      -5.361  13.458  22.677  0.00  0.00    +0.000 A 
ATOM     29  C   UNL     1      -6.614  13.579  23.295  0.00  0.00    +0.000 A 
ATOM     30  C   UNL     1      -7.747  13.074  22.676  0.00  0.00    +0.000 A 
ATOM     31  C   UNL     1      -7.641  12.467  21.418  0.00  0.00    +0.000 A 
ATOM     32  C   UNL     1      -6.391  12.361  20.790  0.00  0.00    +0.000 A 
ATOM     33  C   UNL     1      -5.242  12.841  21.412  0.00  0.00    +0.000 A 
ENDBRANCH  18  19
ENDBRANCH   1  18
TORSDOF 4
ENDMDL
MODEL 4
REMARK VINA RESULT:      -8.0      8.730     12.021
REMARK  Name = 
REMARK  7 active torsions:
REMARK  status: ('A' for Active; 'I' for Inactive)
REMARK    1  A    between atoms: C_1  and  C_2
REMARK    2  A    between atoms: C_8  and  N_9
REMARK    3  A    between atoms: C_13  and  C_15
REMARK    4  A    between atoms: C_15  and  S_16
REMARK    5  A    between atoms: S_16  and  C_17
REMARK    6  A    between atoms: C_22  and  C_23
REMARK    7  A    between atoms: C_22  and  C_24
REMARK                            x       y       z     vdW  Elec       q    Type
REMARK                         _______ _______ _______ _____ _____    ______ ____
ROOT
ATOM      1  C   UNL     1       0.380  10.579  21.097  0.00  0.00    +0.000 C 
ENDROOT
BRANCH   1   6
ATOM      2  N   UNL     1       2.935   6.932  18.564  0.00  0.00    +0.000 N 
ATOM      3  C   UNL     1       3.058   8.189  17.801  0.00  0.00    +0.000 C 
ATOM      4  C   UNL     1       1.699   8.916  17.829  0.00  0.00    +0.000 C 
ATOM      5  N   UNL     1       1.218   9.115  19.213  0.00  0.00    +0.000 N 
ATOM      6  C   UNL     1       0.873  10.393  19.645  0.00  0.00    +0.000 C 
ATOM      7  O   UNL     1       1.006  11.359  18.885  0.00  0.00    +0.000 OA
ATOM      8  C   UNL     1       1.175   7.876  20.005  0.00  0.00    +0.000 C 
ATOM      9  C   UNL     1       2.531   7.133  19.965  0.00  0.00    +0.000 C 
BRANCH   2  17
ATOM     10  C   UNL     1       1.337   4.578  17.770  0.00  0.00    +0.000 C 
ATOM     11  C   UNL     1       2.840   4.644  17.699  0.00  0.00    +0.000 A 
ATOM     12  C   UNL     1       3.511   3.551  17.113  0.00  0.00    +0.000 A 
ATOM     13  C   UNL     1       4.890   3.569  16.928  0.00  0.00    +0.000 A 
ATOM     14  C   UNL     1       5.615   4.672  17.357  0.00  0.00    +0.000 A 
ATOM     15 CL   UNL     1       7.320   4.714  17.121  0.00  0.00    +0.000 Cl
ATOM     16  C   UNL     1       4.966   5.754  17.950  0.00  0.00    +0.000 A 
ATOM     17  C   UNL     1       3.566   5.784  18.120  0.00  0.00    +0.000 A 
ENDBRANCH   2  17
ENDBRANCH   1   6
BRANCH   1  18
ATOM     18  S   UNL     1      -0.162  12.293  21.333  0.00  0.00    +0.000 S 
BRANCH  18  19
ATOM     19  C   UNL     1      -1.812  12.386  20.820  0.00  0.00    +0.000 A 
ATOM     20  N   UNL     1      -2.297  12.016  19.664  0.00  0.00    +0.000 NA
ATOM     21  N   UNL     1      -3.651  12.318  19.643  0.00  0.00    +0.000 NA
ATOM     22  C   UNL     1      -3.965  12.870  20.797  0.00  0.00    +0.000 A 
ATOM     23  N   UNL     1      -2.824  12.908  21.596  0.00  0.00    +0.000 N 
ATOM     24  C   UNL     1      -2.902  13.328  23.005  0.00  0.00    +0.000 C 
ATOM     25  C   UNL     1      -1.607  13.929  23.586  0.00  0.00    +0.000 C 
ATOM     26  C   UNL     1      -3.313  12.112  23.866  0.00  0.00    +0.000 C 
ATOM     27  C   UNL     1      -3.973  14.452  23.150  0.00  0.00    +0.000 C 
ATOM     28  C   UNL     1      -5.276  14.131  22.470  0.00  0.00    +0.000 A 
ATOM     29  C   UNL     1      -6.487  14.612  22.990  0.00  0.00    +0.000 A 
ATOM     30  C   UNL     1      -7.680  14.337  22.340  0.00  0.00    +0.000 A 
ATOM     31  C   UNL     1      -7.671  13.603  21.147  0.00  0.00    +0.000 A 
ATOM     32  C   UNL     1      -6.459  13.138  20.615  0.00  0.00    +0.000 A 
ATOM     33  C   UNL     1      -5.256  13.385  21.272  0.00  0.00    +0.000 A 
ENDBRANCH  18  19
ENDBRANCH   1  18
TORSDOF 4
ENDMDL
MODEL 5
REMARK VINA RESULT:      -7.9      6.399     11.453
REMARK  Name = 
REMARK  7 active torsions:
REMARK  status: ('A' for Active; 'I' for Inactive)
REMARK    1  A    between atoms: C_1  and  C_2
REMARK    2  A    between atoms: C_8  and  N_9
REMARK    3  A    between atoms: C_13  and  C_15
REMARK    4  A    between atoms: C_15  and  S_16
REMARK    5  A    between atoms: S_16  and  C_17
REMARK    6  A    between atoms: C_22  and  C_23
REMARK    7  A    between atoms: C_22  and  C_24
REMARK                            x       y       z     vdW  Elec       q    Type
REMARK                         _______ _______ _______ _____ _____    ______ ____
ROOT
ATOM      1  C   UNL     1       3.545  15.662  20.228  0.00  0.00    +0.000 C 
ENDROOT
BRANCH   1   6
ATOM      2  N   UNL     1      -0.313  12.464  19.165  0.00  0.00    +0.000 N 
ATOM      3  C   UNL     1       0.204  12.127  20.506  0.00  0.00    +0.000 C 
ATOM      4  C   UNL     1       1.742  12.217  20.476  0.00  0.00    +0.000 C 
ATOM      5  N   UNL     1       2.199  13.535  19.986  0.00  0.00    +0.000 N 
ATOM      6  C   UNL     1       3.086  14.285  20.754  0.00  0.00    +0.000 C 
ATOM      7  O   UNL     1       3.457  13.865  21.856  0.00  0.00    +0.000 OA
ATOM      8  C   UNL     1       1.619  13.915  18.689  0.00  0.00    +0.000 C 
ATOM      9  C   UNL     1       0.076  13.808  18.707  0.00  0.00    +0.000 C 
BRANCH   2  17
ATOM     10  C   UNL     1       0.099   9.839  17.875  0.00  0.00    +0.000 C 
ATOM     11  C   UNL     1      -1.245  10.498  18.042  0.00  0.00    +0.000 A 
ATOM     12  C   UNL     1      -2.383   9.761  17.656  0.00  0.00    +0.000 A 
ATOM     13  C   UNL     1      -3.666  10.260  17.858  0.00  0.00    +0.000 A 
ATOM     14  C   UNL     1      -3.820  11.518  18.423  0.00  0.00    +0.000 A 
ATOM     15 CL   UNL     1      -5.402  12.141  18.693  0.00  0.00    +0.000 Cl
ATOM     16  C   UNL     1      -2.704  12.264  18.798  0.00  0.00    +0.000 A 
ATOM     17  C   UNL     1      -1.391  11.773  18.641  0.00  0.00    +0.000 A 
ENDBRANCH   2  17
ENDBRANCH   1   6
BRANCH   1  18
ATOM     18  S   UNL     1       5.226  16.002  20.816  0.00  0.00    +0.000 S 
BRANCH  18  19
ATOM     19  C   UNL     1       6.320  15.209  19.735  0.00  0.00    +0.000 A 
ATOM     20  N   UNL     1       6.213  15.120  18.435  0.00  0.00    +0.000 NA
ATOM     21  N   UNL     1       7.266  14.351  17.963  0.00  0.00    +0.000 NA
ATOM     22  C   UNL     1       7.999  13.984  18.994  0.00  0.00    +0.000 A 
ATOM     23  N   UNL     1       7.448  14.534  20.149  0.00  0.00    +0.000 N 
ATOM     24  C   UNL     1       8.142  14.427  21.443  0.00  0.00    +0.000 C 
ATOM     25  C   UNL     1       7.231  14.476  22.685  0.00  0.00    +0.000 C 
ATOM     26  C   UNL     1       9.183  15.565  21.547  0.00  0.00    +0.000 C 
ATOM     27  C   UNL     1       8.869  13.050  21.527  0.00  0.00    +0.000 C 
ATOM     28  C   UNL     1       9.676  12.722  20.300  0.00  0.00    +0.000 A 
ATOM     29  C   UNL     1      10.848  11.958  20.403  0.00  0.00    +0.000 A 
ATOM     30  C   UNL     1      11.569  11.635  19.264  0.00  0.00    +0.000 A 
ATOM     31  C   UNL     1      11.109  12.048  18.007  0.00  0.00    +0.000 A 
ATOM     32  C   UNL     1       9.927  12.796  17.901  0.00  0.00    +0.000 A 
ATOM     33  C   UNL     1       9.207  13.150  19.039  0.00  0.00    +0.000 A 
ENDBRANCH  18  19
ENDBRANCH   1  18
TORSDOF 4
ENDMDL
MODEL 6
REMARK VINA RESULT:      -7.9      7.044     10.398
REMARK  Name = 
REMARK  7 active torsions:
REMARK  status: ('A' for Active; 'I' for Inactive)
REMARK    1  A    between atoms: C_1  and  C_2
REMARK    2  A    between atoms: C_8  and  N_9
REMARK    3  A    between atoms: C_13  and  C_15
REMARK    4  A    between atoms: C_15  and  S_16
REMARK    5  A    between atoms: S_16  and  C_17
REMARK    6  A    between atoms: C_22  and  C_23
REMARK    7  A    between atoms: C_22  and  C_24
REMARK                            x       y       z     vdW  Elec       q    Type
REMARK                         _______ _______ _______ _____ _____    ______ ____
ROOT
ATOM      1  C   UNL     1       1.675   6.190  21.187  0.00  0.00    +0.000 C 
ENDROOT
BRANCH   1   6
ATOM      2  N   UNL     1       4.423   5.007  17.028  0.00  0.00    +0.000 N 
ATOM      3  C   UNL     1       3.219   4.153  17.039  0.00  0.00    +0.000 C 
ATOM      4  C   UNL     1       2.957   3.692  18.486  0.00  0.00    +0.000 C 
ATOM      5  N   UNL     1       2.869   4.839  19.414  0.00  0.00    +0.000 N 
ATOM      6  C   UNL     1       1.750   4.980  20.230  0.00  0.00    +0.000 C 
ATOM      7  O   UNL     1       0.820   4.169  20.149  0.00  0.00    +0.000 OA
ATOM      8  C   UNL     1       4.029   5.743  19.345  0.00  0.00    +0.000 C 
ATOM      9  C   UNL     1       4.308   6.193  17.892  0.00  0.00    +0.000 C 
BRANCH   2  17
ATOM     10  C   UNL     1       7.224   5.852  17.430  0.00  0.00    +0.000 C 
ATOM     11  C   UNL     1       6.688   5.284  16.143  0.00  0.00    +0.000 A 
ATOM     12  C   UNL     1       7.612   5.041  15.106  0.00  0.00    +0.000 A 
ATOM     13  C   UNL     1       7.216   4.435  13.917  0.00  0.00    +0.000 A 
ATOM     14  C   UNL     1       5.882   4.095  13.744  0.00  0.00    +0.000 A 
ATOM     15 CL   UNL     1       5.381   3.332  12.284  0.00  0.00    +0.000 Cl
ATOM     16  C   UNL     1       4.955   4.341  14.756  0.00  0.00    +0.000 A 
ATOM     17  C   UNL     1       5.329   4.920  15.987  0.00  0.00    +0.000 A 
ENDBRANCH   2  17
ENDBRANCH   1   6
BRANCH   1  18
ATOM     18  S   UNL     1       1.532   7.716  20.218  0.00  0.00    +0.000 S 
BRANCH  18  19
ATOM     19  C   UNL     1       0.898   8.935  21.269  0.00  0.00    +0.000 A 
ATOM     20  N   UNL     1       0.886   8.916  22.576  0.00  0.00    +0.000 NA
ATOM     21  N   UNL     1       0.233  10.056  23.022  0.00  0.00    +0.000 NA
ATOM     22  C   UNL     1      -0.142  10.751  21.968  0.00  0.00    +0.000 A 
ATOM     23  N   UNL     1       0.287  10.087  20.822  0.00  0.00    +0.000 N 
ATOM     24  C   UNL     1       0.151  10.706  19.492  0.00  0.00    +0.000 C 
ATOM     25  C   UNL     1       0.049   9.720  18.313  0.00  0.00    +0.000 C 
ATOM     26  C   UNL     1       1.358  11.642  19.252  0.00  0.00    +0.000 C 
ATOM     27  C   UNL     1      -1.168  11.536  19.443  0.00  0.00    +0.000 C 
ATOM     28  C   UNL     1      -1.352  12.442  20.630  0.00  0.00    +0.000 A 
ATOM     29  C   UNL     1      -2.027  13.664  20.495  0.00  0.00    +0.000 A 
ATOM     30  C   UNL     1      -2.219  14.478  21.601  0.00  0.00    +0.000 A 
ATOM     31  C   UNL     1      -1.763  14.064  22.858  0.00  0.00    +0.000 A 
ATOM     32  C   UNL     1      -1.103  12.834  22.999  0.00  0.00    +0.000 A 
ATOM     33  C   UNL     1      -0.881  12.019  21.893  0.00  0.00    +0.000 A 
ENDBRANCH  18  19
ENDBRANCH   1  18
TORSDOF 4
ENDMDL
MODEL 7
REMARK VINA RESULT:      -7.8      7.091     11.579
REMARK  Name = 
REMARK  7 active torsions:
REMARK  status: ('A' for Active; 'I' for Inactive)
REMARK    1  A    between atoms: C_1  and  C_2
REMARK    2  A    between atoms: C_8  and  N_9
REMARK    3  A    between atoms: C_13  and  C_15
REMARK    4  A    between atoms: C_15  and  S_16
REMARK    5  A    between atoms: S_16  and  C_17
REMARK    6  A    between atoms: C_22  and  C_23
REMARK    7  A    between atoms: C_22  and  C_24
REMARK                            x       y       z     vdW  Elec       q    Type
REMARK                         _______ _______ _______ _____ _____    ______ ____
ROOT
ATOM      1  C   UNL     1       4.065  14.328  21.102  0.00  0.00    +0.000 C 
ENDROOT
BRANCH   1   6
ATOM      2  N   UNL     1      -0.402  12.789  19.122  0.00  0.00    +0.000 N 
ATOM      3  C   UNL     1       0.062  13.958  18.350  0.00  0.00    +0.000 C 
ATOM      4  C   UNL     1       0.659  14.988  19.329  0.00  0.00    +0.000 C 
ATOM      5  N   UNL     1       1.715  14.386  20.171  0.00  0.00    +0.000 N 
ATOM      6  C   UNL     1       2.975  14.976  20.221  0.00  0.00    +0.000 C 
ATOM      7  O   UNL     1       3.217  15.975  19.534  0.00  0.00    +0.000 OA
ATOM      8  C   UNL     1       1.283  13.170  20.877  0.00  0.00    +0.000 C 
ATOM      9  C   UNL     1       0.665  12.141  19.902  0.00  0.00    +0.000 C 
BRANCH   2  17
ATOM     10  C   UNL     1      -2.835  13.168  20.751  0.00  0.00    +0.000 C 
ATOM     11  C   UNL     1      -2.774  12.323  19.507  0.00  0.00    +0.000 A 
ATOM     12  C   UNL     1      -3.983  11.772  19.035  0.00  0.00    +0.000 A 
ATOM     13  C   UNL     1      -4.031  11.053  17.845  0.00  0.00    +0.000 A 
ATOM     14  C   UNL     1      -2.858  10.854  17.129  0.00  0.00    +0.000 A 
ATOM     15 CL   UNL     1      -2.904   9.979  15.647  0.00  0.00    +0.000 Cl
ATOM     16  C   UNL     1      -1.653  11.382  17.590  0.00  0.00    +0.000 A 
ATOM     17  C   UNL     1      -1.576  12.146  18.773  0.00  0.00    +0.000 A 
ENDBRANCH   2  17
ENDBRANCH   1   6
BRANCH   1  18
ATOM     18  S   UNL     1       5.500  15.432  21.195  0.00  0.00    +0.000 S 
BRANCH  18  19
ATOM     19  C   UNL     1       6.626  14.914  19.988  0.00  0.00    +0.000 A 
ATOM     20  N   UNL     1       6.532  15.093  18.696  0.00  0.00    +0.000 NA
ATOM     21  N   UNL     1       7.613  14.470  18.090  0.00  0.00    +0.000 NA
ATOM     22  C   UNL     1       8.349  13.918  19.033  0.00  0.00    +0.000 A 
ATOM     23  N   UNL     1       7.772  14.200  20.269  0.00  0.00    +0.000 N 
ATOM     24  C   UNL     1       8.459  13.847  21.523  0.00  0.00    +0.000 C 
ATOM     25  C   UNL     1       7.538  13.611  22.735  0.00  0.00    +0.000 C 
ATOM     26  C   UNL     1       9.463  14.969  21.875  0.00  0.00    +0.000 C 
ATOM     27  C   UNL     1       9.228  12.504  21.329  0.00  0.00    +0.000 C 
ATOM     28  C   UNL     1      10.054  12.462  20.073  0.00  0.00    +0.000 A 
ATOM     29  C   UNL     1      11.249  11.728  20.032  0.00  0.00    +0.000 A 
ATOM     30  C   UNL     1      11.989  11.669  18.860  0.00  0.00    +0.000 A 
ATOM     31  C   UNL     1      11.526  12.320  17.710  0.00  0.00    +0.000 A 
ATOM     32  C   UNL     1      10.321  13.040  17.744  0.00  0.00    +0.000 A 
ATOM     33  C   UNL     1       9.582  13.128  18.921  0.00  0.00    +0.000 A 
ENDBRANCH  18  19
ENDBRANCH   1  18
TORSDOF 4
ENDMDL
MODEL 8
REMARK VINA RESULT:      -7.8      9.212     12.236
REMARK  Name = 
REMARK  7 active torsions:
REMARK  status: ('A' for Active; 'I' for Inactive)
REMARK    1  A    between atoms: C_1  and  C_2
REMARK    2  A    between atoms: C_8  and  N_9
REMARK    3  A    between atoms: C_13  and  C_15
REMARK    4  A    between atoms: C_15  and  S_16
REMARK    5  A    between atoms: S_16  and  C_17
REMARK    6  A    between atoms: C_22  and  C_23
REMARK    7  A    between atoms: C_22  and  C_24
REMARK                            x       y       z     vdW  Elec       q    Type
REMARK                         _______ _______ _______ _____ _____    ______ ____
ROOT
ATOM      1  C   UNL     1       0.922  11.435  21.274  0.00  0.00    +0.000 C 
ENDROOT
BRANCH   1   6
ATOM      2  N   UNL     1       2.225   7.258  18.609  0.00  0.00    +0.000 N 
ATOM      3  C   UNL     1       2.299   8.421  17.703  0.00  0.00    +0.000 C 
ATOM      4  C   UNL     1       1.100   9.346  17.991  0.00  0.00    +0.000 C 
ATOM      5  N   UNL     1       1.035   9.720  19.419  0.00  0.00    +0.000 N 
ATOM      6  C   UNL     1       0.982  11.065  19.776  0.00  0.00    +0.000 C 
ATOM      7  O   UNL     1       1.029  11.939  18.902  0.00  0.00    +0.000 OA
ATOM      8  C   UNL     1       1.048   8.567  20.332  0.00  0.00    +0.000 C 
ATOM      9  C   UNL     1       2.238   7.625  20.035  0.00  0.00    +0.000 C 
BRANCH   2  17
ATOM     10  C   UNL     1       4.809   6.824  17.247  0.00  0.00    +0.000 C 
ATOM     11  C   UNL     1       3.805   5.736  17.524  0.00  0.00    +0.000 A 
ATOM     12  C   UNL     1       4.178   4.414  17.210  0.00  0.00    +0.000 A 
ATOM     13  C   UNL     1       3.347   3.340  17.515  0.00  0.00    +0.000 A 
ATOM     14  C   UNL     1       2.118   3.586  18.111  0.00  0.00    +0.000 A 
ATOM     15 CL   UNL     1       1.086   2.266  18.508  0.00  0.00    +0.000 Cl
ATOM     16  C   UNL     1       1.731   4.890  18.417  0.00  0.00    +0.000 A 
ATOM     17  C   UNL     1       2.565   5.997  18.154  0.00  0.00    +0.000 A 
ENDBRANCH   2  17
ENDBRANCH   1   6
BRANCH   1  18
ATOM     18  S   UNL     1       0.030  13.001  21.472  0.00  0.00    +0.000 S 
BRANCH  18  19
ATOM     19  C   UNL     1      -1.445  12.651  22.306  0.00  0.00    +0.000 A 
ATOM     20  N   UNL     1      -1.706  11.595  23.032  0.00  0.00    +0.000 NA
ATOM     21  N   UNL     1      -3.020  11.680  23.467  0.00  0.00    +0.000 NA
ATOM     22  C   UNL     1      -3.537  12.794  22.994  0.00  0.00    +0.000 A 
ATOM     23  N   UNL     1      -2.557  13.465  22.266  0.00  0.00    +0.000 N 
ATOM     24  C   UNL     1      -2.795  14.822  21.748  0.00  0.00    +0.000 C 
ATOM     25  C   UNL     1      -1.981  15.202  20.496  0.00  0.00    +0.000 C 
ATOM     26  C   UNL     1      -2.490  15.845  22.867  0.00  0.00    +0.000 C 
ATOM     27  C   UNL     1      -4.288  14.955  21.318  0.00  0.00    +0.000 C 
ATOM     28  C   UNL     1      -5.258  14.448  22.350  0.00  0.00    +0.000 A 
ATOM     29  C   UNL     1      -6.525  15.034  22.484  0.00  0.00    +0.000 A 
ATOM     30  C   UNL     1      -7.424  14.540  23.417  0.00  0.00    +0.000 A 
ATOM     31  C   UNL     1      -7.074  13.437  24.206  0.00  0.00    +0.000 A 
ATOM     32  C   UNL     1      -5.814  12.837  24.060  0.00  0.00    +0.000 A 
ATOM     33  C   UNL     1      -4.893  13.339  23.145  0.00  0.00    +0.000 A 
ENDBRANCH  18  19
ENDBRANCH   1  18
TORSDOF 4
ENDMDL
MODEL 9
REMARK VINA RESULT:      -7.7      9.109     12.279
REMARK  Name = 
REMARK  7 active torsions:
REMARK  status: ('A' for Active; 'I' for Inactive)
REMARK    1  A    between atoms: C_1  and  C_2
REMARK    2  A    between atoms: C_8  and  N_9
REMARK    3  A    between atoms: C_13  and  C_15
REMARK    4  A    between atoms: C_15  and  S_16
REMARK    5  A    between atoms: S_16  and  C_17
REMARK    6  A    between atoms: C_22  and  C_23
REMARK    7  A    between atoms: C_22  and  C_24
REMARK                            x       y       z     vdW  Elec       q    Type
REMARK                         _______ _______ _______ _____ _____    ______ ____
ROOT
ATOM      1  C   UNL     1      -0.593  11.100  19.081  0.00  0.00    +0.000 C 
ENDROOT
BRANCH   1   6
ATOM      2  N   UNL     1       2.559   7.108  18.467  0.00  0.00    +0.000 N 
ATOM      3  C   UNL     1       1.826   6.921  19.734  0.00  0.00    +0.000 C 
ATOM      4  C   UNL     1       1.725   8.283  20.449  0.00  0.00    +0.000 C 
ATOM      5  N   UNL     1       1.127   9.312  19.572  0.00  0.00    +0.000 N 
ATOM      6  C   UNL     1       0.021  10.034  20.014  0.00  0.00    +0.000 C 
ATOM      7  O   UNL     1      -0.479   9.785  21.118  0.00  0.00    +0.000 OA
ATOM      8  C   UNL     1       1.801   9.444  18.272  0.00  0.00    +0.000 C 
ATOM      9  C   UNL     1       1.922   8.076  17.558  0.00  0.00    +0.000 C 
BRANCH   2  17
ATOM     10  C   UNL     1       1.615   4.390  17.799  0.00  0.00    +0.000 C 
ATOM     11  C   UNL     1       3.046   4.844  17.673  0.00  0.00    +0.000 A 
ATOM     12  C   UNL     1       3.964   3.944  17.096  0.00  0.00    +0.000 A 
ATOM     13  C   UNL     1       5.285   4.315  16.861  0.00  0.00    +0.000 A 
ATOM     14  C   UNL     1       5.706   5.585  17.232  0.00  0.00    +0.000 A 
ATOM     15 CL   UNL     1       7.332   6.063  16.935  0.00  0.00    +0.000 Cl
ATOM     16  C   UNL     1       4.811   6.481  17.816  0.00  0.00    +0.000 A 
ATOM     17  C   UNL     1       3.457   6.150  18.034  0.00  0.00    +0.000 A 
ENDBRANCH   2  17
ENDBRANCH   1   6
BRANCH   1  18
ATOM     18  S   UNL     1      -0.957  12.598  20.034  0.00  0.00    +0.000 S 
BRANCH  18  19
ATOM     19  C   UNL     1      -2.674  12.681  20.228  0.00  0.00    +0.000 A 
ATOM     20  N   UNL     1      -3.581  12.227  19.402  0.00  0.00    +0.000 NA
ATOM     21  N   UNL     1      -4.831  12.552  19.907  0.00  0.00    +0.000 NA
ATOM     22  C   UNL     1      -4.659  13.203  21.039  0.00  0.00    +0.000 A 
ATOM     23  N   UNL     1      -3.293  13.285  21.301  0.00  0.00    +0.000 N 
ATOM     24  C   UNL     1      -2.799  13.821  22.581  0.00  0.00    +0.000 C 
ATOM     25  C   UNL     1      -1.391  14.442  22.535  0.00  0.00    +0.000 C 
ATOM     26  C   UNL     1      -2.808  12.687  23.633  0.00  0.00    +0.000 C 
ATOM     27  C   UNL     1      -3.737  14.974  23.053  0.00  0.00    +0.000 C 
ATOM     28  C   UNL     1      -5.199  14.624  22.989  0.00  0.00    +0.000 A 
ATOM     29  C   UNL     1      -6.102  15.168  23.913  0.00  0.00    +0.000 A 
ATOM     30  C   UNL     1      -7.453  14.865  23.827  0.00  0.00    +0.000 A 
ATOM     31  C   UNL     1      -7.916  14.036  22.798  0.00  0.00    +0.000 A 
ATOM     32  C   UNL     1      -7.016  13.505  21.861  0.00  0.00    +0.000 A 
ATOM     33  C   UNL     1      -5.655  13.781  21.951  0.00  0.00    +0.000 A 
ENDBRANCH  18  19
ENDBRANCH   1  18
TORSDOF 4
ENDMDL
