MODEL 1
REMARK VINA RESULT:      -7.4      0.000      0.000
REMARK  Name = 
REMARK  10 active torsions:
REMARK  status: ('A' for Active; 'I' for Inactive)
REMARK    1  A    between atoms: C_1  and  C_2
REMARK    2  A    between atoms: C_2  and  C_3
REMARK    3  A    between atoms: C_3  and  C_4
REMARK    4  A    between atoms: C_4  and  O_6
REMARK    5  A    between atoms: O_6  and  C_7
REMARK    6  A    between atoms: C_7  and  S_8
REMARK    7  A    between atoms: S_8  and  C_9
REMARK    8  A    between atoms: C_14  and  C_15
REMARK    9  A    between atoms: N_17  and  C_18
REMARK   10  A    between atoms: C_21  and  C_22
REMARK                            x       y       z     vdW  Elec       q    Type
REMARK                         _______ _______ _______ _____ _____    ______ ____
ROOT
ATOM      1  C   UNL     1       4.365   6.721  17.475  0.00  0.00    +0.000 C 
ATOM      2  O   UNL     1       5.139   7.576  17.905  0.00  0.00    +0.000 OA
ATOM      3  N   UNL     1       3.014   6.643  17.767  0.00  0.00    +0.000 N 
ATOM      4  H   UNL     1       2.495   5.836  17.438  0.00  0.00    +0.000 HD
ENDROOT
BRANCH   1  10
ATOM      5  C   UNL     1       5.102   4.276  17.080  0.00  0.00    +0.000 A 
ATOM      6  C   UNL     1       5.622   3.352  16.161  0.00  0.00    +0.000 A 
ATOM      7  C   UNL     1       6.008   3.737  14.871  0.00  0.00    +0.000 A 
ATOM      8  C   UNL     1       5.867   5.058  14.469  0.00  0.00    +0.000 A 
ATOM      9  C   UNL     1       5.354   5.991  15.363  0.00  0.00    +0.000 A 
ATOM     10  C   UNL     1       4.962   5.617  16.669  0.00  0.00    +0.000 A 
BRANCH   5  11
ATOM     11  S   UNL     1       4.436   3.638  18.620  0.00  0.00    +0.000 S 
BRANCH  11  12
ATOM     12  C   UNL     1       3.557   2.128  18.072  0.00  0.00    +0.000 C 
BRANCH  12  13
ATOM     13  O   UNL     1       2.404   2.463  17.275  0.00  0.00    +0.000 OA
BRANCH  13  14
ATOM     14  C   UNL     1       1.511   3.283  17.891  0.00  0.00    +0.000 C 
ATOM     15  O   UNL     1       1.210   4.408  17.499  0.00  0.00    +0.000 OA
BRANCH  14  16
ATOM     16  C   UNL     1       0.961   2.633  19.147  0.00  0.00    +0.000 C 
BRANCH  16  18
ATOM     17  C   UNL     1       1.801   3.104  21.490  0.00  0.00    +0.000 C 
ATOM     18  C   UNL     1       0.978   3.616  20.319  0.00  0.00    +0.000 C 
ENDBRANCH  16  18
ENDBRANCH  14  16
ENDBRANCH  13  14
ENDBRANCH  12  13
ENDBRANCH  11  12
ENDBRANCH   5  11
ENDBRANCH   1  10
BRANCH   3  19
ATOM     19  C   UNL     1       2.301   7.564  18.564  0.00  0.00    +0.000 A 
ATOM     20  C   UNL     1       1.792   8.759  18.049  0.00  0.00    +0.000 A 
ATOM     21  C   UNL     1       1.108   9.664  18.863  0.00  0.00    +0.000 A 
ATOM     22  C   UNL     1       0.916   9.385  20.218  0.00  0.00    +0.000 A 
ATOM     23  C   UNL     1       1.424   8.186  20.740  0.00  0.00    +0.000 A 
ATOM     24  C   UNL     1       2.099   7.273  19.914  0.00  0.00    +0.000 A 
BRANCH  22  25
ATOM     25  C   UNL     1       0.171  10.305  21.124  0.00  0.00    +0.000 C 
ATOM     26  N   UNL     1      -0.161   9.860  22.375  0.00  0.00    +0.000 N 
ATOM     27  O   UNL     1      -0.130  11.439  20.778  0.00  0.00    +0.000 OA
ATOM     28  H   UNL     1       0.078   8.960  22.758  0.00  0.00    +0.000 HD
ATOM     29  H   UNL     1      -0.633  10.516  22.984  0.00  0.00    +0.000 HD
ENDBRANCH  22  25
ENDBRANCH   3  19
TORSDOF 9
ENDMDL
MODEL 2
REMARK VINA RESULT:      -7.3      0.847      1.294
REMARK  Name = 
REMARK  10 active torsions:
REMARK  status: ('A' for Active; 'I' for Inactive)
REMARK    1  A    between atoms: C_1  and  C_2
REMARK    2  A    between atoms: C_2  and  C_3
REMARK    3  A    between atoms: C_3  and  C_4
REMARK    4  A    between atoms: C_4  and  O_6
REMARK    5  A    between atoms: O_6  and  C_7
REMARK    6  A    between atoms: C_7  and  S_8
REMARK    7  A    between atoms: S_8  and  C_9
REMARK    8  A    between atoms: C_14  and  C_15
REMARK    9  A    between atoms: N_17  and  C_18
REMARK   10  A    between atoms: C_21  and  C_22
REMARK                            x       y       z     vdW  Elec       q    Type
REMARK                         _______ _______ _______ _____ _____    ______ ____
ROOT
ATOM      1  C   UNL     1       3.983   6.165  18.394  0.00  0.00    +0.000 C 
ATOM      2  O   UNL     1       4.322   5.896  19.546  0.00  0.00    +0.000 OA
ATOM      3  N   UNL     1       2.963   7.032  18.041  0.00  0.00    +0.000 N 
ATOM      4  H   UNL     1       2.704   7.099  17.062  0.00  0.00    +0.000 HD
ENDROOT
BRANCH   1  10
ATOM      5  C   UNL     1       4.892   4.016  17.284  0.00  0.00    +0.000 A 
ATOM      6  C   UNL     1       5.472   3.456  16.135  0.00  0.00    +0.000 A 
ATOM      7  C   UNL     1       5.821   4.244  15.031  0.00  0.00    +0.000 A 
ATOM      8  C   UNL     1       5.583   5.612  15.050  0.00  0.00    +0.000 A 
ATOM      9  C   UNL     1       5.010   6.188  16.177  0.00  0.00    +0.000 A 
ATOM     10  C   UNL     1       4.653   5.405  17.300  0.00  0.00    +0.000 A 
BRANCH   5  11
ATOM     11  S   UNL     1       4.283   2.893  18.543  0.00  0.00    +0.000 S 
BRANCH  11  12
ATOM     12  C   UNL     1       2.902   2.051  17.684  0.00  0.00    +0.000 C 
BRANCH  12  13
ATOM     13  O   UNL     1       1.653   2.286  18.363  0.00  0.00    +0.000 OA
BRANCH  13  14
ATOM     14  C   UNL     1       1.270   3.590  18.406  0.00  0.00    +0.000 C 
ATOM     15  O   UNL     1       1.177   4.323  17.424  0.00  0.00    +0.000 OA
BRANCH  14  16
ATOM     16  C   UNL     1       1.005   4.027  19.835  0.00  0.00    +0.000 C 
BRANCH  16  18
ATOM     17  C   UNL     1       2.253   3.029  21.799  0.00  0.00    +0.000 C 
ATOM     18  C   UNL     1       1.126   2.844  20.796  0.00  0.00    +0.000 C 
ENDBRANCH  16  18
ENDBRANCH  14  16
ENDBRANCH  13  14
ENDBRANCH  12  13
ENDBRANCH  11  12
ENDBRANCH   5  11
ENDBRANCH   1  10
BRANCH   3  19
ATOM     19  C   UNL     1       2.184   7.782  18.948  0.00  0.00    +0.000 A 
ATOM     20  C   UNL     1       1.949   7.356  20.258  0.00  0.00    +0.000 A 
ATOM     21  C   UNL     1       1.157   8.106  21.130  0.00  0.00    +0.000 A 
ATOM     22  C   UNL     1       0.585   9.307  20.704  0.00  0.00    +0.000 A 
ATOM     23  C   UNL     1       0.819   9.739  19.391  0.00  0.00    +0.000 A 
ATOM     24  C   UNL     1       1.628   8.989  18.523  0.00  0.00    +0.000 A 
BRANCH  22  25
ATOM     25  C   UNL     1      -0.247  10.158  21.603  0.00  0.00    +0.000 C 
ATOM     26  N   UNL     1      -0.263   9.871  22.940  0.00  0.00    +0.000 N 
ATOM     27  O   UNL     1      -0.894  11.103  21.172  0.00  0.00    +0.000 OA
ATOM     28  H   UNL     1       0.265   9.139  23.388  0.00  0.00    +0.000 HD
ATOM     29  H   UNL     1      -0.805  10.486  23.534  0.00  0.00    +0.000 HD
ENDBRANCH  22  25
ENDBRANCH   3  19
TORSDOF 9
ENDMDL
MODEL 3
REMARK VINA RESULT:      -6.8      1.130      1.314
REMARK  Name = 
REMARK  10 active torsions:
REMARK  status: ('A' for Active; 'I' for Inactive)
REMARK    1  A    between atoms: C_1  and  C_2
REMARK    2  A    between atoms: C_2  and  C_3
REMARK    3  A    between atoms: C_3  and  C_4
REMARK    4  A    between atoms: C_4  and  O_6
REMARK    5  A    between atoms: O_6  and  C_7
REMARK    6  A    between atoms: C_7  and  S_8
REMARK    7  A    between atoms: S_8  and  C_9
REMARK    8  A    between atoms: C_14  and  C_15
REMARK    9  A    between atoms: N_17  and  C_18
REMARK   10  A    between atoms: C_21  and  C_22
REMARK                            x       y       z     vdW  Elec       q    Type
REMARK                         _______ _______ _______ _____ _____    ______ ____
ROOT
ATOM      1  C   UNL     1       4.178   6.140  18.195  0.00  0.00    +0.000 C 
ATOM      2  O   UNL     1       4.427   5.820  19.356  0.00  0.00    +0.000 OA
ATOM      3  N   UNL     1       3.197   7.036  17.804  0.00  0.00    +0.000 N 
ATOM      4  H   UNL     1       3.011   7.146  16.812  0.00  0.00    +0.000 HD
ENDROOT
BRANCH   1  10
ATOM      5  C   UNL     1       4.921   4.019  16.921  0.00  0.00    +0.000 A 
ATOM      6  C   UNL     1       5.617   3.511  15.812  0.00  0.00    +0.000 A 
ATOM      7  C   UNL     1       6.304   4.353  14.929  0.00  0.00    +0.000 A 
ATOM      8  C   UNL     1       6.296   5.727  15.130  0.00  0.00    +0.000 A 
ATOM      9  C   UNL     1       5.613   6.252  16.221  0.00  0.00    +0.000 A 
ATOM     10  C   UNL     1       4.916   5.414  17.123  0.00  0.00    +0.000 A 
BRANCH   5  11
ATOM     11  S   UNL     1       3.896   2.881  17.856  0.00  0.00    +0.000 S 
BRANCH  11  12
ATOM     12  C   UNL     1       2.252   3.106  17.082  0.00  0.00    +0.000 C 
BRANCH  12  13
ATOM     13  O   UNL     1       1.388   3.890  17.927  0.00  0.00    +0.000 OA
BRANCH  13  14
ATOM     14  C   UNL     1       0.797   3.192  18.933  0.00  0.00    +0.000 C 
ATOM     15  O   UNL     1       0.303   2.074  18.810  0.00  0.00    +0.000 OA
BRANCH  14  16
ATOM     16  C   UNL     1       0.803   3.993  20.222  0.00  0.00    +0.000 C 
BRANCH  16  18
ATOM     17  C   UNL     1       1.923   2.476  21.913  0.00  0.00    +0.000 C 
ATOM     18  C   UNL     1       2.068   3.707  21.033  0.00  0.00    +0.000 C 
ENDBRANCH  16  18
ENDBRANCH  14  16
ENDBRANCH  13  14
ENDBRANCH  12  13
ENDBRANCH  11  12
ENDBRANCH   5  11
ENDBRANCH   1  10
BRANCH   3  19
ATOM     19  C   UNL     1       2.363   7.761  18.681  0.00  0.00    +0.000 A 
ATOM     20  C   UNL     1       1.775   8.976  18.318  0.00  0.00    +0.000 A 
ATOM     21  C   UNL     1       0.970   9.685  19.211  0.00  0.00    +0.000 A 
ATOM     22  C   UNL     1       0.734   9.186  20.494  0.00  0.00    +0.000 A 
ATOM     23  C   UNL     1       1.321   7.966  20.863  0.00  0.00    +0.000 A 
ATOM     24  C   UNL     1       2.117   7.250  19.956  0.00  0.00    +0.000 A 
BRANCH  22  25
ATOM     25  C   UNL     1      -0.138   9.891  21.477  0.00  0.00    +0.000 C 
ATOM     26  N   UNL     1      -0.515  11.178  21.208  0.00  0.00    +0.000 N 
ATOM     27  O   UNL     1      -0.527   9.340  22.498  0.00  0.00    +0.000 OA
ATOM     28  H   UNL     1      -0.275  11.696  20.378  0.00  0.00    +0.000 HD
ATOM     29  H   UNL     1      -1.137  11.621  21.872  0.00  0.00    +0.000 HD
ENDBRANCH  22  25
ENDBRANCH   3  19
TORSDOF 9
ENDMDL
MODEL 4
REMARK VINA RESULT:      -6.7      2.143      4.430
REMARK  Name = 
REMARK  10 active torsions:
REMARK  status: ('A' for Active; 'I' for Inactive)
REMARK    1  A    between atoms: C_1  and  C_2
REMARK    2  A    between atoms: C_2  and  C_3
REMARK    3  A    between atoms: C_3  and  C_4
REMARK    4  A    between atoms: C_4  and  O_6
REMARK    5  A    between atoms: O_6  and  C_7
REMARK    6  A    between atoms: C_7  and  S_8
REMARK    7  A    between atoms: S_8  and  C_9
REMARK    8  A    between atoms: C_14  and  C_15
REMARK    9  A    between atoms: N_17  and  C_18
REMARK   10  A    between atoms: C_21  and  C_22
REMARK                            x       y       z     vdW  Elec       q    Type
REMARK                         _______ _______ _______ _____ _____    ______ ____
ROOT
ATOM      1  C   UNL     1       2.768   6.522  18.484  0.00  0.00    +0.000 C 
ATOM      2  O   UNL     1       3.362   7.354  17.799  0.00  0.00    +0.000 OA
ATOM      3  N   UNL     1       1.912   6.812  19.533  0.00  0.00    +0.000 N 
ATOM      4  H   UNL     1       1.558   6.043  20.093  0.00  0.00    +0.000 HD
ENDROOT
BRANCH   1  10
ATOM      5  C   UNL     1       4.365   4.494  18.356  0.00  0.00    +0.000 A 
ATOM      6  C   UNL     1       4.473   3.110  18.151  0.00  0.00    +0.000 A 
ATOM      7  C   UNL     1       3.360   2.328  17.820  0.00  0.00    +0.000 A 
ATOM      8  C   UNL     1       2.108   2.916  17.701  0.00  0.00    +0.000 A 
ATOM      9  C   UNL     1       1.976   4.285  17.901  0.00  0.00    +0.000 A 
ATOM     10  C   UNL     1       3.092   5.088  18.233  0.00  0.00    +0.000 A 
BRANCH   5  11
ATOM     11  S   UNL     1       5.803   5.360  18.991  0.00  0.00    +0.000 S 
BRANCH  11  12
ATOM     12  C   UNL     1       6.590   5.987  17.461  0.00  0.00    +0.000 C 
BRANCH  12  13
ATOM     13  O   UNL     1       7.364   4.955  16.819  0.00  0.00    +0.000 OA
BRANCH  13  14
ATOM     14  C   UNL     1       7.200   4.885  15.471  0.00  0.00    +0.000 C 
ATOM     15  O   UNL     1       7.785   5.599  14.659  0.00  0.00    +0.000 OA
BRANCH  14  16
ATOM     16  C   UNL     1       6.175   3.828  15.106  0.00  0.00    +0.000 C 
BRANCH  16  18
ATOM     17  C   UNL     1       6.118   3.379  12.614  0.00  0.00    +0.000 C 
ATOM     18  C   UNL     1       5.509   4.157  13.768  0.00  0.00    +0.000 C 
ENDBRANCH  16  18
ENDBRANCH  14  16
ENDBRANCH  13  14
ENDBRANCH  12  13
ENDBRANCH  11  12
ENDBRANCH   5  11
ENDBRANCH   1  10
BRANCH   3  19
ATOM     19  C   UNL     1       1.546   8.110  19.948  0.00  0.00    +0.000 A 
ATOM     20  C   UNL     1       1.341   8.434  21.292  0.00  0.00    +0.000 A 
ATOM     21  C   UNL     1       0.959   9.720  21.675  0.00  0.00    +0.000 A 
ATOM     22  C   UNL     1       0.777  10.717  20.712  0.00  0.00    +0.000 A 
ATOM     23  C   UNL     1       0.983  10.397  19.362  0.00  0.00    +0.000 A 
ATOM     24  C   UNL     1       1.382   9.106  18.983  0.00  0.00    +0.000 A 
BRANCH  22  25
ATOM     25  C   UNL     1       0.395  12.112  21.071  0.00  0.00    +0.000 C 
ATOM     26  N   UNL     1       0.327  13.046  20.073  0.00  0.00    +0.000 N 
ATOM     27  O   UNL     1       0.131  12.428  22.224  0.00  0.00    +0.000 OA
ATOM     28  H   UNL     1       0.489  12.869  19.095  0.00  0.00    +0.000 HD
ATOM     29  H   UNL     1       0.028  13.976  20.337  0.00  0.00    +0.000 HD
ENDBRANCH  22  25
ENDBRANCH   3  19
TORSDOF 9
ENDMDL
MODEL 5
REMARK VINA RESULT:      -6.7      2.589      5.172
REMARK  Name = 
REMARK  10 active torsions:
REMARK  status: ('A' for Active; 'I' for Inactive)
REMARK    1  A    between atoms: C_1  and  C_2
REMARK    2  A    between atoms: C_2  and  C_3
REMARK    3  A    between atoms: C_3  and  C_4
REMARK    4  A    between atoms: C_4  and  O_6
REMARK    5  A    between atoms: O_6  and  C_7
REMARK    6  A    between atoms: C_7  and  S_8
REMARK    7  A    between atoms: S_8  and  C_9
REMARK    8  A    between atoms: C_14  and  C_15
REMARK    9  A    between atoms: N_17  and  C_18
REMARK   10  A    between atoms: C_21  and  C_22
REMARK                            x       y       z     vdW  Elec       q    Type
REMARK                         _______ _______ _______ _____ _____    ______ ____
ROOT
ATOM      1  C   UNL     1       2.281   5.640  19.177  0.00  0.00    +0.000 C 
ATOM      2  O   UNL     1       1.972   5.646  17.987  0.00  0.00    +0.000 OA
ATOM      3  N   UNL     1       2.273   6.745  20.012  0.00  0.00    +0.000 N 
ATOM      4  H   UNL     1       2.646   6.643  20.951  0.00  0.00    +0.000 HD
ENDROOT
BRANCH   1  10
ATOM      5  C   UNL     1       3.936   3.657  19.241  0.00  0.00    +0.000 A 
ATOM      6  C   UNL     1       4.345   2.504  19.930  0.00  0.00    +0.000 A 
ATOM      7  C   UNL     1       3.664   2.048  21.065  0.00  0.00    +0.000 A 
ATOM      8  C   UNL     1       2.564   2.747  21.543  0.00  0.00    +0.000 A 
ATOM      9  C   UNL     1       2.141   3.890  20.877  0.00  0.00    +0.000 A 
ATOM     10  C   UNL     1       2.818   4.363  19.728  0.00  0.00    +0.000 A 
BRANCH   5  11
ATOM     11  S   UNL     1       5.005   4.275  17.939  0.00  0.00    +0.000 S 
BRANCH  11  12
ATOM     12  C   UNL     1       6.318   5.133  18.883  0.00  0.00    +0.000 C 
BRANCH  12  13
ATOM     13  O   UNL     1       7.405   5.521  18.021  0.00  0.00    +0.000 OA
BRANCH  13  14
ATOM     14  C   UNL     1       7.361   6.815  17.606  0.00  0.00    +0.000 C 
ATOM     15  O   UNL     1       6.707   7.219  16.648  0.00  0.00    +0.000 OA
BRANCH  14  16
ATOM     16  C   UNL     1       8.256   7.688  18.467  0.00  0.00    +0.000 C 
BRANCH  16  18
ATOM     17  C   UNL     1       9.033  10.064  18.872  0.00  0.00    +0.000 C 
ATOM     18  C   UNL     1       8.272   9.127  17.949  0.00  0.00    +0.000 C 
ENDBRANCH  16  18
ENDBRANCH  14  16
ENDBRANCH  13  14
ENDBRANCH  12  13
ENDBRANCH  11  12
ENDBRANCH   5  11
ENDBRANCH   1  10
BRANCH   3  19
ATOM     19  C   UNL     1       1.859   8.041  19.640  0.00  0.00    +0.000 A 
ATOM     20  C   UNL     1       2.152   8.587  18.387  0.00  0.00    +0.000 A 
ATOM     21  C   UNL     1       1.748   9.880  18.050  0.00  0.00    +0.000 A 
ATOM     22  C   UNL     1       1.037  10.657  18.967  0.00  0.00    +0.000 A 
ATOM     23  C   UNL     1       0.739  10.114  20.225  0.00  0.00    +0.000 A 
ATOM     24  C   UNL     1       1.134   8.807  20.554  0.00  0.00    +0.000 A 
BRANCH  22  25
ATOM     25  C   UNL     1       0.561  12.034  18.648  0.00  0.00    +0.000 C 
ATOM     26  N   UNL     1      -0.604  12.174  17.946  0.00  0.00    +0.000 N 
ATOM     27  O   UNL     1       1.181  13.025  19.011  0.00  0.00    +0.000 OA
ATOM     28  H   UNL     1      -1.198  11.420  17.640  0.00  0.00    +0.000 HD
ATOM     29  H   UNL     1      -0.925  13.119  17.775  0.00  0.00    +0.000 HD
ENDBRANCH  22  25
ENDBRANCH   3  19
TORSDOF 9
ENDMDL
MODEL 6
REMARK VINA RESULT:      -6.7      2.346      4.862
REMARK  Name = 
REMARK  10 active torsions:
REMARK  status: ('A' for Active; 'I' for Inactive)
REMARK    1  A    between atoms: C_1  and  C_2
REMARK    2  A    between atoms: C_2  and  C_3
REMARK    3  A    between atoms: C_3  and  C_4
REMARK    4  A    between atoms: C_4  and  O_6
REMARK    5  A    between atoms: O_6  and  C_7
REMARK    6  A    between atoms: C_7  and  S_8
REMARK    7  A    between atoms: S_8  and  C_9
REMARK    8  A    between atoms: C_14  and  C_15
REMARK    9  A    between atoms: N_17  and  C_18
REMARK   10  A    between atoms: C_21  and  C_22
REMARK                            x       y       z     vdW  Elec       q    Type
REMARK                         _______ _______ _______ _____ _____    ______ ____
ROOT
ATOM      1  C   UNL     1       2.473   6.000  18.987  0.00  0.00    +0.000 C 
ATOM      2  O   UNL     1       2.244   6.159  17.788  0.00  0.00    +0.000 OA
ATOM      3  N   UNL     1       2.272   6.949  19.974  0.00  0.00    +0.000 N 
ATOM      4  H   UNL     1       2.593   6.743  20.915  0.00  0.00    +0.000 HD
ENDROOT
BRANCH   1  10
ATOM      5  C   UNL     1       4.400   4.278  18.962  0.00  0.00    +0.000 A 
ATOM      6  C   UNL     1       4.894   3.077  19.494  0.00  0.00    +0.000 A 
ATOM      7  C   UNL     1       4.152   2.321  20.410  0.00  0.00    +0.000 A 
ATOM      8  C   UNL     1       2.902   2.760  20.824  0.00  0.00    +0.000 A 
ATOM      9  C   UNL     1       2.393   3.947  20.310  0.00  0.00    +0.000 A 
ATOM     10  C   UNL     1       3.130   4.721  19.383  0.00  0.00    +0.000 A 
BRANCH   5  11
ATOM     11  S   UNL     1       5.518   5.275  17.973  0.00  0.00    +0.000 S 
BRANCH  11  12
ATOM     12  C   UNL     1       6.091   4.084  16.707  0.00  0.00    +0.000 C 
BRANCH  12  13
ATOM     13  O   UNL     1       7.282   4.561  16.051  0.00  0.00    +0.000 OA
BRANCH  13  14
ATOM     14  C   UNL     1       7.132   4.810  14.722  0.00  0.00    +0.000 C 
ATOM     15  O   UNL     1       7.821   5.598  14.078  0.00  0.00    +0.000 OA
BRANCH  14  16
ATOM     16  C   UNL     1       5.980   4.006  14.149  0.00  0.00    +0.000 C 
BRANCH  16  18
ATOM     17  C   UNL     1       4.996   3.262  11.937  0.00  0.00    +0.000 C 
ATOM     18  C   UNL     1       6.265   3.606  12.701  0.00  0.00    +0.000 C 
ENDBRANCH  16  18
ENDBRANCH  14  16
ENDBRANCH  13  14
ENDBRANCH  12  13
ENDBRANCH  11  12
ENDBRANCH   5  11
ENDBRANCH   1  10
BRANCH   3  19
ATOM     19  C   UNL     1       1.722   8.232  19.767  0.00  0.00    +0.000 A 
ATOM     20  C   UNL     1       1.891   8.931  18.568  0.00  0.00    +0.000 A 
ATOM     21  C   UNL     1       1.355  10.209  18.395  0.00  0.00    +0.000 A 
ATOM     22  C   UNL     1       0.631  10.814  19.426  0.00  0.00    +0.000 A 
ATOM     23  C   UNL     1       0.458  10.116  20.630  0.00  0.00    +0.000 A 
ATOM     24  C   UNL     1       0.986   8.826  20.793  0.00  0.00    +0.000 A 
BRANCH  22  25
ATOM     25  C   UNL     1       0.017  12.165  19.283  0.00  0.00    +0.000 C 
ATOM     26  N   UNL     1      -0.296  12.609  18.028  0.00  0.00    +0.000 N 
ATOM     27  O   UNL     1      -0.222  12.866  20.257  0.00  0.00    +0.000 OA
ATOM     28  H   UNL     1      -0.171  12.088  17.175  0.00  0.00    +0.000 HD
ATOM     29  H   UNL     1      -0.746  13.513  17.961  0.00  0.00    +0.000 HD
ENDBRANCH  22  25
ENDBRANCH   3  19
TORSDOF 9
ENDMDL
MODEL 7
REMARK VINA RESULT:      -6.6      1.339      1.975
REMARK  Name = 
REMARK  10 active torsions:
REMARK  status: ('A' for Active; 'I' for Inactive)
REMARK    1  A    between atoms: C_1  and  C_2
REMARK    2  A    between atoms: C_2  and  C_3
REMARK    3  A    between atoms: C_3  and  C_4
REMARK    4  A    between atoms: C_4  and  O_6
REMARK    5  A    between atoms: O_6  and  C_7
REMARK    6  A    between atoms: C_7  and  S_8
REMARK    7  A    between atoms: S_8  and  C_9
REMARK    8  A    between atoms: C_14  and  C_15
REMARK    9  A    between atoms: N_17  and  C_18
REMARK   10  A    between atoms: C_21  and  C_22
REMARK                            x       y       z     vdW  Elec       q    Type
REMARK                         _______ _______ _______ _____ _____    ______ ____
ROOT
ATOM      1  C   UNL     1       4.531   6.131  17.865  0.00  0.00    +0.000 C 
ATOM      2  O   UNL     1       5.158   6.242  18.918  0.00  0.00    +0.000 OA
ATOM      3  N   UNL     1       3.267   6.644  17.627  0.00  0.00    +0.000 N 
ATOM      4  H   UNL     1       2.804   6.403  16.757  0.00  0.00    +0.000 HD
ENDROOT
BRANCH   1  10
ATOM      5  C   UNL     1       4.909   3.897  16.622  0.00  0.00    +0.000 A 
ATOM      6  C   UNL     1       5.511   3.265  15.524  0.00  0.00    +0.000 A 
ATOM      7  C   UNL     1       6.332   3.966  14.632  0.00  0.00    +0.000 A 
ATOM      8  C   UNL     1       6.555   5.324  14.815  0.00  0.00    +0.000 A 
ATOM      9  C   UNL     1       5.968   5.972  15.895  0.00  0.00    +0.000 A 
ATOM     10  C   UNL     1       5.139   5.276  16.806  0.00  0.00    +0.000 A 
BRANCH   5  11
ATOM     11  S   UNL     1       3.705   2.961  17.569  0.00  0.00    +0.000 S 
BRANCH  11  12
ATOM     12  C   UNL     1       4.398   3.029  19.262  0.00  0.00    +0.000 C 
BRANCH  12  13
ATOM     13  O   UNL     1       3.480   3.668  20.170  0.00  0.00    +0.000 OA
BRANCH  13  14
ATOM     14  C   UNL     1       2.946   2.839  21.107  0.00  0.00    +0.000 C 
ATOM     15  O   UNL     1       3.571   1.964  21.702  0.00  0.00    +0.000 OA
BRANCH  14  16
ATOM     16  C   UNL     1       1.467   3.121  21.297  0.00  0.00    +0.000 C 
BRANCH  16  18
ATOM     17  C   UNL     1       0.514   2.431  19.054  0.00  0.00    +0.000 C 
ATOM     18  C   UNL     1       0.832   3.589  19.987  0.00  0.00    +0.000 C 
ENDBRANCH  16  18
ENDBRANCH  14  16
ENDBRANCH  13  14
ENDBRANCH  12  13
ENDBRANCH  11  12
ENDBRANCH   5  11
ENDBRANCH   1  10
BRANCH   3  19
ATOM     19  C   UNL     1       2.520   7.419  18.540  0.00  0.00    +0.000 A 
ATOM     20  C   UNL     1       2.249   6.985  19.840  0.00  0.00    +0.000 A 
ATOM     21  C   UNL     1       1.490   7.761  20.718  0.00  0.00    +0.000 A 
ATOM     22  C   UNL     1       0.987   8.998  20.308  0.00  0.00    +0.000 A 
ATOM     23  C   UNL     1       1.258   9.439  19.005  0.00  0.00    +0.000 A 
ATOM     24  C   UNL     1       2.034   8.662  18.131  0.00  0.00    +0.000 A 
BRANCH  22  25
ATOM     25  C   UNL     1       0.193   9.877  21.214  0.00  0.00    +0.000 C 
ATOM     26  N   UNL     1      -0.290   9.346  22.378  0.00  0.00    +0.000 N 
ATOM     27  O   UNL     1      -0.018  11.052  20.943  0.00  0.00    +0.000 OA
ATOM     28  H   UNL     1      -0.135   8.404  22.700  0.00  0.00    +0.000 HD
ATOM     29  H   UNL     1      -0.794   9.972  22.993  0.00  0.00    +0.000 HD
ENDBRANCH  22  25
ENDBRANCH   3  19
TORSDOF 9
ENDMDL
MODEL 8
REMARK VINA RESULT:      -6.6      0.811      1.270
REMARK  Name = 
REMARK  10 active torsions:
REMARK  status: ('A' for Active; 'I' for Inactive)
REMARK    1  A    between atoms: C_1  and  C_2
REMARK    2  A    between atoms: C_2  and  C_3
REMARK    3  A    between atoms: C_3  and  C_4
REMARK    4  A    between atoms: C_4  and  O_6
REMARK    5  A    between atoms: O_6  and  C_7
REMARK    6  A    between atoms: C_7  and  S_8
REMARK    7  A    between atoms: S_8  and  C_9
REMARK    8  A    between atoms: C_14  and  C_15
REMARK    9  A    between atoms: N_17  and  C_18
REMARK   10  A    between atoms: C_21  and  C_22
REMARK                            x       y       z     vdW  Elec       q    Type
REMARK                         _______ _______ _______ _____ _____    ______ ____
ROOT
ATOM      1  C   UNL     1       4.484   6.742  17.327  0.00  0.00    +0.000 C 
ATOM      2  O   UNL     1       5.256   7.554  17.833  0.00  0.00    +0.000 OA
ATOM      3  N   UNL     1       3.117   6.692  17.545  0.00  0.00    +0.000 N 
ATOM      4  H   UNL     1       2.594   5.915  17.154  0.00  0.00    +0.000 HD
ENDROOT
BRANCH   1  10
ATOM      5  C   UNL     1       5.248   4.311  16.896  0.00  0.00    +0.000 A 
ATOM      6  C   UNL     1       5.777   3.406  15.963  0.00  0.00    +0.000 A 
ATOM      7  C   UNL     1       6.156   3.814  14.679  0.00  0.00    +0.000 A 
ATOM      8  C   UNL     1       5.999   5.139  14.295  0.00  0.00    +0.000 A 
ATOM      9  C   UNL     1       5.477   6.053  15.203  0.00  0.00    +0.000 A 
ATOM     10  C   UNL     1       5.091   5.657  16.505  0.00  0.00    +0.000 A 
BRANCH   5  11
ATOM     11  S   UNL     1       4.592   3.645  18.428  0.00  0.00    +0.000 S 
BRANCH  11  12
ATOM     12  C   UNL     1       3.300   2.492  17.833  0.00  0.00    +0.000 C 
BRANCH  12  13
ATOM     13  O   UNL     1       2.478   2.032  18.922  0.00  0.00    +0.000 OA
BRANCH  13  14
ATOM     14  C   UNL     1       1.219   2.545  18.934  0.00  0.00    +0.000 C 
ATOM     15  O   UNL     1       0.218   1.949  18.544  0.00  0.00    +0.000 OA
BRANCH  14  16
ATOM     16  C   UNL     1       1.222   3.967  19.464  0.00  0.00    +0.000 C 
BRANCH  16  18
ATOM     17  C   UNL     1       1.457   2.594  21.579  0.00  0.00    +0.000 C 
ATOM     18  C   UNL     1       1.496   3.986  20.969  0.00  0.00    +0.000 C 
ENDBRANCH  16  18
ENDBRANCH  14  16
ENDBRANCH  13  14
ENDBRANCH  12  13
ENDBRANCH  11  12
ENDBRANCH   5  11
ENDBRANCH   1  10
BRANCH   3  19
ATOM     19  C   UNL     1       2.389   7.598  18.344  0.00  0.00    +0.000 A 
ATOM     20  C   UNL     1       2.228   7.417  19.721  0.00  0.00    +0.000 A 
ATOM     21  C   UNL     1       1.485   8.317  20.486  0.00  0.00    +0.000 A 
ATOM     22  C   UNL     1       0.887   9.427  19.884  0.00  0.00    +0.000 A 
ATOM     23  C   UNL     1       1.046   9.614  18.503  0.00  0.00    +0.000 A 
ATOM     24  C   UNL     1       1.806   8.714  17.741  0.00  0.00    +0.000 A 
BRANCH  22  25
ATOM     25  C   UNL     1       0.105  10.431  20.660  0.00  0.00    +0.000 C 
ATOM     26  N   UNL     1       0.257  10.466  22.019  0.00  0.00    +0.000 N 
ATOM     27  O   UNL     1      -0.649  11.222  20.108  0.00  0.00    +0.000 OA
ATOM     28  H   UNL     1       0.880   9.882  22.554  0.00  0.00    +0.000 HD
ATOM     29  H   UNL     1      -0.256  11.181  22.519  0.00  0.00    +0.000 HD
ENDBRANCH  22  25
ENDBRANCH   3  19
TORSDOF 9
ENDMDL
MODEL 9
REMARK VINA RESULT:      -6.6      1.533      1.858
REMARK  Name = 
REMARK  10 active torsions:
REMARK  status: ('A' for Active; 'I' for Inactive)
REMARK    1  A    between atoms: C_1  and  C_2
REMARK    2  A    between atoms: C_2  and  C_3
REMARK    3  A    between atoms: C_3  and  C_4
REMARK    4  A    between atoms: C_4  and  O_6
REMARK    5  A    between atoms: O_6  and  C_7
REMARK    6  A    between atoms: C_7  and  S_8
REMARK    7  A    between atoms: S_8  and  C_9
REMARK    8  A    between atoms: C_14  and  C_15
REMARK    9  A    between atoms: N_17  and  C_18
REMARK   10  A    between atoms: C_21  and  C_22
REMARK                            x       y       z     vdW  Elec       q    Type
REMARK                         _______ _______ _______ _____ _____    ______ ____
ROOT
ATOM      1  C   UNL     1       3.972   6.280  18.295  0.00  0.00    +0.000 C 
ATOM      2  O   UNL     1       3.934   5.894  19.463  0.00  0.00    +0.000 OA
ATOM      3  N   UNL     1       3.222   7.317  17.769  0.00  0.00    +0.000 N 
ATOM      4  H   UNL     1       3.259   7.481  16.768  0.00  0.00    +0.000 HD
ENDROOT
BRANCH   1  10
ATOM      5  C   UNL     1       4.460   4.248  16.775  0.00  0.00    +0.000 A 
ATOM      6  C   UNL     1       5.343   3.675  15.847  0.00  0.00    +0.000 A 
ATOM      7  C   UNL     1       6.548   4.297  15.500  0.00  0.00    +0.000 A 
ATOM      8  C   UNL     1       6.889   5.518  16.067  0.00  0.00    +0.000 A 
ATOM      9  C   UNL     1       6.030   6.104  16.989  0.00  0.00    +0.000 A 
ATOM     10  C   UNL     1       4.810   5.486  17.351  0.00  0.00    +0.000 A 
BRANCH   5  11
ATOM     11  S   UNL     1       2.850   3.482  16.979  0.00  0.00    +0.000 S 
BRANCH  11  12
ATOM     12  C   UNL     1       3.215   2.102  18.127  0.00  0.00    +0.000 C 
BRANCH  12  13
ATOM     13  O   UNL     1       4.295   2.442  19.016  0.00  0.00    +0.000 OA
BRANCH  13  14
ATOM     14  C   UNL     1       4.033   2.221  20.332  0.00  0.00    +0.000 C 
ATOM     15  O   UNL     1       4.888   1.998  21.186  0.00  0.00    +0.000 OA
BRANCH  14  16
ATOM     16  C   UNL     1       2.539   2.255  20.598  0.00  0.00    +0.000 C 
BRANCH  16  18
ATOM     17  C   UNL     1       1.113   4.348  20.623  0.00  0.00    +0.000 C 
ATOM     18  C   UNL     1       2.153   3.522  21.363  0.00  0.00    +0.000 C 
ENDBRANCH  16  18
ENDBRANCH  14  16
ENDBRANCH  13  14
ENDBRANCH  12  13
ENDBRANCH  11  12
ENDBRANCH   5  11
ENDBRANCH   1  10
BRANCH   3  19
ATOM     19  C   UNL     1       2.331   8.129  18.504  0.00  0.00    +0.000 A 
ATOM     20  C   UNL     1       1.762   9.287  17.967  0.00  0.00    +0.000 A 
ATOM     21  C   UNL     1       0.900  10.085  18.721  0.00  0.00    +0.000 A 
ATOM     22  C   UNL     1       0.587   9.734  20.037  0.00  0.00    +0.000 A 
ATOM     23  C   UNL     1       1.154   8.572  20.579  0.00  0.00    +0.000 A 
ATOM     24  C   UNL     1       2.008   7.765  19.812  0.00  0.00    +0.000 A 
BRANCH  22  25
ATOM     25  C   UNL     1      -0.348  10.538  20.876  0.00  0.00    +0.000 C 
ATOM     26  N   UNL     1      -0.155  10.556  22.230  0.00  0.00    +0.000 N 
ATOM     27  O   UNL     1      -1.261  11.183  20.379  0.00  0.00    +0.000 OA
ATOM     28  H   UNL     1       0.589  10.088  22.722  0.00  0.00    +0.000 HD
ATOM     29  H   UNL     1      -0.779  11.138  22.774  0.00  0.00    +0.000 HD
ENDBRANCH  22  25
ENDBRANCH   3  19
TORSDOF 9
ENDMDL
