MODEL 1
REMARK VINA RESULT:      -5.9      0.000      0.000
REMARK  Name = 
REMARK  18 active torsions:
REMARK  status: ('A' for Active; 'I' for Inactive)
REMARK    1  A    between atoms: C_1  and  C_2
REMARK    2  A    between atoms: C_2  and  C_3
REMARK    3  A    between atoms: C_3  and  C_4
REMARK    4  A    between atoms: C_4  and  C_5
REMARK    5  A    between atoms: C_5  and  C_6
REMARK    6  A    between atoms: C_6  and  C_7
REMARK    7  A    between atoms: C_7  and  C_8
REMARK    8  A    between atoms: C_8  and  C_9
REMARK    9  A    between atoms: C_10  and  C_11
REMARK   10  A    between atoms: C_11  and  C_12
REMARK   11  A    between atoms: C_12  and  C_13
REMARK   12  A    between atoms: C_13  and  C_14
REMARK   13  A    between atoms: C_14  and  C_15
REMARK   14  A    between atoms: C_15  and  C_16
REMARK   15  A    between atoms: C_16  and  C_17
REMARK   16  A    between atoms: C_17  and  S_18
REMARK   17  A    between atoms: S_18  and  C_19
REMARK   18  A    between atoms: C_22  and  C_23
REMARK                            x       y       z     vdW  Elec       q    Type
REMARK                         _______ _______ _______ _____ _____    ______ ____
ROOT
ATOM      1  C   UNL     1       5.951   6.979  16.835  0.00  0.00    +0.000 C 
ENDROOT
BRANCH   1   2
ATOM      2  C   UNL     1       7.467   7.083  16.934  0.00  0.00    +0.000 C 
BRANCH   2   3
ATOM      3  C   UNL     1       7.845   7.839  18.208  0.00  0.00    +0.000 C 
BRANCH   3   4
ATOM      4  C   UNL     1       8.224   9.278  17.892  0.00  0.00    +0.000 C 
BRANCH   4   5
ATOM      5  S   UNL     1       9.163   9.971  19.283  0.00  0.00    +0.000 S 
BRANCH   5   6
ATOM      6  C   UNL     1       9.639  11.489  18.576  0.00  0.00    +0.000 A 
ATOM      7  N   UNL     1      10.541  11.600  17.621  0.00  0.00    +0.000 NA
ATOM      8  C   UNL     1      10.550  12.943  17.335  0.00  0.00    +0.000 A 
ATOM      9  C   UNL     1       9.649  13.608  18.133  0.00  0.00    +0.000 A 
ATOM     10  O   UNL     1       9.071  12.676  18.953  0.00  0.00    +0.000 OA
BRANCH   9  11
ATOM     11  C   UNL     1       9.336  15.047  18.090  0.00  0.00    +0.000 A 
ATOM     12  C   UNL     1       8.088  15.596  18.268  0.00  0.00    +0.000 A 
ATOM     13  O   UNL     1       8.209  16.947  18.111  0.00  0.00    +0.000 OA
ATOM     14  C   UNL     1       9.531  17.129  17.847  0.00  0.00    +0.000 A 
ATOM     15  N   UNL     1      10.257  16.033  17.836  0.00  0.00    +0.000 NA
ENDBRANCH   9  11
ENDBRANCH   5   6
ENDBRANCH   4   5
ENDBRANCH   3   4
ENDBRANCH   2   3
ENDBRANCH   1   2
BRANCH   1  16
ATOM     16  C   UNL     1       5.510   5.992  15.758  0.00  0.00    +0.000 C 
BRANCH  16  17
ATOM     17  C   UNL     1       5.800   4.542  16.159  0.00  0.00    +0.000 C 
BRANCH  17  18
ATOM     18  C   UNL     1       5.160   4.103  17.479  0.00  0.00    +0.000 C 
BRANCH  18  20
ATOM     19  C   UNL     1       3.296   2.559  18.196  0.00  0.00    +0.000 C 
ATOM     20  C   UNL     1       3.868   3.354  17.279  0.00  0.00    +0.000 C 
BRANCH  19  21
ATOM     21  C   UNL     1       3.878   2.346  19.558  0.00  0.00    +0.000 C 
BRANCH  21  22
ATOM     22  C   UNL     1       2.910   2.686  20.681  0.00  0.00    +0.000 C 
BRANCH  22  23
ATOM     23  C   UNL     1       1.492   2.737  20.121  0.00  0.00    +0.000 C 
BRANCH  23  24
ATOM     24  C   UNL     1       0.939   4.154  20.167  0.00  0.00    +0.000 C 
BRANCH  24  25
ATOM     25  C   UNL     1       1.815   5.047  21.039  0.00  0.00    +0.000 C 
BRANCH  25  26
ATOM     26  C   UNL     1       1.985   6.417  20.389  0.00  0.00    +0.000 C 
BRANCH  26  28
ATOM     27  C   UNL     1       2.456   7.228  18.065  0.00  0.00    +0.000 C 
ATOM     28  C   UNL     1       2.947   6.356  19.207  0.00  0.00    +0.000 C 
ENDBRANCH  26  28
ENDBRANCH  25  26
ENDBRANCH  24  25
ENDBRANCH  23  24
ENDBRANCH  22  23
ENDBRANCH  21  22
ENDBRANCH  19  21
ENDBRANCH  18  20
ENDBRANCH  17  18
ENDBRANCH  16  17
ENDBRANCH   1  16
TORSDOF 17
ENDMDL
MODEL 2
REMARK VINA RESULT:      -5.8      5.737      7.936
REMARK  Name = 
REMARK  18 active torsions:
REMARK  status: ('A' for Active; 'I' for Inactive)
REMARK    1  A    between atoms: C_1  and  C_2
REMARK    2  A    between atoms: C_2  and  C_3
REMARK    3  A    between atoms: C_3  and  C_4
REMARK    4  A    between atoms: C_4  and  C_5
REMARK    5  A    between atoms: C_5  and  C_6
REMARK    6  A    between atoms: C_6  and  C_7
REMARK    7  A    between atoms: C_7  and  C_8
REMARK    8  A    between atoms: C_8  and  C_9
REMARK    9  A    between atoms: C_10  and  C_11
REMARK   10  A    between atoms: C_11  and  C_12
REMARK   11  A    between atoms: C_12  and  C_13
REMARK   12  A    between atoms: C_13  and  C_14
REMARK   13  A    between atoms: C_14  and  C_15
REMARK   14  A    between atoms: C_15  and  C_16
REMARK   15  A    between atoms: C_16  and  C_17
REMARK   16  A    between atoms: C_17  and  S_18
REMARK   17  A    between atoms: S_18  and  C_19
REMARK   18  A    between atoms: C_22  and  C_23
REMARK                            x       y       z     vdW  Elec       q    Type
REMARK                         _______ _______ _______ _____ _____    ______ ____
ROOT
ATOM      1  C   UNL     1       1.192   2.171  19.045  0.00  0.00    +0.000 C 
ENDROOT
BRANCH   1   2
ATOM      2  C   UNL     1       1.779   2.959  20.207  0.00  0.00    +0.000 C 
BRANCH   2   3
ATOM      3  C   UNL     1       1.009   4.269  20.376  0.00  0.00    +0.000 C 
BRANCH   3   4
ATOM      4  C   UNL     1       1.919   5.370  20.901  0.00  0.00    +0.000 C 
BRANCH   4   5
ATOM      5  S   UNL     1       2.251   6.560  19.570  0.00  0.00    +0.000 S 
BRANCH   5   6
ATOM      6  C   UNL     1       1.603   7.998  20.307  0.00  0.00    +0.000 A 
ATOM      7  N   UNL     1       1.280   8.084  21.582  0.00  0.00    +0.000 NA
ATOM      8  C   UNL     1       0.878   9.389  21.729  0.00  0.00    +0.000 A 
ATOM      9  C   UNL     1       0.970  10.056  20.530  0.00  0.00    +0.000 A 
ATOM     10  O   UNL     1       1.419   9.156  19.600  0.00  0.00    +0.000 OA
BRANCH   9  11
ATOM     11  C   UNL     1       0.677  11.480  20.294  0.00  0.00    +0.000 A 
ATOM     12  C   UNL     1       0.079  11.995  19.168  0.00  0.00    +0.000 A 
ATOM     13  O   UNL     1       0.026  13.352  19.316  0.00  0.00    +0.000 OA
ATOM     14  C   UNL     1       0.598  13.571  20.531  0.00  0.00    +0.000 A 
ATOM     15  N   UNL     1       0.993  12.491  21.168  0.00  0.00    +0.000 NA
ENDBRANCH   9  11
ENDBRANCH   5   6
ENDBRANCH   4   5
ENDBRANCH   3   4
ENDBRANCH   2   3
ENDBRANCH   1   2
BRANCH   1  16
ATOM     16  C   UNL     1       2.169   2.049  17.879  0.00  0.00    +0.000 C 
BRANCH  16  17
ATOM     17  C   UNL     1       2.843   3.385  17.556  0.00  0.00    +0.000 C 
BRANCH  17  18
ATOM     18  C   UNL     1       4.369   3.381  17.689  0.00  0.00    +0.000 C 
BRANCH  18  20
ATOM     19  C   UNL     1       5.698   4.942  19.162  0.00  0.00    +0.000 C 
ATOM     20  C   UNL     1       4.839   3.922  19.014  0.00  0.00    +0.000 C 
BRANCH  19  21
ATOM     21  C   UNL     1       6.274   5.689  17.999  0.00  0.00    +0.000 C 
BRANCH  21  22
ATOM     22  C   UNL     1       7.288   4.875  17.211  0.00  0.00    +0.000 C 
BRANCH  22  23
ATOM     23  C   UNL     1       7.272   5.330  15.755  0.00  0.00    +0.000 C 
BRANCH  23  24
ATOM     24  C   UNL     1       5.918   5.057  15.115  0.00  0.00    +0.000 C 
BRANCH  24  25
ATOM     25  C   UNL     1       5.921   3.714  14.395  0.00  0.00    +0.000 C 
BRANCH  25  26
ATOM     26  C   UNL     1       6.290   3.900  12.928  0.00  0.00    +0.000 C 
BRANCH  26  28
ATOM     27  C   UNL     1       5.805   1.907  11.487  0.00  0.00    +0.000 C 
ATOM     28  C   UNL     1       5.274   3.231  12.008  0.00  0.00    +0.000 C 
ENDBRANCH  26  28
ENDBRANCH  25  26
ENDBRANCH  24  25
ENDBRANCH  23  24
ENDBRANCH  22  23
ENDBRANCH  21  22
ENDBRANCH  19  21
ENDBRANCH  18  20
ENDBRANCH  17  18
ENDBRANCH  16  17
ENDBRANCH   1  16
TORSDOF 17
ENDMDL
MODEL 3
REMARK VINA RESULT:      -5.8      5.566      7.747
REMARK  Name = 
REMARK  18 active torsions:
REMARK  status: ('A' for Active; 'I' for Inactive)
REMARK    1  A    between atoms: C_1  and  C_2
REMARK    2  A    between atoms: C_2  and  C_3
REMARK    3  A    between atoms: C_3  and  C_4
REMARK    4  A    between atoms: C_4  and  C_5
REMARK    5  A    between atoms: C_5  and  C_6
REMARK    6  A    between atoms: C_6  and  C_7
REMARK    7  A    between atoms: C_7  and  C_8
REMARK    8  A    between atoms: C_8  and  C_9
REMARK    9  A    between atoms: C_10  and  C_11
REMARK   10  A    between atoms: C_11  and  C_12
REMARK   11  A    between atoms: C_12  and  C_13
REMARK   12  A    between atoms: C_13  and  C_14
REMARK   13  A    between atoms: C_14  and  C_15
REMARK   14  A    between atoms: C_15  and  C_16
REMARK   15  A    between atoms: C_16  and  C_17
REMARK   16  A    between atoms: C_17  and  S_18
REMARK   17  A    between atoms: S_18  and  C_19
REMARK   18  A    between atoms: C_22  and  C_23
REMARK                            x       y       z     vdW  Elec       q    Type
REMARK                         _______ _______ _______ _____ _____    ______ ____
ROOT
ATOM      1  C   UNL     1       0.960   4.266  20.195  0.00  0.00    +0.000 C 
ENDROOT
BRANCH   1   2
ATOM      2  C   UNL     1       1.964   5.393  20.393  0.00  0.00    +0.000 C 
BRANCH   2   3
ATOM      3  C   UNL     1       2.216   6.093  19.057  0.00  0.00    +0.000 C 
BRANCH   3   4
ATOM      4  C   UNL     1       2.469   7.579  19.263  0.00  0.00    +0.000 C 
BRANCH   4   5
ATOM      5  S   UNL     1       1.738   8.509  17.886  0.00  0.00    +0.000 S 
BRANCH   5   6
ATOM      6  C   UNL     1       1.396  10.008  18.705  0.00  0.00    +0.000 A 
ATOM      7  N   UNL     1       1.980  11.152  18.410  0.00  0.00    +0.000 NA
ATOM      8  C   UNL     1       1.372  12.054  19.248  0.00  0.00    +0.000 A 
ATOM      9  C   UNL     1       0.433  11.422  20.030  0.00  0.00    +0.000 A 
ATOM     10  O   UNL     1       0.457  10.094  19.698  0.00  0.00    +0.000 OA
BRANCH   9  11
ATOM     11  C   UNL     1      -0.459  12.059  21.014  0.00  0.00    +0.000 A 
ATOM     12  C   UNL     1      -1.832  12.092  20.941  0.00  0.00    +0.000 A 
ATOM     13  O   UNL     1      -2.282  12.809  22.013  0.00  0.00    +0.000 OA
ATOM     14  C   UNL     1      -1.145  13.164  22.669  0.00  0.00    +0.000 A 
ATOM     15  N   UNL     1      -0.027  12.733  22.129  0.00  0.00    +0.000 NA
ENDBRANCH   9  11
ENDBRANCH   5   6
ENDBRANCH   4   5
ENDBRANCH   3   4
ENDBRANCH   2   3
ENDBRANCH   1   2
BRANCH   1  16
ATOM     16  C   UNL     1       1.102   3.601  18.828  0.00  0.00    +0.000 C 
BRANCH  16  17
ATOM     17  C   UNL     1       1.526   2.135  18.948  0.00  0.00    +0.000 C 
BRANCH  17  18
ATOM     18  C   UNL     1       2.949   1.839  18.464  0.00  0.00    +0.000 C 
BRANCH  18  20
ATOM     19  C   UNL     1       4.910   3.039  19.506  0.00  0.00    +0.000 C 
ATOM     20  C   UNL     1       3.986   2.066  19.533  0.00  0.00    +0.000 C 
BRANCH  19  21
ATOM     21  C   UNL     1       4.996   4.043  18.399  0.00  0.00    +0.000 C 
BRANCH  21  22
ATOM     22  C   UNL     1       5.828   5.262  18.763  0.00  0.00    +0.000 C 
BRANCH  22  23
ATOM     23  C   UNL     1       5.690   6.310  17.663  0.00  0.00    +0.000 C 
BRANCH  23  24
ATOM     24  C   UNL     1       4.841   5.783  16.514  0.00  0.00    +0.000 C 
BRANCH  24  25
ATOM     25  C   UNL     1       5.669   5.667  15.239  0.00  0.00    +0.000 C 
BRANCH  25  26
ATOM     26  C   UNL     1       5.324   4.377  14.501  0.00  0.00    +0.000 C 
BRANCH  26  28
ATOM     27  C   UNL     1       5.860   3.232  12.337  0.00  0.00    +0.000 C 
ATOM     28  C   UNL     1       6.430   3.980  13.529  0.00  0.00    +0.000 C 
ENDBRANCH  26  28
ENDBRANCH  25  26
ENDBRANCH  24  25
ENDBRANCH  23  24
ENDBRANCH  22  23
ENDBRANCH  21  22
ENDBRANCH  19  21
ENDBRANCH  18  20
ENDBRANCH  17  18
ENDBRANCH  16  17
ENDBRANCH   1  16
TORSDOF 17
ENDMDL
MODEL 4
REMARK VINA RESULT:      -5.7      1.116      1.326
REMARK  Name = 
REMARK  18 active torsions:
REMARK  status: ('A' for Active; 'I' for Inactive)
REMARK    1  A    between atoms: C_1  and  C_2
REMARK    2  A    between atoms: C_2  and  C_3
REMARK    3  A    between atoms: C_3  and  C_4
REMARK    4  A    between atoms: C_4  and  C_5
REMARK    5  A    between atoms: C_5  and  C_6
REMARK    6  A    between atoms: C_6  and  C_7
REMARK    7  A    between atoms: C_7  and  C_8
REMARK    8  A    between atoms: C_8  and  C_9
REMARK    9  A    between atoms: C_10  and  C_11
REMARK   10  A    between atoms: C_11  and  C_12
REMARK   11  A    between atoms: C_12  and  C_13
REMARK   12  A    between atoms: C_13  and  C_14
REMARK   13  A    between atoms: C_14  and  C_15
REMARK   14  A    between atoms: C_15  and  C_16
REMARK   15  A    between atoms: C_16  and  C_17
REMARK   16  A    between atoms: C_17  and  S_18
REMARK   17  A    between atoms: S_18  and  C_19
REMARK   18  A    between atoms: C_22  and  C_23
REMARK                            x       y       z     vdW  Elec       q    Type
REMARK                         _______ _______ _______ _____ _____    ______ ____
ROOT
ATOM      1  C   UNL     1       7.527   7.055  16.899  0.00  0.00    +0.000 C 
ENDROOT
BRANCH   1   2
ATOM      2  C   UNL     1       7.266   8.247  17.809  0.00  0.00    +0.000 C 
BRANCH   2   3
ATOM      3  C   UNL     1       8.581   8.702  18.443  0.00  0.00    +0.000 C 
BRANCH   3   4
ATOM      4  C   UNL     1       8.879  10.151  18.090  0.00  0.00    +0.000 C 
BRANCH   4   5
ATOM      5  S   UNL     1       9.480  11.019  19.568  0.00  0.00    +0.000 S 
BRANCH   5   6
ATOM      6  C   UNL     1       9.846  12.567  18.860  0.00  0.00    +0.000 A 
ATOM      7  N   UNL     1      10.738  12.741  17.906  0.00  0.00    +0.000 NA
ATOM      8  C   UNL     1      10.652  14.081  17.619  0.00  0.00    +0.000 A 
ATOM      9  C   UNL     1       9.704  14.680  18.415  0.00  0.00    +0.000 A 
ATOM     10  O   UNL     1       9.193  13.710  19.235  0.00  0.00    +0.000 OA
BRANCH   9  11
ATOM     11  C   UNL     1       9.288  16.092  18.371  0.00  0.00    +0.000 A 
ATOM     12  C   UNL     1       8.006  16.551  18.564  0.00  0.00    +0.000 A 
ATOM     13  O   UNL     1       8.027  17.907  18.399  0.00  0.00    +0.000 OA
ATOM     14  C   UNL     1       9.329  18.182  18.116  0.00  0.00    +0.000 A 
ATOM     15  N   UNL     1      10.131  17.141  18.100  0.00  0.00    +0.000 NA
ENDBRANCH   9  11
ENDBRANCH   5   6
ENDBRANCH   4   5
ENDBRANCH   3   4
ENDBRANCH   2   3
ENDBRANCH   1   2
BRANCH   1  16
ATOM     16  C   UNL     1       7.381   5.725  17.635  0.00  0.00    +0.000 C 
BRANCH  16  17
ATOM     17  C   UNL     1       6.119   5.688  18.501  0.00  0.00    +0.000 C 
BRANCH  17  18
ATOM     18  C   UNL     1       5.532   4.289  18.716  0.00  0.00    +0.000 C 
BRANCH  18  20
ATOM     19  C   UNL     1       3.633   2.964  17.711  0.00  0.00    +0.000 C 
ATOM     20  C   UNL     1       4.624   3.860  17.593  0.00  0.00    +0.000 C 
BRANCH  19  21
ATOM     21  C   UNL     1       3.295   2.298  19.009  0.00  0.00    +0.000 C 
BRANCH  21  22
ATOM     22  C   UNL     1       1.897   2.633  19.505  0.00  0.00    +0.000 C 
BRANCH  22  23
ATOM     23  C   UNL     1       1.975   3.083  20.960  0.00  0.00    +0.000 C 
BRANCH  23  24
ATOM     24  C   UNL     1       2.411   4.538  21.057  0.00  0.00    +0.000 C 
BRANCH  24  25
ATOM     25  C   UNL     1       1.638   5.401  20.066  0.00  0.00    +0.000 C 
BRANCH  25  26
ATOM     26  C   UNL     1       2.421   6.670  19.746  0.00  0.00    +0.000 C 
BRANCH  26  28
ATOM     27  C   UNL     1       2.382   8.255  17.805  0.00  0.00    +0.000 C 
ATOM     28  C   UNL     1       2.640   6.824  18.245  0.00  0.00    +0.000 C 
ENDBRANCH  26  28
ENDBRANCH  25  26
ENDBRANCH  24  25
ENDBRANCH  23  24
ENDBRANCH  22  23
ENDBRANCH  21  22
ENDBRANCH  19  21
ENDBRANCH  18  20
ENDBRANCH  17  18
ENDBRANCH  16  17
ENDBRANCH   1  16
TORSDOF 17
ENDMDL
MODEL 5
REMARK VINA RESULT:      -5.7      6.244      9.145
REMARK  Name = 
REMARK  18 active torsions:
REMARK  status: ('A' for Active; 'I' for Inactive)
REMARK    1  A    between atoms: C_1  and  C_2
REMARK    2  A    between atoms: C_2  and  C_3
REMARK    3  A    between atoms: C_3  and  C_4
REMARK    4  A    between atoms: C_4  and  C_5
REMARK    5  A    between atoms: C_5  and  C_6
REMARK    6  A    between atoms: C_6  and  C_7
REMARK    7  A    between atoms: C_7  and  C_8
REMARK    8  A    between atoms: C_8  and  C_9
REMARK    9  A    between atoms: C_10  and  C_11
REMARK   10  A    between atoms: C_11  and  C_12
REMARK   11  A    between atoms: C_12  and  C_13
REMARK   12  A    between atoms: C_13  and  C_14
REMARK   13  A    between atoms: C_14  and  C_15
REMARK   14  A    between atoms: C_15  and  C_16
REMARK   15  A    between atoms: C_16  and  C_17
REMARK   16  A    between atoms: C_17  and  S_18
REMARK   17  A    between atoms: S_18  and  C_19
REMARK   18  A    between atoms: C_22  and  C_23
REMARK                            x       y       z     vdW  Elec       q    Type
REMARK                         _______ _______ _______ _____ _____    ______ ____
ROOT
ATOM      1  C   UNL     1       2.569   6.395  19.878  0.00  0.00    +0.000 C 
ENDROOT
BRANCH   1   2
ATOM      2  C   UNL     1       1.467   5.648  20.616  0.00  0.00    +0.000 C 
BRANCH   2   3
ATOM      3  C   UNL     1       1.290   4.261  20.000  0.00  0.00    +0.000 C 
BRANCH   3   4
ATOM      4  C   UNL     1       2.310   3.283  20.564  0.00  0.00    +0.000 C 
BRANCH   4   5
ATOM      5  S   UNL     1       2.884   2.182  19.238  0.00  0.00    +0.000 S 
BRANCH   5   6
ATOM      6  C   UNL     1       4.169   3.163  18.591  0.00  0.00    +0.000 A 
ATOM      7  N   UNL     1       5.019   3.840  19.338  0.00  0.00    +0.000 NA
ATOM      8  C   UNL     1       5.876   4.405  18.426  0.00  0.00    +0.000 A 
ATOM      9  C   UNL     1       5.514   4.051  17.147  0.00  0.00    +0.000 A 
ATOM     10  O   UNL     1       4.398   3.264  17.245  0.00  0.00    +0.000 OA
BRANCH   9  11
ATOM     11  C   UNL     1       6.216   4.418  15.905  0.00  0.00    +0.000 A 
ATOM     12  C   UNL     1       7.280   5.284  15.817  0.00  0.00    +0.000 A 
ATOM     13  O   UNL     1       7.614   5.392  14.497  0.00  0.00    +0.000 OA
ATOM     14  C   UNL     1       6.724   4.577  13.868  0.00  0.00    +0.000 A 
ATOM     15  N   UNL     1       5.875   3.957  14.657  0.00  0.00    +0.000 NA
ENDBRANCH   9  11
ENDBRANCH   5   6
ENDBRANCH   4   5
ENDBRANCH   3   4
ENDBRANCH   2   3
ENDBRANCH   1   2
BRANCH   1  16
ATOM     16  C   UNL     1       2.423   6.286  18.362  0.00  0.00    +0.000 C 
BRANCH  16  17
ATOM     17  C   UNL     1       3.278   7.324  17.630  0.00  0.00    +0.000 C 
BRANCH  17  18
ATOM     18  C   UNL     1       2.808   8.772  17.797  0.00  0.00    +0.000 C 
BRANCH  18  20
ATOM     19  C   UNL     1       0.613   9.928  18.264  0.00  0.00    +0.000 C 
ATOM     20  C   UNL     1       1.309   8.908  17.739  0.00  0.00    +0.000 C 
BRANCH  19  21
ATOM     21  C   UNL     1       1.268  11.082  18.958  0.00  0.00    +0.000 C 
BRANCH  21  22
ATOM     22  C   UNL     1       0.273  12.023  19.619  0.00  0.00    +0.000 C 
BRANCH  22  23
ATOM     23  C   UNL     1       0.383  11.884  21.134  0.00  0.00    +0.000 C 
BRANCH  23  24
ATOM     24  C   UNL     1      -0.690  10.950  21.674  0.00  0.00    +0.000 C 
BRANCH  24  25
ATOM     25  C   UNL     1      -1.255  11.478  22.988  0.00  0.00    +0.000 C 
BRANCH  25  26
ATOM     26  C   UNL     1      -2.588  12.179  22.747  0.00  0.00    +0.000 C 
BRANCH  26  28
ATOM     27  C   UNL     1      -1.232  14.093  23.632  0.00  0.00    +0.000 C 
ATOM     28  C   UNL     1      -2.434  13.696  22.792  0.00  0.00    +0.000 C 
ENDBRANCH  26  28
ENDBRANCH  25  26
ENDBRANCH  24  25
ENDBRANCH  23  24
ENDBRANCH  22  23
ENDBRANCH  21  22
ENDBRANCH  19  21
ENDBRANCH  18  20
ENDBRANCH  17  18
ENDBRANCH  16  17
ENDBRANCH   1  16
TORSDOF 17
ENDMDL
MODEL 6
REMARK VINA RESULT:      -5.7      6.331      9.225
REMARK  Name = 
REMARK  18 active torsions:
REMARK  status: ('A' for Active; 'I' for Inactive)
REMARK    1  A    between atoms: C_1  and  C_2
REMARK    2  A    between atoms: C_2  and  C_3
REMARK    3  A    between atoms: C_3  and  C_4
REMARK    4  A    between atoms: C_4  and  C_5
REMARK    5  A    between atoms: C_5  and  C_6
REMARK    6  A    between atoms: C_6  and  C_7
REMARK    7  A    between atoms: C_7  and  C_8
REMARK    8  A    between atoms: C_8  and  C_9
REMARK    9  A    between atoms: C_10  and  C_11
REMARK   10  A    between atoms: C_11  and  C_12
REMARK   11  A    between atoms: C_12  and  C_13
REMARK   12  A    between atoms: C_13  and  C_14
REMARK   13  A    between atoms: C_14  and  C_15
REMARK   14  A    between atoms: C_15  and  C_16
REMARK   15  A    between atoms: C_16  and  C_17
REMARK   16  A    between atoms: C_17  and  S_18
REMARK   17  A    between atoms: S_18  and  C_19
REMARK   18  A    between atoms: C_22  and  C_23
REMARK                            x       y       z     vdW  Elec       q    Type
REMARK                         _______ _______ _______ _____ _____    ______ ____
ROOT
ATOM      1  C   UNL     1       2.350   6.851  20.005  0.00  0.00    +0.000 C 
ENDROOT
BRANCH   1   2
ATOM      2  C   UNL     1       2.226   5.484  20.663  0.00  0.00    +0.000 C 
BRANCH   2   3
ATOM      3  C   UNL     1       0.987   4.769  20.122  0.00  0.00    +0.000 C 
BRANCH   3   4
ATOM      4  C   UNL     1       1.083   3.268  20.354  0.00  0.00    +0.000 C 
BRANCH   4   5
ATOM      5  S   UNL     1       1.368   2.432  18.768  0.00  0.00    +0.000 S 
BRANCH   5   6
ATOM      6  C   UNL     1       2.967   3.025  18.416  0.00  0.00    +0.000 A 
ATOM      7  N   UNL     1       3.974   2.959  19.264  0.00  0.00    +0.000 NA
ATOM      8  C   UNL     1       5.030   3.478  18.557  0.00  0.00    +0.000 A 
ATOM      9  C   UNL     1       4.626   3.846  17.295  0.00  0.00    +0.000 A 
ATOM     10  O   UNL     1       3.287   3.574  17.203  0.00  0.00    +0.000 OA
BRANCH   9  11
ATOM     11  C   UNL     1       5.479   4.394  16.226  0.00  0.00    +0.000 A 
ATOM     12  C   UNL     1       6.028   5.655  16.213  0.00  0.00    +0.000 A 
ATOM     13  O   UNL     1       6.711   5.792  15.038  0.00  0.00    +0.000 OA
ATOM     14  C   UNL     1       6.530   4.597  14.413  0.00  0.00    +0.000 A 
ATOM     15  N   UNL     1       5.816   3.718  15.080  0.00  0.00    +0.000 NA
ENDBRANCH   9  11
ENDBRANCH   5   6
ENDBRANCH   4   5
ENDBRANCH   3   4
ENDBRANCH   2   3
ENDBRANCH   1   2
BRANCH   1  16
ATOM     16  C   UNL     1       2.527   6.749  18.493  0.00  0.00    +0.000 C 
BRANCH  16  17
ATOM     17  C   UNL     1       1.844   7.906  17.758  0.00  0.00    +0.000 C 
BRANCH  17  18
ATOM     18  C   UNL     1       1.915   9.254  18.482  0.00  0.00    +0.000 C 
BRANCH  18  20
ATOM     19  C   UNL     1      -0.312  10.042  19.372  0.00  0.00    +0.000 C 
ATOM     20  C   UNL     1       0.622  10.024  18.409  0.00  0.00    +0.000 C 
BRANCH  19  21
ATOM     21  C   UNL     1      -0.156   9.303  20.665  0.00  0.00    +0.000 C 
BRANCH  21  22
ATOM     22  C   UNL     1       0.610  10.094  21.714  0.00  0.00    +0.000 C 
BRANCH  22  23
ATOM     23  C   UNL     1      -0.163  10.061  23.029  0.00  0.00    +0.000 C 
BRANCH  23  24
ATOM     24  C   UNL     1      -1.425  10.907  22.939  0.00  0.00    +0.000 C 
BRANCH  24  25
ATOM     25  C   UNL     1      -1.076  12.387  22.823  0.00  0.00    +0.000 C 
BRANCH  25  26
ATOM     26  C   UNL     1      -2.051  13.087  21.882  0.00  0.00    +0.000 C 
BRANCH  26  28
ATOM     27  C   UNL     1       0.049  13.667  20.641  0.00  0.00    +0.000 C 
ATOM     28  C   UNL     1      -1.426  13.327  20.511  0.00  0.00    +0.000 C 
ENDBRANCH  26  28
ENDBRANCH  25  26
ENDBRANCH  24  25
ENDBRANCH  23  24
ENDBRANCH  22  23
ENDBRANCH  21  22
ENDBRANCH  19  21
ENDBRANCH  18  20
ENDBRANCH  17  18
ENDBRANCH  16  17
ENDBRANCH   1  16
TORSDOF 17
ENDMDL
MODEL 7
REMARK VINA RESULT:      -5.7      4.944      8.678
REMARK  Name = 
REMARK  18 active torsions:
REMARK  status: ('A' for Active; 'I' for Inactive)
REMARK    1  A    between atoms: C_1  and  C_2
REMARK    2  A    between atoms: C_2  and  C_3
REMARK    3  A    between atoms: C_3  and  C_4
REMARK    4  A    between atoms: C_4  and  C_5
REMARK    5  A    between atoms: C_5  and  C_6
REMARK    6  A    between atoms: C_6  and  C_7
REMARK    7  A    between atoms: C_7  and  C_8
REMARK    8  A    between atoms: C_8  and  C_9
REMARK    9  A    between atoms: C_10  and  C_11
REMARK   10  A    between atoms: C_11  and  C_12
REMARK   11  A    between atoms: C_12  and  C_13
REMARK   12  A    between atoms: C_13  and  C_14
REMARK   13  A    between atoms: C_14  and  C_15
REMARK   14  A    between atoms: C_15  and  C_16
REMARK   15  A    between atoms: C_16  and  C_17
REMARK   16  A    between atoms: C_17  and  S_18
REMARK   17  A    between atoms: S_18  and  C_19
REMARK   18  A    between atoms: C_22  and  C_23
REMARK                            x       y       z     vdW  Elec       q    Type
REMARK                         _______ _______ _______ _____ _____    ______ ____
ROOT
ATOM      1  C   UNL     1       2.366   5.026  21.224  0.00  0.00    +0.000 C 
ENDROOT
BRANCH   1   2
ATOM      2  C   UNL     1       1.928   3.574  21.100  0.00  0.00    +0.000 C 
BRANCH   2   3
ATOM      3  C   UNL     1       0.832   3.460  20.040  0.00  0.00    +0.000 C 
BRANCH   3   4
ATOM      4  C   UNL     1       1.386   2.881  18.747  0.00  0.00    +0.000 C 
BRANCH   4   5
ATOM      5  S   UNL     1       1.572   4.210  17.525  0.00  0.00    +0.000 S 
BRANCH   5   6
ATOM      6  C   UNL     1       3.309   4.331  17.500  0.00  0.00    +0.000 A 
ATOM      7  N   UNL     1       4.105   3.354  17.114  0.00  0.00    +0.000 NA
ATOM      8  C   UNL     1       5.361   3.903  17.197  0.00  0.00    +0.000 A 
ATOM      9  C   UNL     1       5.285   5.204  17.636  0.00  0.00    +0.000 A 
ATOM     10  O   UNL     1       3.962   5.482  17.853  0.00  0.00    +0.000 OA
BRANCH   9  11
ATOM     11  C   UNL     1       6.412   6.138  17.805  0.00  0.00    +0.000 A 
ATOM     12  C   UNL     1       7.398   6.033  18.757  0.00  0.00    +0.000 A 
ATOM     13  O   UNL     1       8.225   7.110  18.612  0.00  0.00    +0.000 OA
ATOM     14  C   UNL     1       7.682   7.801  17.574  0.00  0.00    +0.000 A 
ATOM     15  N   UNL     1       6.607   7.263  17.042  0.00  0.00    +0.000 NA
ENDBRANCH   9  11
ENDBRANCH   5   6
ENDBRANCH   4   5
ENDBRANCH   3   4
ENDBRANCH   2   3
ENDBRANCH   1   2
BRANCH   1  16
ATOM     16  C   UNL     1       1.379   5.984  20.561  0.00  0.00    +0.000 C 
BRANCH  16  17
ATOM     17  C   UNL     1       1.951   7.400  20.441  0.00  0.00    +0.000 C 
BRANCH  17  18
ATOM     18  C   UNL     1       0.933   8.522  20.668  0.00  0.00    +0.000 C 
BRANCH  18  20
ATOM     19  C   UNL     1       0.129   9.969  22.573  0.00  0.00    +0.000 C 
ATOM     20  C   UNL     1       0.790   8.893  22.121  0.00  0.00    +0.000 C 
BRANCH  19  21
ATOM     21  C   UNL     1      -0.578  10.926  21.663  0.00  0.00    +0.000 C 
BRANCH  21  22
ATOM     22  C   UNL     1       0.328  12.029  21.139  0.00  0.00    +0.000 C 
BRANCH  22  23
ATOM     23  C   UNL     1      -0.267  12.598  19.855  0.00  0.00    +0.000 C 
BRANCH  23  24
ATOM     24  C   UNL     1      -0.255  11.558  18.743  0.00  0.00    +0.000 C 
BRANCH  24  25
ATOM     25  C   UNL     1      -1.607  11.503  18.040  0.00  0.00    +0.000 C 
BRANCH  25  26
ATOM     26  C   UNL     1      -2.240  10.128  18.219  0.00  0.00    +0.000 C 
BRANCH  26  28
ATOM     27  C   UNL     1      -2.605  10.034  15.741  0.00  0.00    +0.000 C 
ATOM     28  C   UNL     1      -3.238   9.826  17.106  0.00  0.00    +0.000 C 
ENDBRANCH  26  28
ENDBRANCH  25  26
ENDBRANCH  24  25
ENDBRANCH  23  24
ENDBRANCH  22  23
ENDBRANCH  21  22
ENDBRANCH  19  21
ENDBRANCH  18  20
ENDBRANCH  17  18
ENDBRANCH  16  17
ENDBRANCH   1  16
TORSDOF 17
ENDMDL
MODEL 8
REMARK VINA RESULT:      -5.6      6.233      8.999
REMARK  Name = 
REMARK  18 active torsions:
REMARK  status: ('A' for Active; 'I' for Inactive)
REMARK    1  A    between atoms: C_1  and  C_2
REMARK    2  A    between atoms: C_2  and  C_3
REMARK    3  A    between atoms: C_3  and  C_4
REMARK    4  A    between atoms: C_4  and  C_5
REMARK    5  A    between atoms: C_5  and  C_6
REMARK    6  A    between atoms: C_6  and  C_7
REMARK    7  A    between atoms: C_7  and  C_8
REMARK    8  A    between atoms: C_8  and  C_9
REMARK    9  A    between atoms: C_10  and  C_11
REMARK   10  A    between atoms: C_11  and  C_12
REMARK   11  A    between atoms: C_12  and  C_13
REMARK   12  A    between atoms: C_13  and  C_14
REMARK   13  A    between atoms: C_14  and  C_15
REMARK   14  A    between atoms: C_15  and  C_16
REMARK   15  A    between atoms: C_16  and  C_17
REMARK   16  A    between atoms: C_17  and  S_18
REMARK   17  A    between atoms: S_18  and  C_19
REMARK   18  A    between atoms: C_22  and  C_23
REMARK                            x       y       z     vdW  Elec       q    Type
REMARK                         _______ _______ _______ _____ _____    ______ ____
ROOT
ATOM      1  C   UNL     1       1.673   4.643  19.579  0.00  0.00    +0.000 C 
ENDROOT
BRANCH   1   2
ATOM      2  C   UNL     1       0.702   3.556  20.020  0.00  0.00    +0.000 C 
BRANCH   2   3
ATOM      3  C   UNL     1       1.438   2.218  20.103  0.00  0.00    +0.000 C 
BRANCH   3   4
ATOM      4  C   UNL     1       2.679   2.226  19.224  0.00  0.00    +0.000 C 
BRANCH   4   5
ATOM      5  S   UNL     1       4.149   2.473  20.262  0.00  0.00    +0.000 S 
BRANCH   5   6
ATOM      6  C   UNL     1       5.040   3.563  19.238  0.00  0.00    +0.000 A 
ATOM      7  N   UNL     1       5.720   4.598  19.688  0.00  0.00    +0.000 NA
ATOM      8  C   UNL     1       6.300   5.124  18.561  0.00  0.00    +0.000 A 
ATOM      9  C   UNL     1       5.949   4.386  17.454  0.00  0.00    +0.000 A 
ATOM     10  O   UNL     1       5.118   3.386  17.882  0.00  0.00    +0.000 OA
BRANCH   9  11
ATOM     11  C   UNL     1       6.411   4.605  16.073  0.00  0.00    +0.000 A 
ATOM     12  C   UNL     1       7.410   5.470  15.694  0.00  0.00    +0.000 A 
ATOM     13  O   UNL     1       7.505   5.416  14.332  0.00  0.00    +0.000 OA
ATOM     14  C   UNL     1       6.550   4.515  13.974  0.00  0.00    +0.000 A 
ATOM     15  N   UNL     1       5.875   3.987  14.970  0.00  0.00    +0.000 NA
ENDBRANCH   9  11
ENDBRANCH   5   6
ENDBRANCH   4   5
ENDBRANCH   3   4
ENDBRANCH   2   3
ENDBRANCH   1   2
BRANCH   1  16
ATOM     16  C   UNL     1       2.009   5.610  20.711  0.00  0.00    +0.000 C 
BRANCH  16  17
ATOM     17  C   UNL     1       1.236   6.926  20.586  0.00  0.00    +0.000 C 
BRANCH  17  18
ATOM     18  C   UNL     1       2.040   8.085  19.989  0.00  0.00    +0.000 C 
BRANCH  18  20
ATOM     19  C   UNL     1       1.319   9.260  17.875  0.00  0.00    +0.000 C 
ATOM     20  C   UNL     1       1.868   8.206  18.498  0.00  0.00    +0.000 C 
BRANCH  19  21
ATOM     21  C   UNL     1       0.830  10.469  18.610  0.00  0.00    +0.000 C 
BRANCH  21  22
ATOM     22  C   UNL     1      -0.666  10.440  18.878  0.00  0.00    +0.000 C 
BRANCH  22  23
ATOM     23  C   UNL     1      -1.316  11.656  18.224  0.00  0.00    +0.000 C 
BRANCH  23  24
ATOM     24  C   UNL     1      -2.787  11.395  17.931  0.00  0.00    +0.000 C 
BRANCH  24  25
ATOM     25  C   UNL     1      -3.028   9.917  17.650  0.00  0.00    +0.000 C 
BRANCH  25  26
ATOM     26  C   UNL     1      -2.705   9.595  16.195  0.00  0.00    +0.000 C 
BRANCH  26  28
ATOM     27  C   UNL     1      -3.351  10.079  13.822  0.00  0.00    +0.000 C 
ATOM     28  C   UNL     1      -3.346  10.604  15.247  0.00  0.00    +0.000 C 
ENDBRANCH  26  28
ENDBRANCH  25  26
ENDBRANCH  24  25
ENDBRANCH  23  24
ENDBRANCH  22  23
ENDBRANCH  21  22
ENDBRANCH  19  21
ENDBRANCH  18  20
ENDBRANCH  17  18
ENDBRANCH  16  17
ENDBRANCH   1  16
TORSDOF 17
ENDMDL
MODEL 9
REMARK VINA RESULT:      -5.6      1.726      2.839
REMARK  Name = 
REMARK  18 active torsions:
REMARK  status: ('A' for Active; 'I' for Inactive)
REMARK    1  A    between atoms: C_1  and  C_2
REMARK    2  A    between atoms: C_2  and  C_3
REMARK    3  A    between atoms: C_3  and  C_4
REMARK    4  A    between atoms: C_4  and  C_5
REMARK    5  A    between atoms: C_5  and  C_6
REMARK    6  A    between atoms: C_6  and  C_7
REMARK    7  A    between atoms: C_7  and  C_8
REMARK    8  A    between atoms: C_8  and  C_9
REMARK    9  A    between atoms: C_10  and  C_11
REMARK   10  A    between atoms: C_11  and  C_12
REMARK   11  A    between atoms: C_12  and  C_13
REMARK   12  A    between atoms: C_13  and  C_14
REMARK   13  A    between atoms: C_14  and  C_15
REMARK   14  A    between atoms: C_15  and  C_16
REMARK   15  A    between atoms: C_16  and  C_17
REMARK   16  A    between atoms: C_17  and  S_18
REMARK   17  A    between atoms: S_18  and  C_19
REMARK   18  A    between atoms: C_22  and  C_23
REMARK                            x       y       z     vdW  Elec       q    Type
REMARK                         _______ _______ _______ _____ _____    ______ ____
ROOT
ATOM      1  C   UNL     1       7.032   7.210  17.894  0.00  0.00    +0.000 C 
ENDROOT
BRANCH   1   2
ATOM      2  C   UNL     1       8.348   7.888  18.250  0.00  0.00    +0.000 C 
BRANCH   2   3
ATOM      3  C   UNL     1       8.244   9.386  17.962  0.00  0.00    +0.000 C 
BRANCH   3   4
ATOM      4  C   UNL     1       9.054  10.188  18.969  0.00  0.00    +0.000 C 
BRANCH   4   5
ATOM      5  S   UNL     1       9.998  11.471  18.095  0.00  0.00    +0.000 S 
BRANCH   5   6
ATOM      6  C   UNL     1       9.385  12.881  18.913  0.00  0.00    +0.000 A 
ATOM      7  N   UNL     1       9.935  13.396  19.993  0.00  0.00    +0.000 NA
ATOM      8  C   UNL     1       9.173  14.509  20.249  0.00  0.00    +0.000 A 
ATOM      9  C   UNL     1       8.176  14.632  19.310  0.00  0.00    +0.000 A 
ATOM     10  O   UNL     1       8.295  13.570  18.453  0.00  0.00    +0.000 OA
BRANCH   9  11
ATOM     11  C   UNL     1       7.189  15.721  19.217  0.00  0.00    +0.000 A 
ATOM     12  C   UNL     1       7.389  16.927  18.589  0.00  0.00    +0.000 A 
ATOM     13  O   UNL     1       6.258  17.673  18.763  0.00  0.00    +0.000 OA
ATOM     14  C   UNL     1       5.441  16.864  19.489  0.00  0.00    +0.000 A 
ATOM     15  N   UNL     1       5.936  15.681  19.778  0.00  0.00    +0.000 NA
ENDBRANCH   9  11
ENDBRANCH   5   6
ENDBRANCH   4   5
ENDBRANCH   3   4
ENDBRANCH   2   3
ENDBRANCH   1   2
BRANCH   1  16
ATOM     16  C   UNL     1       7.190   6.209  16.753  0.00  0.00    +0.000 C 
BRANCH  16  17
ATOM     17  C   UNL     1       7.181   4.763  17.256  0.00  0.00    +0.000 C 
BRANCH  17  18
ATOM     18  C   UNL     1       5.805   4.241  17.681  0.00  0.00    +0.000 C 
BRANCH  18  20
ATOM     19  C   UNL     1       3.706   5.640  17.598  0.00  0.00    +0.000 C 
ATOM     20  C   UNL     1       4.673   4.946  16.980  0.00  0.00    +0.000 C 
BRANCH  19  21
ATOM     21  C   UNL     1       3.659   5.816  19.084  0.00  0.00    +0.000 C 
BRANCH  21  22
ATOM     22  C   UNL     1       2.445   6.602  19.554  0.00  0.00    +0.000 C 
BRANCH  22  23
ATOM     23  C   UNL     1       1.754   5.832  20.675  0.00  0.00    +0.000 C 
BRANCH  23  24
ATOM     24  C   UNL     1       1.128   4.549  20.149  0.00  0.00    +0.000 C 
BRANCH  24  25
ATOM     25  C   UNL     1       1.473   3.369  21.050  0.00  0.00    +0.000 C 
BRANCH  25  26
ATOM     26  C   UNL     1       1.731   2.122  20.211  0.00  0.00    +0.000 C 
BRANCH  26  28
ATOM     27  C   UNL     1       2.555   2.079  17.844  0.00  0.00    +0.000 C 
ATOM     28  C   UNL     1       2.938   2.306  19.297  0.00  0.00    +0.000 C 
ENDBRANCH  26  28
ENDBRANCH  25  26
ENDBRANCH  24  25
ENDBRANCH  23  24
ENDBRANCH  22  23
ENDBRANCH  21  22
ENDBRANCH  19  21
ENDBRANCH  18  20
ENDBRANCH  17  18
ENDBRANCH  16  17
ENDBRANCH   1  16
TORSDOF 17
ENDMDL
