MODEL 1
REMARK VINA RESULT:      -8.2      0.000      0.000
REMARK  Name = 
REMARK  8 active torsions:
REMARK  status: ('A' for Active; 'I' for Inactive)
REMARK    1  A    between atoms: N_1  and  C_2
REMARK    2  A    between atoms: C_2  and  C_3
REMARK    3  A    between atoms: C_3  and  O_4
REMARK    4  A    between atoms: O_4  and  C_5
REMARK    5  A    between atoms: C_15  and  C_16
REMARK    6  A    between atoms: C_19  and  O_20
REMARK    7  A    between atoms: O_20  and  C_21
REMARK    8  A    between atoms: C_29  and  C_30
REMARK                            x       y       z     vdW  Elec       q    Type
REMARK                         _______ _______ _______ _____ _____    ______ ____
ROOT
ATOM      1  C   UNL     1       3.972   5.226  18.307  0.00  0.00    +0.000 A 
ATOM      2  C   UNL     1       3.619   5.008  19.630  0.00  0.00    +0.000 A 
ATOM      3  C   UNL     1       2.818   5.934  20.289  0.00  0.00    +0.000 A 
ATOM      4  C   UNL     1       2.349   7.111  19.670  0.00  0.00    +0.000 A 
ATOM      5  C   UNL     1       2.702   7.352  18.334  0.00  0.00    +0.000 A 
ATOM      6  C   UNL     1       3.513   6.392  17.670  0.00  0.00    +0.000 A 
ATOM      7  C   UNL     1       2.366   8.647  17.615  0.00  0.00    +0.000 C 
ATOM      8  C   UNL     1       0.980   9.263  17.843  0.00  0.00    +0.000 C 
ATOM      9  N   UNL     1       0.754   9.784  19.178  0.00  0.00    +0.000 N 
ATOM     10  N   UNL     1       0.037  10.917  19.368  0.00  0.00    +0.000 NA
ATOM     11  C   UNL     1      -0.241  10.942  20.699  0.00  0.00    +0.000 A 
ATOM     12  C   UNL     1       0.415   9.855  21.359  0.00  0.00    +0.000 A 
ATOM     13  C   UNL     1       1.006   9.130  20.338  0.00  0.00    +0.000 A 
ATOM     14  N   UNL     1       1.598   7.938  20.497  0.00  0.00    +0.000 N 
ATOM     15  H   UNL     1       1.478   7.582  21.453  0.00  0.00    +0.000 HD
ENDROOT
BRANCH  11  16
ATOM     16  C   UNL     1      -1.128  11.996  21.254  0.00  0.00    +0.000 A 
ATOM     17  C   UNL     1      -0.925  12.528  22.533  0.00  0.00    +0.000 A 
ATOM     18  C   UNL     1      -1.776  13.483  23.091  0.00  0.00    +0.000 A 
ATOM     19  C   UNL     1      -2.896  13.911  22.395  0.00  0.00    +0.000 A 
ATOM     20  C   UNL     1      -3.148  13.381  21.128  0.00  0.00    +0.000 A 
ATOM     21  C   UNL     1      -2.257  12.453  20.553  0.00  0.00    +0.000 A 
BRANCH  19  22
ATOM     22  O   UNL     1      -3.713  14.765  23.097  0.00  0.00    +0.000 OA
BRANCH  22  23
ATOM     23  C   UNL     1      -5.025  14.432  23.321  0.00  0.00    +0.000 A 
ATOM     24  C   UNL     1      -5.982  15.342  22.871  0.00  0.00    +0.000 A 
ATOM     25  C   UNL     1      -7.337  15.090  23.086  0.00  0.00    +0.000 A 
ATOM     26  C   UNL     1      -7.728  13.924  23.744  0.00  0.00    +0.000 A 
ATOM     27  C   UNL     1      -6.774  12.987  24.137  0.00  0.00    +0.000 A 
ATOM     28  C   UNL     1      -5.423  13.226  23.902  0.00  0.00    +0.000 A 
ENDBRANCH  22  23
ENDBRANCH  19  22
ENDBRANCH  11  16
BRANCH  12  29
ATOM     29  C   UNL     1       0.472   9.372  22.731  0.00  0.00    +0.000 C 
ATOM     30  N   UNL     1      -0.722   9.032  23.314  0.00  0.00    +0.000 N 
ATOM     31  O   UNL     1       1.480   9.276  23.421  0.00  0.00    +0.000 OA
ATOM     32  H   UNL     1      -1.517   8.797  22.732  0.00  0.00    +0.000 HD
ATOM     33  H   UNL     1      -0.640   8.589  24.220  0.00  0.00    +0.000 HD
ENDBRANCH  12  29
BRANCH   1  34
ATOM     34  O   UNL     1       4.759   4.377  17.565  0.00  0.00    +0.000 OA
BRANCH  34  35
ATOM     35  C   UNL     1       5.592   5.003  16.573  0.00  0.00    +0.000 C 
BRANCH  35  36
ATOM     36  C   UNL     1       6.934   5.418  17.191  0.00  0.00    +0.000 C 
BRANCH  36  37
ATOM     37  N   UNL     1       7.656   4.279  17.767  0.00  0.00    +0.000 NA
ATOM     38  H   UNL     1       7.041   3.466  17.789  0.00  0.00    +0.000 HD
ATOM     39  H   UNL     1       7.898   4.477  18.737  0.00  0.00    +0.000 HD
ENDBRANCH  36  37
ENDBRANCH  35  36
ENDBRANCH  34  35
ENDBRANCH   1  34
TORSDOF 8
ENDMDL
MODEL 2
REMARK VINA RESULT:      -8.1      2.255      3.853
REMARK  Name = 
REMARK  8 active torsions:
REMARK  status: ('A' for Active; 'I' for Inactive)
REMARK    1  A    between atoms: N_1  and  C_2
REMARK    2  A    between atoms: C_2  and  C_3
REMARK    3  A    between atoms: C_3  and  O_4
REMARK    4  A    between atoms: O_4  and  C_5
REMARK    5  A    between atoms: C_15  and  C_16
REMARK    6  A    between atoms: C_19  and  O_20
REMARK    7  A    between atoms: O_20  and  C_21
REMARK    8  A    between atoms: C_29  and  C_30
REMARK                            x       y       z     vdW  Elec       q    Type
REMARK                         _______ _______ _______ _____ _____    ______ ____
ROOT
ATOM      1  C   UNL     1       5.520   4.654  15.673  0.00  0.00    +0.000 A 
ATOM      2  C   UNL     1       5.396   5.950  15.196  0.00  0.00    +0.000 A 
ATOM      3  C   UNL     1       4.635   6.873  15.904  0.00  0.00    +0.000 A 
ATOM      4  C   UNL     1       3.960   6.546  17.099  0.00  0.00    +0.000 A 
ATOM      5  C   UNL     1       4.069   5.238  17.593  0.00  0.00    +0.000 A 
ATOM      6  C   UNL     1       4.858   4.307  16.864  0.00  0.00    +0.000 A 
ATOM      7  C   UNL     1       3.279   4.743  18.792  0.00  0.00    +0.000 C 
ATOM      8  C   UNL     1       3.131   5.680  19.998  0.00  0.00    +0.000 C 
ATOM      9  N   UNL     1       2.309   6.852  19.765  0.00  0.00    +0.000 N 
ATOM     10  N   UNL     1       1.491   7.330  20.734  0.00  0.00    +0.000 NA
ATOM     11  C   UNL     1       1.126   8.569  20.310  0.00  0.00    +0.000 A 
ATOM     12  C   UNL     1       1.643   8.814  18.999  0.00  0.00    +0.000 A 
ATOM     13  C   UNL     1       2.417   7.701  18.715  0.00  0.00    +0.000 A 
ATOM     14  N   UNL     1       3.215   7.585  17.643  0.00  0.00    +0.000 N 
ATOM     15  H   UNL     1       3.254   8.459  17.105  0.00  0.00    +0.000 HD
ENDROOT
BRANCH  11  16
ATOM     16  C   UNL     1       0.315   9.448  21.192  0.00  0.00    +0.000 A 
ATOM     17  C   UNL     1      -0.170  10.685  20.751  0.00  0.00    +0.000 A 
ATOM     18  C   UNL     1      -0.891  11.546  21.581  0.00  0.00    +0.000 A 
ATOM     19  C   UNL     1      -1.117  11.210  22.906  0.00  0.00    +0.000 A 
ATOM     20  C   UNL     1      -0.623   9.996  23.390  0.00  0.00    +0.000 A 
ATOM     21  C   UNL     1       0.061   9.113  22.533  0.00  0.00    +0.000 A 
BRANCH  19  22
ATOM     22  O   UNL     1      -1.738  12.189  23.645  0.00  0.00    +0.000 OA
BRANCH  22  23
ATOM     23  C   UNL     1      -3.046  12.514  23.393  0.00  0.00    +0.000 A 
ATOM     24  C   UNL     1      -3.960  12.249  24.414  0.00  0.00    +0.000 A 
ATOM     25  C   UNL     1      -5.314  12.524  24.225  0.00  0.00    +0.000 A 
ATOM     26  C   UNL     1      -5.747  13.070  23.017  0.00  0.00    +0.000 A 
ATOM     27  C   UNL     1      -4.825  13.391  22.022  0.00  0.00    +0.000 A 
ATOM     28  C   UNL     1      -3.470  13.139  22.219  0.00  0.00    +0.000 A 
ENDBRANCH  22  23
ENDBRANCH  19  22
ENDBRANCH  11  16
BRANCH  12  29
ATOM     29  C   UNL     1       1.597   9.934  18.070  0.00  0.00    +0.000 C 
ATOM     30  N   UNL     1       0.352  10.364  17.687  0.00  0.00    +0.000 N 
ATOM     31  O   UNL     1       2.563  10.501  17.575  0.00  0.00    +0.000 OA
ATOM     32  H   UNL     1      -0.452  10.162  18.269  0.00  0.00    +0.000 HD
ATOM     33  H   UNL     1       0.348  11.215  17.138  0.00  0.00    +0.000 HD
ENDBRANCH  12  29
BRANCH   1  34
ATOM     34  O   UNL     1       6.245   3.665  15.051  0.00  0.00    +0.000 OA
BRANCH  34  35
ATOM     35  C   UNL     1       6.717   3.975  13.727  0.00  0.00    +0.000 C 
BRANCH  35  36
ATOM     36  C   UNL     1       5.818   3.314  12.674  0.00  0.00    +0.000 C 
BRANCH  36  37
ATOM     37  N   UNL     1       6.551   2.355  11.841  0.00  0.00    +0.000 NA
ATOM     38  H   UNL     1       7.409   2.080  12.319  0.00  0.00    +0.000 HD
ATOM     39  H   UNL     1       6.843   2.803  10.972  0.00  0.00    +0.000 HD
ENDBRANCH  36  37
ENDBRANCH  35  36
ENDBRANCH  34  35
ENDBRANCH   1  34
TORSDOF 8
ENDMDL
MODEL 3
REMARK VINA RESULT:      -7.9      0.685      1.105
REMARK  Name = 
REMARK  8 active torsions:
REMARK  status: ('A' for Active; 'I' for Inactive)
REMARK    1  A    between atoms: N_1  and  C_2
REMARK    2  A    between atoms: C_2  and  C_3
REMARK    3  A    between atoms: C_3  and  O_4
REMARK    4  A    between atoms: O_4  and  C_5
REMARK    5  A    between atoms: C_15  and  C_16
REMARK    6  A    between atoms: C_19  and  O_20
REMARK    7  A    between atoms: O_20  and  C_21
REMARK    8  A    between atoms: C_29  and  C_30
REMARK                            x       y       z     vdW  Elec       q    Type
REMARK                         _______ _______ _______ _____ _____    ______ ____
ROOT
ATOM      1  C   UNL     1       3.824   5.155  18.354  0.00  0.00    +0.000 A 
ATOM      2  C   UNL     1       3.437   4.948  19.670  0.00  0.00    +0.000 A 
ATOM      3  C   UNL     1       2.667   5.908  20.318  0.00  0.00    +0.000 A 
ATOM      4  C   UNL     1       2.264   7.108  19.695  0.00  0.00    +0.000 A 
ATOM      5  C   UNL     1       2.653   7.336  18.367  0.00  0.00    +0.000 A 
ATOM      6  C   UNL     1       3.432   6.342  17.713  0.00  0.00    +0.000 A 
ATOM      7  C   UNL     1       2.390   8.647  17.646  0.00  0.00    +0.000 C 
ATOM      8  C   UNL     1       1.030   9.325  17.850  0.00  0.00    +0.000 C 
ATOM      9  N   UNL     1       0.802   9.852  19.182  0.00  0.00    +0.000 N 
ATOM     10  N   UNL     1       0.134  11.016  19.363  0.00  0.00    +0.000 NA
ATOM     11  C   UNL     1      -0.168  11.049  20.689  0.00  0.00    +0.000 A 
ATOM     12  C   UNL     1       0.425   9.932  21.357  0.00  0.00    +0.000 A 
ATOM     13  C   UNL     1       1.002   9.184  20.344  0.00  0.00    +0.000 A 
ATOM     14  N   UNL     1       1.536   7.965  20.510  0.00  0.00    +0.000 N 
ATOM     15  H   UNL     1       1.381   7.612  21.462  0.00  0.00    +0.000 HD
ENDROOT
BRANCH  11  16
ATOM     16  C   UNL     1      -1.017  12.142  21.232  0.00  0.00    +0.000 A 
ATOM     17  C   UNL     1      -1.971  12.792  20.440  0.00  0.00    +0.000 A 
ATOM     18  C   UNL     1      -2.742  13.852  20.917  0.00  0.00    +0.000 A 
ATOM     19  C   UNL     1      -2.552  14.330  22.204  0.00  0.00    +0.000 A 
ATOM     20  C   UNL     1      -1.589  13.725  23.014  0.00  0.00    +0.000 A 
ATOM     21  C   UNL     1      -0.848  12.624  22.541  0.00  0.00    +0.000 A 
BRANCH  19  22
ATOM     22  O   UNL     1      -3.291  15.447  22.514  0.00  0.00    +0.000 OA
BRANCH  22  23
ATOM     23  C   UNL     1      -4.601  15.318  22.901  0.00  0.00    +0.000 A 
ATOM     24  C   UNL     1      -5.405  16.449  22.760  0.00  0.00    +0.000 A 
ATOM     25  C   UNL     1      -6.740  16.409  23.159  0.00  0.00    +0.000 A 
ATOM     26  C   UNL     1      -7.269  15.232  23.689  0.00  0.00    +0.000 A 
ATOM     27  C   UNL     1      -6.482  14.085  23.771  0.00  0.00    +0.000 A 
ATOM     28  C   UNL     1      -5.154  14.118  23.352  0.00  0.00    +0.000 A 
ENDBRANCH  22  23
ENDBRANCH  19  22
ENDBRANCH  11  16
BRANCH  12  29
ATOM     29  C   UNL     1       0.434   9.442  22.728  0.00  0.00    +0.000 C 
ATOM     30  N   UNL     1      -0.765   9.007  23.234  0.00  0.00    +0.000 N 
ATOM     31  O   UNL     1       1.401   9.416  23.479  0.00  0.00    +0.000 OA
ATOM     32  H   UNL     1      -1.502   8.717  22.602  0.00  0.00    +0.000 HD
ATOM     33  H   UNL     1      -0.706   8.564  24.142  0.00  0.00    +0.000 HD
ENDBRANCH  12  29
BRANCH   1  34
ATOM     34  O   UNL     1       4.586   4.272  17.624  0.00  0.00    +0.000 OA
BRANCH  34  35
ATOM     35  C   UNL     1       5.245   4.823  16.469  0.00  0.00    +0.000 C 
BRANCH  35  36
ATOM     36  C   UNL     1       6.768   4.765  16.649  0.00  0.00    +0.000 C 
BRANCH  36  37
ATOM     37  N   UNL     1       7.480   5.462  15.572  0.00  0.00    +0.000 NA
ATOM     38  H   UNL     1       6.862   5.562  14.768  0.00  0.00    +0.000 HD
ATOM     39  H   UNL     1       8.268   4.896  15.255  0.00  0.00    +0.000 HD
ENDBRANCH  36  37
ENDBRANCH  35  36
ENDBRANCH  34  35
ENDBRANCH   1  34
TORSDOF 8
ENDMDL
MODEL 4
REMARK VINA RESULT:      -7.8      2.170     11.601
REMARK  Name = 
REMARK  8 active torsions:
REMARK  status: ('A' for Active; 'I' for Inactive)
REMARK    1  A    between atoms: N_1  and  C_2
REMARK    2  A    between atoms: C_2  and  C_3
REMARK    3  A    between atoms: C_3  and  O_4
REMARK    4  A    between atoms: O_4  and  C_5
REMARK    5  A    between atoms: C_15  and  C_16
REMARK    6  A    between atoms: C_19  and  O_20
REMARK    7  A    between atoms: O_20  and  C_21
REMARK    8  A    between atoms: C_29  and  C_30
REMARK                            x       y       z     vdW  Elec       q    Type
REMARK                         _______ _______ _______ _____ _____    ______ ____
ROOT
ATOM      1  C   UNL     1      -3.163  13.342  22.750  0.00  0.00    +0.000 A 
ATOM      2  C   UNL     1      -3.091  13.474  21.371  0.00  0.00    +0.000 A 
ATOM      3  C   UNL     1      -2.287  12.607  20.639  0.00  0.00    +0.000 A 
ATOM      4  C   UNL     1      -1.518  11.590  21.243  0.00  0.00    +0.000 A 
ATOM      5  C   UNL     1      -1.574  11.447  22.637  0.00  0.00    +0.000 A 
ATOM      6  C   UNL     1      -2.408  12.334  23.372  0.00  0.00    +0.000 A 
ATOM      7  C   UNL     1      -0.688  10.478  23.401  0.00  0.00    +0.000 C 
ATOM      8  C   UNL     1      -0.457   9.084  22.805  0.00  0.00    +0.000 C 
ATOM      9  N   UNL     1       0.332   9.062  21.587  0.00  0.00    +0.000 N 
ATOM     10  N   UNL     1       1.217   8.064  21.352  0.00  0.00    +0.000 NA
ATOM     11  C   UNL     1       1.535   8.177  20.034  0.00  0.00    +0.000 A 
ATOM     12  C   UNL     1       0.915   9.337  19.475  0.00  0.00    +0.000 A 
ATOM     13  C   UNL     1       0.133   9.845  20.499  0.00  0.00    +0.000 A 
ATOM     14  N   UNL     1      -0.744  10.850  20.359  0.00  0.00    +0.000 N 
ATOM     15  H   UNL     1      -0.834  11.137  19.377  0.00  0.00    +0.000 HD
ENDROOT
BRANCH  11  16
ATOM     16  C   UNL     1       2.403   7.157  19.390  0.00  0.00    +0.000 A 
ATOM     17  C   UNL     1       2.733   5.959  20.036  0.00  0.00    +0.000 A 
ATOM     18  C   UNL     1       3.586   5.012  19.467  0.00  0.00    +0.000 A 
ATOM     19  C   UNL     1       4.176   5.254  18.237  0.00  0.00    +0.000 A 
ATOM     20  C   UNL     1       3.893   6.451  17.575  0.00  0.00    +0.000 A 
ATOM     21  C   UNL     1       2.994   7.380  18.135  0.00  0.00    +0.000 A 
BRANCH  19  22
ATOM     22  O   UNL     1       5.081   4.299  17.840  0.00  0.00    +0.000 OA
BRANCH  22  23
ATOM     23  C   UNL     1       5.662   4.376  16.600  0.00  0.00    +0.000 A 
ATOM     24  C   UNL     1       6.922   4.972  16.540  0.00  0.00    +0.000 A 
ATOM     25  C   UNL     1       7.567   5.115  15.312  0.00  0.00    +0.000 A 
ATOM     26  C   UNL     1       6.951   4.653  14.149  0.00  0.00    +0.000 A 
ATOM     27  C   UNL     1       5.721   4.003  14.218  0.00  0.00    +0.000 A 
ATOM     28  C   UNL     1       5.086   3.839  15.447  0.00  0.00    +0.000 A 
ENDBRANCH  22  23
ENDBRANCH  19  22
ENDBRANCH  11  16
BRANCH  12  29
ATOM     29  C   UNL     1       0.877   9.944  18.152  0.00  0.00    +0.000 C 
ATOM     30  N   UNL     1       1.959  10.710  17.795  0.00  0.00    +0.000 N 
ATOM     31  O   UNL     1      -0.042   9.863  17.347  0.00  0.00    +0.000 OA
ATOM     32  H   UNL     1       2.849  10.570  18.257  0.00  0.00    +0.000 HD
ATOM     33  H   UNL     1       1.959  11.018  16.831  0.00  0.00    +0.000 HD
ENDBRANCH  12  29
BRANCH   1  34
ATOM     34  O   UNL     1      -3.924  14.146  23.565  0.00  0.00    +0.000 OA
BRANCH  34  35
ATOM     35  C   UNL     1      -4.810  15.060  22.892  0.00  0.00    +0.000 C 
BRANCH  35  36
ATOM     36  C   UNL     1      -5.805  15.667  23.889  0.00  0.00    +0.000 C 
BRANCH  36  37
ATOM     37  N   UNL     1      -6.952  14.786  24.136  0.00  0.00    +0.000 NA
ATOM     38  H   UNL     1      -7.240  14.870  25.110  0.00  0.00    +0.000 HD
ATOM     39  H   UNL     1      -6.676  13.813  24.006  0.00  0.00    +0.000 HD
ENDBRANCH  36  37
ENDBRANCH  35  36
ENDBRANCH  34  35
ENDBRANCH   1  34
TORSDOF 8
ENDMDL
MODEL 5
REMARK VINA RESULT:      -7.8      2.308      4.002
REMARK  Name = 
REMARK  8 active torsions:
REMARK  status: ('A' for Active; 'I' for Inactive)
REMARK    1  A    between atoms: N_1  and  C_2
REMARK    2  A    between atoms: C_2  and  C_3
REMARK    3  A    between atoms: C_3  and  O_4
REMARK    4  A    between atoms: O_4  and  C_5
REMARK    5  A    between atoms: C_15  and  C_16
REMARK    6  A    between atoms: C_19  and  O_20
REMARK    7  A    between atoms: O_20  and  C_21
REMARK    8  A    between atoms: C_29  and  C_30
REMARK                            x       y       z     vdW  Elec       q    Type
REMARK                         _______ _______ _______ _____ _____    ______ ____
ROOT
ATOM      1  C   UNL     1       5.619   4.610  15.587  0.00  0.00    +0.000 A 
ATOM      2  C   UNL     1       5.498   5.913  15.127  0.00  0.00    +0.000 A 
ATOM      3  C   UNL     1       4.740   6.829  15.849  0.00  0.00    +0.000 A 
ATOM      4  C   UNL     1       4.066   6.487  17.040  0.00  0.00    +0.000 A 
ATOM      5  C   UNL     1       4.173   5.172  17.516  0.00  0.00    +0.000 A 
ATOM      6  C   UNL     1       4.959   4.249  16.773  0.00  0.00    +0.000 A 
ATOM      7  C   UNL     1       3.383   4.663  18.709  0.00  0.00    +0.000 C 
ATOM      8  C   UNL     1       3.239   5.582  19.928  0.00  0.00    +0.000 C 
ATOM      9  N   UNL     1       2.420   6.760  19.713  0.00  0.00    +0.000 N 
ATOM     10  N   UNL     1       1.604   7.226  20.689  0.00  0.00    +0.000 NA
ATOM     11  C   UNL     1       1.241   8.472  20.283  0.00  0.00    +0.000 A 
ATOM     12  C   UNL     1       1.757   8.733  18.975  0.00  0.00    +0.000 A 
ATOM     13  C   UNL     1       2.529   7.623  18.674  0.00  0.00    +0.000 A 
ATOM     14  N   UNL     1       3.324   7.520  17.599  0.00  0.00    +0.000 N 
ATOM     15  H   UNL     1       3.365   8.401  17.074  0.00  0.00    +0.000 HD
ENDROOT
BRANCH  11  16
ATOM     16  C   UNL     1       0.433   9.340  21.178  0.00  0.00    +0.000 A 
ATOM     17  C   UNL     1       0.071   8.930  22.467  0.00  0.00    +0.000 A 
ATOM     18  C   UNL     1      -0.729   9.710  23.304  0.00  0.00    +0.000 A 
ATOM     19  C   UNL     1      -1.231  10.922  22.858  0.00  0.00    +0.000 A 
ATOM     20  C   UNL     1      -0.914  11.351  21.567  0.00  0.00    +0.000 A 
ATOM     21  C   UNL     1      -0.068  10.580  20.747  0.00  0.00    +0.000 A 
BRANCH  19  22
ATOM     22  O   UNL     1      -2.095  11.538  23.732  0.00  0.00    +0.000 OA
BRANCH  22  23
ATOM     23  C   UNL     1      -2.637  12.758  23.415  0.00  0.00    +0.000 A 
ATOM     24  C   UNL     1      -1.846  13.877  23.677  0.00  0.00    +0.000 A 
ATOM     25  C   UNL     1      -2.337  15.154  23.410  0.00  0.00    +0.000 A 
ATOM     26  C   UNL     1      -3.616  15.307  22.875  0.00  0.00    +0.000 A 
ATOM     27  C   UNL     1      -4.380  14.186  22.556  0.00  0.00    +0.000 A 
ATOM     28  C   UNL     1      -3.882  12.909  22.800  0.00  0.00    +0.000 A 
ENDBRANCH  22  23
ENDBRANCH  19  22
ENDBRANCH  11  16
BRANCH  12  29
ATOM     29  C   UNL     1       1.712   9.866  18.061  0.00  0.00    +0.000 C 
ATOM     30  N   UNL     1       0.475  10.229  17.591  0.00  0.00    +0.000 N 
ATOM     31  O   UNL     1       2.676  10.499  17.648  0.00  0.00    +0.000 OA
ATOM     32  H   UNL     1      -0.356   9.968  18.109  0.00  0.00    +0.000 HD
ATOM     33  H   UNL     1       0.460  11.088  17.057  0.00  0.00    +0.000 HD
ENDBRANCH  12  29
BRANCH   1  34
ATOM     34  O   UNL     1       6.342   3.629  14.949  0.00  0.00    +0.000 OA
BRANCH  34  35
ATOM     35  C   UNL     1       6.762   3.933  13.607  0.00  0.00    +0.000 C 
BRANCH  35  36
ATOM     36  C   UNL     1       5.906   3.162  12.594  0.00  0.00    +0.000 C 
BRANCH  36  37
ATOM     37  N   UNL     1       6.690   2.180  11.838  0.00  0.00    +0.000 NA
ATOM     38  H   UNL     1       7.355   2.669  11.239  0.00  0.00    +0.000 HD
ATOM     39  H   UNL     1       6.079   1.656  11.212  0.00  0.00    +0.000 HD
ENDBRANCH  36  37
ENDBRANCH  35  36
ENDBRANCH  34  35
ENDBRANCH   1  34
TORSDOF 8
ENDMDL
MODEL 6
REMARK VINA RESULT:      -7.8      2.205     10.994
REMARK  Name = 
REMARK  8 active torsions:
REMARK  status: ('A' for Active; 'I' for Inactive)
REMARK    1  A    between atoms: N_1  and  C_2
REMARK    2  A    between atoms: C_2  and  C_3
REMARK    3  A    between atoms: C_3  and  O_4
REMARK    4  A    between atoms: O_4  and  C_5
REMARK    5  A    between atoms: C_15  and  C_16
REMARK    6  A    between atoms: C_19  and  O_20
REMARK    7  A    between atoms: O_20  and  C_21
REMARK    8  A    between atoms: C_29  and  C_30
REMARK                            x       y       z     vdW  Elec       q    Type
REMARK                         _______ _______ _______ _____ _____    ______ ____
ROOT
ATOM      1  C   UNL     1      -4.188  14.673  22.407  0.00  0.00    +0.000 A 
ATOM      2  C   UNL     1      -3.354  14.244  23.430  0.00  0.00    +0.000 A 
ATOM      3  C   UNL     1      -2.394  13.272  23.171  0.00  0.00    +0.000 A 
ATOM      4  C   UNL     1      -2.231  12.683  21.900  0.00  0.00    +0.000 A 
ATOM      5  C   UNL     1      -3.070  13.100  20.856  0.00  0.00    +0.000 A 
ATOM      6  C   UNL     1      -4.041  14.101  21.132  0.00  0.00    +0.000 A 
ATOM      7  C   UNL     1      -3.072  12.440  19.488  0.00  0.00    +0.000 C 
ATOM      8  C   UNL     1      -1.722  12.055  18.868  0.00  0.00    +0.000 C 
ATOM      9  N   UNL     1      -1.026  10.975  19.542  0.00  0.00    +0.000 N 
ATOM     10  N   UNL     1      -0.326  10.054  18.836  0.00  0.00    +0.000 NA
ATOM     11  C   UNL     1       0.433   9.403  19.758  0.00  0.00    +0.000 A 
ATOM     12  C   UNL     1       0.110   9.861  21.074  0.00  0.00    +0.000 A 
ATOM     13  C   UNL     1      -0.800  10.886  20.875  0.00  0.00    +0.000 A 
ATOM     14  N   UNL     1      -1.250  11.701  21.840  0.00  0.00    +0.000 N 
ATOM     15  H   UNL     1      -0.767  11.533  22.731  0.00  0.00    +0.000 HD
ENDROOT
BRANCH  11  16
ATOM     16  C   UNL     1       1.430   8.393  19.320  0.00  0.00    +0.000 A 
ATOM     17  C   UNL     1       1.750   7.285  20.115  0.00  0.00    +0.000 A 
ATOM     18  C   UNL     1       2.719   6.352  19.743  0.00  0.00    +0.000 A 
ATOM     19  C   UNL     1       3.438   6.522  18.571  0.00  0.00    +0.000 A 
ATOM     20  C   UNL     1       3.167   7.631  17.766  0.00  0.00    +0.000 A 
ATOM     21  C   UNL     1       2.154   8.542  18.125  0.00  0.00    +0.000 A 
BRANCH  19  22
ATOM     22  O   UNL     1       4.439   5.600  18.375  0.00  0.00    +0.000 OA
BRANCH  22  23
ATOM     23  C   UNL     1       4.164   4.259  18.461  0.00  0.00    +0.000 A 
ATOM     24  C   UNL     1       3.371   3.721  17.447  0.00  0.00    +0.000 A 
ATOM     25  C   UNL     1       3.022   2.372  17.478  0.00  0.00    +0.000 A 
ATOM     26  C   UNL     1       3.475   1.563  18.520  0.00  0.00    +0.000 A 
ATOM     27  C   UNL     1       4.318   2.088  19.499  0.00  0.00    +0.000 A 
ATOM     28  C   UNL     1       4.686   3.430  19.456  0.00  0.00    +0.000 A 
ENDBRANCH  22  23
ENDBRANCH  19  22
ENDBRANCH  11  16
BRANCH  12  29
ATOM     29  C   UNL     1       0.590   9.556  22.414  0.00  0.00    +0.000 C 
ATOM     30  N   UNL     1      -0.360   9.216  23.345  0.00  0.00    +0.000 N 
ATOM     31  O   UNL     1       1.753   9.608  22.794  0.00  0.00    +0.000 OA
ATOM     32  H   UNL     1      -1.258   8.861  23.040  0.00  0.00    +0.000 HD
ATOM     33  H   UNL     1       0.011   8.894  24.229  0.00  0.00    +0.000 HD
ENDBRANCH  12  29
BRANCH   1  34
ATOM     34  O   UNL     1      -5.169  15.625  22.557  0.00  0.00    +0.000 OA
BRANCH  34  35
ATOM     35  C   UNL     1      -5.777  15.696  23.859  0.00  0.00    +0.000 C 
BRANCH  35  36
ATOM     36  C   UNL     1      -7.132  14.977  23.853  0.00  0.00    +0.000 C 
BRANCH  36  37
ATOM     37  N   UNL     1      -7.077  13.684  24.544  0.00  0.00    +0.000 NA
ATOM     38  H   UNL     1      -6.171  13.249  24.375  0.00  0.00    +0.000 HD
ATOM     39  H   UNL     1      -7.773  13.051  24.151  0.00  0.00    +0.000 HD
ENDBRANCH  36  37
ENDBRANCH  35  36
ENDBRANCH  34  35
ENDBRANCH   1  34
TORSDOF 8
ENDMDL
MODEL 7
REMARK VINA RESULT:      -7.8      2.987     11.751
REMARK  Name = 
REMARK  8 active torsions:
REMARK  status: ('A' for Active; 'I' for Inactive)
REMARK    1  A    between atoms: N_1  and  C_2
REMARK    2  A    between atoms: C_2  and  C_3
REMARK    3  A    between atoms: C_3  and  O_4
REMARK    4  A    between atoms: O_4  and  C_5
REMARK    5  A    between atoms: C_15  and  C_16
REMARK    6  A    between atoms: C_19  and  O_20
REMARK    7  A    between atoms: O_20  and  C_21
REMARK    8  A    between atoms: C_29  and  C_30
REMARK                            x       y       z     vdW  Elec       q    Type
REMARK                         _______ _______ _______ _____ _____    ______ ____
ROOT
ATOM      1  C   UNL     1      -0.803  10.657  22.591  0.00  0.00    +0.000 A 
ATOM      2  C   UNL     1      -0.206   9.587  23.240  0.00  0.00    +0.000 A 
ATOM      3  C   UNL     1       0.635   8.736  22.532  0.00  0.00    +0.000 A 
ATOM      4  C   UNL     1       0.906   8.905  21.158  0.00  0.00    +0.000 A 
ATOM      5  C   UNL     1       0.306   9.978  20.484  0.00  0.00    +0.000 A 
ATOM      6  C   UNL     1      -0.544  10.846  21.223  0.00  0.00    +0.000 A 
ATOM      7  C   UNL     1       0.420  10.174  18.982  0.00  0.00    +0.000 C 
ATOM      8  C   UNL     1       1.780   9.918  18.320  0.00  0.00    +0.000 C 
ATOM      9  N   UNL     1       2.205   8.531  18.311  0.00  0.00    +0.000 N 
ATOM     10  N   UNL     1       2.867   8.015  17.248  0.00  0.00    +0.000 NA
ATOM     11  C   UNL     1       3.375   6.832  17.687  0.00  0.00    +0.000 A 
ATOM     12  C   UNL     1       2.922   6.565  19.017  0.00  0.00    +0.000 A 
ATOM     13  C   UNL     1       2.208   7.696  19.378  0.00  0.00    +0.000 A 
ATOM     14  N   UNL     1       1.735   7.934  20.610  0.00  0.00    +0.000 N 
ATOM     15  H   UNL     1       2.047   7.220  21.279  0.00  0.00    +0.000 HD
ENDROOT
BRANCH  11  16
ATOM     16  C   UNL     1       4.274   6.038  16.810  0.00  0.00    +0.000 A 
ATOM     17  C   UNL     1       5.150   6.653  15.907  0.00  0.00    +0.000 A 
ATOM     18  C   UNL     1       5.966   5.924  15.041  0.00  0.00    +0.000 A 
ATOM     19  C   UNL     1       5.901   4.540  15.021  0.00  0.00    +0.000 A 
ATOM     20  C   UNL     1       5.018   3.892  15.888  0.00  0.00    +0.000 A 
ATOM     21  C   UNL     1       4.234   4.634  16.792  0.00  0.00    +0.000 A 
BRANCH  19  22
ATOM     22  O   UNL     1       6.669   3.946  14.048  0.00  0.00    +0.000 OA
BRANCH  22  23
ATOM     23  C   UNL     1       6.070   3.367  12.958  0.00  0.00    +0.000 A 
ATOM     24  C   UNL     1       4.831   3.888  12.580  0.00  0.00    +0.000 A 
ATOM     25  C   UNL     1       4.144   3.335  11.501  0.00  0.00    +0.000 A 
ATOM     26  C   UNL     1       4.703   2.269  10.797  0.00  0.00    +0.000 A 
ATOM     27  C   UNL     1       5.968   1.791  11.136  0.00  0.00    +0.000 A 
ATOM     28  C   UNL     1       6.665   2.358  12.199  0.00  0.00    +0.000 A 
ENDBRANCH  22  23
ENDBRANCH  19  22
ENDBRANCH  11  16
BRANCH  12  29
ATOM     29  C   UNL     1       3.142   5.496  19.981  0.00  0.00    +0.000 C 
ATOM     30  N   UNL     1       4.419   5.000  20.068  0.00  0.00    +0.000 N 
ATOM     31  O   UNL     1       2.290   4.979  20.693  0.00  0.00    +0.000 OA
ATOM     32  H   UNL     1       5.200   5.564  19.757  0.00  0.00    +0.000 HD
ATOM     33  H   UNL     1       4.568   4.346  20.826  0.00  0.00    +0.000 HD
ENDBRANCH  12  29
BRANCH   1  34
ATOM     34  O   UNL     1      -1.651  11.555  23.197  0.00  0.00    +0.000 OA
BRANCH  34  35
ATOM     35  C   UNL     1      -1.979  12.724  22.424  0.00  0.00    +0.000 C 
BRANCH  35  36
ATOM     36  C   UNL     1      -1.424  13.983  23.101  0.00  0.00    +0.000 C 
BRANCH  36  37
ATOM     37  N   UNL     1      -0.047  14.274  22.688  0.00  0.00    +0.000 NA
ATOM     38  H   UNL     1      -0.037  15.123  22.122  0.00  0.00    +0.000 HD
ATOM     39  H   UNL     1       0.299  13.528  22.085  0.00  0.00    +0.000 HD
ENDBRANCH  36  37
ENDBRANCH  35  36
ENDBRANCH  34  35
ENDBRANCH   1  34
TORSDOF 8
ENDMDL
MODEL 8
REMARK VINA RESULT:      -7.7      2.892     11.735
REMARK  Name = 
REMARK  8 active torsions:
REMARK  status: ('A' for Active; 'I' for Inactive)
REMARK    1  A    between atoms: N_1  and  C_2
REMARK    2  A    between atoms: C_2  and  C_3
REMARK    3  A    between atoms: C_3  and  O_4
REMARK    4  A    between atoms: O_4  and  C_5
REMARK    5  A    between atoms: C_15  and  C_16
REMARK    6  A    between atoms: C_19  and  O_20
REMARK    7  A    between atoms: O_20  and  C_21
REMARK    8  A    between atoms: C_29  and  C_30
REMARK                            x       y       z     vdW  Elec       q    Type
REMARK                         _______ _______ _______ _____ _____    ______ ____
ROOT
ATOM      1  C   UNL     1      -1.071  11.127  22.440  0.00  0.00    +0.000 A 
ATOM      2  C   UNL     1      -0.617  10.002  23.113  0.00  0.00    +0.000 A 
ATOM      3  C   UNL     1       0.210   9.097  22.457  0.00  0.00    +0.000 A 
ATOM      4  C   UNL     1       0.607   9.264  21.114  0.00  0.00    +0.000 A 
ATOM      5  C   UNL     1       0.151  10.392  20.416  0.00  0.00    +0.000 A 
ATOM      6  C   UNL     1      -0.686  11.314  21.102  0.00  0.00    +0.000 A 
ATOM      7  C   UNL     1       0.405  10.600  18.933  0.00  0.00    +0.000 C 
ATOM      8  C   UNL     1       1.791  10.245  18.379  0.00  0.00    +0.000 C 
ATOM      9  N   UNL     1       2.103   8.829  18.375  0.00  0.00    +0.000 N 
ATOM     10  N   UNL     1       2.808   8.277  17.358  0.00  0.00    +0.000 NA
ATOM     11  C   UNL     1       3.183   7.050  17.811  0.00  0.00    +0.000 A 
ATOM     12  C   UNL     1       2.601   6.801  19.094  0.00  0.00    +0.000 A 
ATOM     13  C   UNL     1       1.952   7.980  19.420  0.00  0.00    +0.000 A 
ATOM     14  N   UNL     1       1.399   8.237  20.614  0.00  0.00    +0.000 N 
ATOM     15  H   UNL     1       1.596   7.490  21.290  0.00  0.00    +0.000 HD
ENDROOT
BRANCH  11  16
ATOM     16  C   UNL     1       4.086   6.199  16.994  0.00  0.00    +0.000 A 
ATOM     17  C   UNL     1       5.019   6.756  16.111  0.00  0.00    +0.000 A 
ATOM     18  C   UNL     1       5.841   5.974  15.299  0.00  0.00    +0.000 A 
ATOM     19  C   UNL     1       5.726   4.593  15.314  0.00  0.00    +0.000 A 
ATOM     20  C   UNL     1       4.785   4.002  16.161  0.00  0.00    +0.000 A 
ATOM     21  C   UNL     1       3.993   4.797  17.012  0.00  0.00    +0.000 A 
BRANCH  19  22
ATOM     22  O   UNL     1       6.509   3.944  14.389  0.00  0.00    +0.000 OA
BRANCH  22  23
ATOM     23  C   UNL     1       5.951   3.465  13.231  0.00  0.00    +0.000 A 
ATOM     24  C   UNL     1       4.733   4.030  12.848  0.00  0.00    +0.000 A 
ATOM     25  C   UNL     1       4.087   3.578  11.699  0.00  0.00    +0.000 A 
ATOM     26  C   UNL     1       4.666   2.567  10.931  0.00  0.00    +0.000 A 
ATOM     27  C   UNL     1       5.912   2.048  11.280  0.00  0.00    +0.000 A 
ATOM     28  C   UNL     1       6.569   2.515  12.415  0.00  0.00    +0.000 A 
ENDBRANCH  22  23
ENDBRANCH  19  22
ENDBRANCH  11  16
BRANCH  12  29
ATOM     29  C   UNL     1       2.655   5.703  20.050  0.00  0.00    +0.000 C 
ATOM     30  N   UNL     1       3.892   5.162  20.295  0.00  0.00    +0.000 N 
ATOM     31  O   UNL     1       1.699   5.199  20.624  0.00  0.00    +0.000 OA
ATOM     32  H   UNL     1       4.726   5.707  20.108  0.00  0.00    +0.000 HD
ATOM     33  H   UNL     1       3.917   4.486  21.048  0.00  0.00    +0.000 HD
ENDBRANCH  12  29
BRANCH   1  34
ATOM     34  O   UNL     1      -1.893  12.081  22.994  0.00  0.00    +0.000 OA
BRANCH  34  35
ATOM     35  C   UNL     1      -2.377  13.090  22.089  0.00  0.00    +0.000 C 
BRANCH  35  36
ATOM     36  C   UNL     1      -3.834  13.442  22.417  0.00  0.00    +0.000 C 
BRANCH  36  37
ATOM     37  N   UNL     1      -4.778  12.451  21.889  0.00  0.00    +0.000 NA
ATOM     38  H   UNL     1      -5.661  12.911  21.667  0.00  0.00    +0.000 HD
ATOM     39  H   UNL     1      -4.991  11.759  22.607  0.00  0.00    +0.000 HD
ENDBRANCH  36  37
ENDBRANCH  35  36
ENDBRANCH  34  35
ENDBRANCH   1  34
TORSDOF 8
ENDMDL
MODEL 9
REMARK VINA RESULT:      -7.7      2.009      2.818
REMARK  Name = 
REMARK  8 active torsions:
REMARK  status: ('A' for Active; 'I' for Inactive)
REMARK    1  A    between atoms: N_1  and  C_2
REMARK    2  A    between atoms: C_2  and  C_3
REMARK    3  A    between atoms: C_3  and  O_4
REMARK    4  A    between atoms: O_4  and  C_5
REMARK    5  A    between atoms: C_15  and  C_16
REMARK    6  A    between atoms: C_19  and  O_20
REMARK    7  A    between atoms: O_20  and  C_21
REMARK    8  A    between atoms: C_29  and  C_30
REMARK                            x       y       z     vdW  Elec       q    Type
REMARK                         _______ _______ _______ _____ _____    ______ ____
ROOT
ATOM      1  C   UNL     1       3.672   4.946  18.538  0.00  0.00    +0.000 A 
ATOM      2  C   UNL     1       3.217   4.776  19.837  0.00  0.00    +0.000 A 
ATOM      3  C   UNL     1       2.506   5.799  20.455  0.00  0.00    +0.000 A 
ATOM      4  C   UNL     1       2.229   7.026  19.817  0.00  0.00    +0.000 A 
ATOM      5  C   UNL     1       2.688   7.217  18.505  0.00  0.00    +0.000 A 
ATOM      6  C   UNL     1       3.405   6.160  17.882  0.00  0.00    +0.000 A 
ATOM      7  C   UNL     1       2.565   8.544  17.776  0.00  0.00    +0.000 C 
ATOM      8  C   UNL     1       1.258   9.335  17.926  0.00  0.00    +0.000 C 
ATOM      9  N   UNL     1       1.024   9.882  19.249  0.00  0.00    +0.000 N 
ATOM     10  N   UNL     1       0.450  11.099  19.405  0.00  0.00    +0.000 NA
ATOM     11  C   UNL     1       0.100  11.161  20.718  0.00  0.00    +0.000 A 
ATOM     12  C   UNL     1       0.570  10.000  21.407  0.00  0.00    +0.000 A 
ATOM     13  C   UNL     1       1.122   9.203  20.418  0.00  0.00    +0.000 A 
ATOM     14  N   UNL     1       1.545   7.944  20.604  0.00  0.00    +0.000 N 
ATOM     15  H   UNL     1       1.324   7.608  21.548  0.00  0.00    +0.000 HD
ENDROOT
BRANCH  11  16
ATOM     16  C   UNL     1      -0.675  12.322  21.227  0.00  0.00    +0.000 A 
ATOM     17  C   UNL     1      -0.134  13.613  21.247  0.00  0.00    +0.000 A 
ATOM     18  C   UNL     1      -0.827  14.707  21.766  0.00  0.00    +0.000 A 
ATOM     19  C   UNL     1      -2.082  14.535  22.328  0.00  0.00    +0.000 A 
ATOM     20  C   UNL     1      -2.642  13.256  22.352  0.00  0.00    +0.000 A 
ATOM     21  C   UNL     1      -1.956  12.166  21.782  0.00  0.00    +0.000 A 
BRANCH  19  22
ATOM     22  O   UNL     1      -2.610  15.666  22.906  0.00  0.00    +0.000 OA
BRANCH  22  23
ATOM     23  C   UNL     1      -2.049  16.180  24.047  0.00  0.00    +0.000 A 
ATOM     24  C   UNL     1      -1.785  15.272  25.073  0.00  0.00    +0.000 A 
ATOM     25  C   UNL     1      -1.243  15.720  26.277  0.00  0.00    +0.000 A 
ATOM     26  C   UNL     1      -0.957  17.075  26.446  0.00  0.00    +0.000 A 
ATOM     27  C   UNL     1      -1.162  17.970  25.397  0.00  0.00    +0.000 A 
ATOM     28  C   UNL     1      -1.683  17.520  24.187  0.00  0.00    +0.000 A 
ENDBRANCH  22  23
ENDBRANCH  19  22
ENDBRANCH  11  16
BRANCH  12  29
ATOM     29  C   UNL     1       0.485   9.515  22.778  0.00  0.00    +0.000 C 
ATOM     30  N   UNL     1      -0.764   9.178  23.234  0.00  0.00    +0.000 N 
ATOM     31  O   UNL     1       1.416   9.415  23.567  0.00  0.00    +0.000 OA
ATOM     32  H   UNL     1      -1.496   8.945  22.573  0.00  0.00    +0.000 HD
ATOM     33  H   UNL     1      -0.777   8.734  24.143  0.00  0.00    +0.000 HD
ENDBRANCH  12  29
BRANCH   1  34
ATOM     34  O   UNL     1       4.385   4.001  17.838  0.00  0.00    +0.000 OA
BRANCH  34  35
ATOM     35  C   UNL     1       4.612   4.293  16.447  0.00  0.00    +0.000 C 
BRANCH  35  36
ATOM     36  C   UNL     1       6.076   4.020  16.079  0.00  0.00    +0.000 C 
BRANCH  36  37
ATOM     37  N   UNL     1       6.227   3.587  14.685  0.00  0.00    +0.000 NA
ATOM     38  H   UNL     1       7.200   3.698  14.401  0.00  0.00    +0.000 HD
ATOM     39  H   UNL     1       5.683   4.194  14.073  0.00  0.00    +0.000 HD
ENDBRANCH  36  37
ENDBRANCH  35  36
ENDBRANCH  34  35
ENDBRANCH   1  34
TORSDOF 8
ENDMDL
