MODEL 1
REMARK VINA RESULT:      -7.1      0.000      0.000
REMARK  Name = 
REMARK  5 active torsions:
REMARK  status: ('A' for Active; 'I' for Inactive)
REMARK    1  A    between atoms: C_2  and  C_3
REMARK    2  A    between atoms: C_8  and  O_9
REMARK    3  A    between atoms: O_9  and  C_10
REMARK    4  A    between atoms: N_16  and  C_17
REMARK    5  A    between atoms: C_17  and  C_18
REMARK                            x       y       z     vdW  Elec       q    Type
REMARK                         _______ _______ _______ _____ _____    ______ ____
ROOT
ATOM      1  C   UNL     1       2.871   6.287  19.017  0.00  0.00    +0.000 C 
ATOM      2  C   UNL     1       3.707   5.249  19.762  0.00  0.00    +0.000 C 
ATOM      3  C   UNL     1       5.216   5.287  19.530  0.00  0.00    +0.000 C 
ATOM      4  N   UNL     1       5.644   5.460  18.146  0.00  0.00    +0.000 N 
ATOM      5  C   UNL     1       6.989   5.118  17.942  0.00  0.00    +0.000 C 
ATOM      6  O   UNL     1       7.667   4.570  18.803  0.00  0.00    +0.000 OA
ATOM      7  N   UNL     1       7.621   5.351  16.762  0.00  0.00    +0.000 N 
ATOM      8  C   UNL     1       4.907   6.512  17.440  0.00  0.00    +0.000 C 
ATOM      9  C   UNL     1       3.390   6.473  17.595  0.00  0.00    +0.000 C 
ATOM     10  H   UNL     1       8.598   5.080  16.781  0.00  0.00    +0.000 HD
ENDROOT
BRANCH   1  11
ATOM     11  O   UNL     1       2.845   7.564  19.666  0.00  0.00    +0.000 OA
BRANCH  11  17
ATOM     12  C   UNL     1       1.157   9.206  19.513  0.00  0.00    +0.000 A 
ATOM     13  C   UNL     1       0.048   9.908  20.013  0.00  0.00    +0.000 A 
ATOM     14  C   UNL     1      -0.575   9.478  21.176  0.00  0.00    +0.000 A 
ATOM     15  C   UNL     1      -0.117   8.325  21.808  0.00  0.00    +0.000 A 
ATOM     16  C   UNL     1       0.988   7.616  21.300  0.00  0.00    +0.000 A 
ATOM     17  C   UNL     1       1.668   8.076  20.170  0.00  0.00    +0.000 A 
BRANCH  12  19
ATOM     18  N   UNL     1       2.263  10.033  17.334  0.00  0.00    +0.000 NA
ATOM     19  C   UNL     1       1.746   9.663  18.303  0.00  0.00    +0.000 C 
ENDBRANCH  12  19
ENDBRANCH  11  17
ENDBRANCH   1  11
BRANCH   7  20
ATOM     20  C   UNL     1       7.066   5.855  15.544  0.00  0.00    +0.000 C 
BRANCH  20  21
ATOM     21  C   UNL     1       6.687   4.888  14.466  0.00  0.00    +0.000 A 
ATOM     22  C   UNL     1       5.511   4.140  14.652  0.00  0.00    +0.000 A 
ATOM     23  C   UNL     1       4.962   3.408  13.603  0.00  0.00    +0.000 A 
ATOM     24  C   UNL     1       5.598   3.401  12.365  0.00  0.00    +0.000 A 
ATOM     25 CL   UNL     1       4.904   2.518  11.063  0.00  0.00    +0.000 Cl
ATOM     26  C   UNL     1       6.779   4.114  12.168  0.00  0.00    +0.000 A 
ATOM     27  C   UNL     1       7.326   4.853  13.219  0.00  0.00    +0.000 A 
ATOM     28 CL   UNL     1       8.753   5.772  12.900  0.00  0.00    +0.000 Cl
ENDBRANCH  20  21
ENDBRANCH   7  20
TORSDOF 5
ENDMDL
MODEL 2
REMARK VINA RESULT:      -7.0      4.848      8.863
REMARK  Name = 
REMARK  5 active torsions:
REMARK  status: ('A' for Active; 'I' for Inactive)
REMARK    1  A    between atoms: C_2  and  C_3
REMARK    2  A    between atoms: C_8  and  O_9
REMARK    3  A    between atoms: O_9  and  C_10
REMARK    4  A    between atoms: N_16  and  C_17
REMARK    5  A    between atoms: C_17  and  C_18
REMARK                            x       y       z     vdW  Elec       q    Type
REMARK                         _______ _______ _______ _____ _____    ______ ____
ROOT
ATOM      1  C   UNL     1       2.954   6.870  18.451  0.00  0.00    +0.000 C 
ATOM      2  C   UNL     1       2.711   6.924  19.957  0.00  0.00    +0.000 C 
ATOM      3  C   UNL     1       1.486   7.706  20.427  0.00  0.00    +0.000 C 
ATOM      4  N   UNL     1       1.263   8.993  19.780  0.00  0.00    +0.000 N 
ATOM      5  C   UNL     1       0.375   9.816  20.487  0.00  0.00    +0.000 C 
ATOM      6  O   UNL     1      -0.024   9.541  21.612  0.00  0.00    +0.000 OA
ATOM      7  N   UNL     1      -0.081  10.991  19.978  0.00  0.00    +0.000 N 
ATOM      8  C   UNL     1       1.411   8.940  18.322  0.00  0.00    +0.000 C 
ATOM      9  C   UNL     1       2.656   8.222  17.810  0.00  0.00    +0.000 C 
ATOM     10  H   UNL     1      -0.742  11.454  20.592  0.00  0.00    +0.000 HD
ENDROOT
BRANCH   1  11
ATOM     11  O   UNL     1       2.176   5.867  17.787  0.00  0.00    +0.000 OA
BRANCH  11  17
ATOM     12  C   UNL     1       3.121   3.707  17.697  0.00  0.00    +0.000 A 
ATOM     13  C   UNL     1       3.118   2.330  17.972  0.00  0.00    +0.000 A 
ATOM     14  C   UNL     1       2.154   1.795  18.815  0.00  0.00    +0.000 A 
ATOM     15  C   UNL     1       1.228   2.644  19.416  0.00  0.00    +0.000 A 
ATOM     16  C   UNL     1       1.238   4.026  19.148  0.00  0.00    +0.000 A 
ATOM     17  C   UNL     1       2.158   4.568  18.248  0.00  0.00    +0.000 A 
BRANCH  12  19
ATOM     18  N   UNL     1       4.968   4.605  16.136  0.00  0.00    +0.000 NA
ATOM     19  C   UNL     1       4.144   4.217  16.852  0.00  0.00    +0.000 C 
ENDBRANCH  12  19
ENDBRANCH  11  17
ENDBRANCH   1  11
BRANCH   7  20
ATOM     20  C   UNL     1       0.297  11.634  18.758  0.00  0.00    +0.000 C 
BRANCH  20  21
ATOM     21  C   UNL     1       1.174  12.846  18.821  0.00  0.00    +0.000 A 
ATOM     22  C   UNL     1       2.487  12.721  18.334  0.00  0.00    +0.000 A 
ATOM     23  C   UNL     1       3.279  13.848  18.131  0.00  0.00    +0.000 A 
ATOM     24  C   UNL     1       2.771  15.107  18.435  0.00  0.00    +0.000 A 
ATOM     25 CL   UNL     1       3.741  16.500  18.159  0.00  0.00    +0.000 Cl
ATOM     26  C   UNL     1       1.482  15.250  18.944  0.00  0.00    +0.000 A 
ATOM     27  C   UNL     1       0.685  14.121  19.141  0.00  0.00    +0.000 A 
ATOM     28 CL   UNL     1      -0.928  14.362  19.709  0.00  0.00    +0.000 Cl
ENDBRANCH  20  21
ENDBRANCH   7  20
TORSDOF 5
ENDMDL
MODEL 3
REMARK VINA RESULT:      -7.0      4.948      8.874
REMARK  Name = 
REMARK  5 active torsions:
REMARK  status: ('A' for Active; 'I' for Inactive)
REMARK    1  A    between atoms: C_2  and  C_3
REMARK    2  A    between atoms: C_8  and  O_9
REMARK    3  A    between atoms: O_9  and  C_10
REMARK    4  A    between atoms: N_16  and  C_17
REMARK    5  A    between atoms: C_17  and  C_18
REMARK                            x       y       z     vdW  Elec       q    Type
REMARK                         _______ _______ _______ _____ _____    ______ ____
ROOT
ATOM      1  C   UNL     1       3.083   6.697  18.171  0.00  0.00    +0.000 C 
ATOM      2  C   UNL     1       3.205   6.545  19.685  0.00  0.00    +0.000 C 
ATOM      3  C   UNL     1       2.062   7.111  20.525  0.00  0.00    +0.000 C 
ATOM      4  N   UNL     1       1.573   8.428  20.134  0.00  0.00    +0.000 N 
ATOM      5  C   UNL     1       0.809   9.049  21.132  0.00  0.00    +0.000 C 
ATOM      6  O   UNL     1       0.719   8.597  22.268  0.00  0.00    +0.000 OA
ATOM      7  N   UNL     1       0.139  10.210  20.911  0.00  0.00    +0.000 N 
ATOM      8  C   UNL     1       1.372   8.564  18.687  0.00  0.00    +0.000 C 
ATOM      9  C   UNL     1       2.519   8.068  17.812  0.00  0.00    +0.000 C 
ATOM     10  H   UNL     1      -0.395  10.514  21.718  0.00  0.00    +0.000 HD
ENDROOT
BRANCH   1  11
ATOM     11  O   UNL     1       2.264   5.690  17.564  0.00  0.00    +0.000 OA
BRANCH  11  17
ATOM     12  C   UNL     1       3.195   3.522  17.579  0.00  0.00    +0.000 A 
ATOM     13  C   UNL     1       3.176   2.156  17.906  0.00  0.00    +0.000 A 
ATOM     14  C   UNL     1       2.188   1.660  18.745  0.00  0.00    +0.000 A 
ATOM     15  C   UNL     1       1.254   2.538  19.291  0.00  0.00    +0.000 A 
ATOM     16  C   UNL     1       1.281   3.908  18.971  0.00  0.00    +0.000 A 
ATOM     17  C   UNL     1       2.226   4.409  18.074  0.00  0.00    +0.000 A 
BRANCH  12  19
ATOM     18  N   UNL     1       5.099   4.409  16.082  0.00  0.00    +0.000 NA
ATOM     19  C   UNL     1       4.242   3.993  16.741  0.00  0.00    +0.000 C 
ENDBRANCH  12  19
ENDBRANCH  11  17
ENDBRANCH   1  11
BRANCH   7  20
ATOM     20  C   UNL     1       0.153  11.033  19.741  0.00  0.00    +0.000 C 
BRANCH  20  21
ATOM     21  C   UNL     1      -1.135  11.295  19.025  0.00  0.00    +0.000 A 
ATOM     22  C   UNL     1      -1.405  10.531  17.876  0.00  0.00    +0.000 A 
ATOM     23  C   UNL     1      -2.673  10.538  17.301  0.00  0.00    +0.000 A 
ATOM     24  C   UNL     1      -3.673  11.328  17.857  0.00  0.00    +0.000 A 
ATOM     25 CL   UNL     1      -5.246  11.316  17.160  0.00  0.00    +0.000 Cl
ATOM     26  C   UNL     1      -3.419  12.114  18.979  0.00  0.00    +0.000 A 
ATOM     27  C   UNL     1      -2.150  12.101  19.560  0.00  0.00    +0.000 A 
ATOM     28 CL   UNL     1      -1.909  13.040  20.989  0.00  0.00    +0.000 Cl
ENDBRANCH  20  21
ENDBRANCH   7  20
TORSDOF 5
ENDMDL
MODEL 4
REMARK VINA RESULT:      -6.9      1.857      2.580
REMARK  Name = 
REMARK  5 active torsions:
REMARK  status: ('A' for Active; 'I' for Inactive)
REMARK    1  A    between atoms: C_2  and  C_3
REMARK    2  A    between atoms: C_8  and  O_9
REMARK    3  A    between atoms: O_9  and  C_10
REMARK    4  A    between atoms: N_16  and  C_17
REMARK    5  A    between atoms: C_17  and  C_18
REMARK                            x       y       z     vdW  Elec       q    Type
REMARK                         _______ _______ _______ _____ _____    ______ ____
ROOT
ATOM      1  C   UNL     1       1.336   6.362  19.978  0.00  0.00    +0.000 C 
ATOM      2  C   UNL     1       1.665   5.178  20.883  0.00  0.00    +0.000 C 
ATOM      3  C   UNL     1       3.006   4.486  20.648  0.00  0.00    +0.000 C 
ATOM      4  N   UNL     1       3.361   4.238  19.255  0.00  0.00    +0.000 N 
ATOM      5  C   UNL     1       4.386   3.292  19.110  0.00  0.00    +0.000 C 
ATOM      6  O   UNL     1       4.805   2.627  20.050  0.00  0.00    +0.000 OA
ATOM      7  N   UNL     1       4.964   3.034  17.908  0.00  0.00    +0.000 N 
ATOM      8  C   UNL     1       3.128   5.395  18.385  0.00  0.00    +0.000 C 
ATOM      9  C   UNL     1       1.773   6.079  18.544  0.00  0.00    +0.000 C 
ATOM     10  H   UNL     1       5.712   2.352  17.971  0.00  0.00    +0.000 HD
ENDROOT
BRANCH   1  11
ATOM     11  O   UNL     1       1.939   7.589  20.407  0.00  0.00    +0.000 OA
BRANCH  11  17
ATOM     12  C   UNL     1       1.038   9.729  19.993  0.00  0.00    +0.000 A 
ATOM     13  C   UNL     1       0.399  10.915  20.393  0.00  0.00    +0.000 A 
ATOM     14  C   UNL     1      -0.135  11.015  21.670  0.00  0.00    +0.000 A 
ATOM     15  C   UNL     1      -0.070   9.917  22.524  0.00  0.00    +0.000 A 
ATOM     16  C   UNL     1       0.561   8.726  22.119  0.00  0.00    +0.000 A 
ATOM     17  C   UNL     1       1.164   8.634  20.862  0.00  0.00    +0.000 A 
BRANCH  12  19
ATOM     18  N   UNL     1       1.918   9.600  17.572  0.00  0.00    +0.000 NA
ATOM     19  C   UNL     1       1.544   9.659  18.667  0.00  0.00    +0.000 C 
ENDBRANCH  12  19
ENDBRANCH  11  17
ENDBRANCH   1  11
BRANCH   7  20
ATOM     20  C   UNL     1       4.608   3.552  16.623  0.00  0.00    +0.000 C 
BRANCH  20  21
ATOM     21  C   UNL     1       5.697   3.965  15.683  0.00  0.00    +0.000 A 
ATOM     22  C   UNL     1       5.588   3.549  14.343  0.00  0.00    +0.000 A 
ATOM     23  C   UNL     1       6.417   4.088  13.364  0.00  0.00    +0.000 A 
ATOM     24  C   UNL     1       7.376   5.031  13.719  0.00  0.00    +0.000 A 
ATOM     25 CL   UNL     1       8.382   5.714  12.503  0.00  0.00    +0.000 Cl
ATOM     26  C   UNL     1       7.518   5.436  15.044  0.00  0.00    +0.000 A 
ATOM     27  C   UNL     1       6.682   4.901  16.026  0.00  0.00    +0.000 A 
ATOM     28 CL   UNL     1       6.856   5.489  17.641  0.00  0.00    +0.000 Cl
ENDBRANCH  20  21
ENDBRANCH   7  20
TORSDOF 5
ENDMDL
MODEL 5
REMARK VINA RESULT:      -6.9      2.903      3.991
REMARK  Name = 
REMARK  5 active torsions:
REMARK  status: ('A' for Active; 'I' for Inactive)
REMARK    1  A    between atoms: C_2  and  C_3
REMARK    2  A    between atoms: C_8  and  O_9
REMARK    3  A    between atoms: O_9  and  C_10
REMARK    4  A    between atoms: N_16  and  C_17
REMARK    5  A    between atoms: C_17  and  C_18
REMARK                            x       y       z     vdW  Elec       q    Type
REMARK                         _______ _______ _______ _____ _____    ______ ____
ROOT
ATOM      1  C   UNL     1       1.543   6.715  19.769  0.00  0.00    +0.000 C 
ATOM      2  C   UNL     1       1.412   5.334  20.406  0.00  0.00    +0.000 C 
ATOM      3  C   UNL     1       2.705   4.550  20.617  0.00  0.00    +0.000 C 
ATOM      4  N   UNL     1       3.648   4.563  19.505  0.00  0.00    +0.000 N 
ATOM      5  C   UNL     1       4.616   3.553  19.594  0.00  0.00    +0.000 C 
ATOM      6  O   UNL     1       4.557   2.656  20.428  0.00  0.00    +0.000 OA
ATOM      7  N   UNL     1       5.672   3.488  18.742  0.00  0.00    +0.000 N 
ATOM      8  C   UNL     1       3.849   5.899  18.934  0.00  0.00    +0.000 C 
ATOM      9  C   UNL     1       2.578   6.693  18.649  0.00  0.00    +0.000 C 
ATOM     10  H   UNL     1       6.302   2.722  18.956  0.00  0.00    +0.000 HD
ENDROOT
BRANCH   1  11
ATOM     11  O   UNL     1       1.901   7.739  20.705  0.00  0.00    +0.000 OA
BRANCH  11  17
ATOM     12  C   UNL     1       0.739   9.770  20.404  0.00  0.00    +0.000 A 
ATOM     13  C   UNL     1      -0.089  10.814  20.850  0.00  0.00    +0.000 A 
ATOM     14  C   UNL     1      -0.722  10.716  22.081  0.00  0.00    +0.000 A 
ATOM     15  C   UNL     1      -0.564   9.558  22.838  0.00  0.00    +0.000 A 
ATOM     16  C   UNL     1       0.257   8.508  22.386  0.00  0.00    +0.000 A 
ATOM     17  C   UNL     1       0.956   8.621  21.182  0.00  0.00    +0.000 A 
BRANCH  12  19
ATOM     18  N   UNL     1       1.805   9.986  18.066  0.00  0.00    +0.000 NA
ATOM     19  C   UNL     1       1.344   9.898  19.125  0.00  0.00    +0.000 C 
ENDBRANCH  12  19
ENDBRANCH  11  17
ENDBRANCH   1  11
BRANCH   7  20
ATOM     20  C   UNL     1       5.943   4.308  17.602  0.00  0.00    +0.000 C 
BRANCH  20  21
ATOM     21  C   UNL     1       6.507   5.679  17.813  0.00  0.00    +0.000 A 
ATOM     22  C   UNL     1       7.494   5.826  18.805  0.00  0.00    +0.000 A 
ATOM     23  C   UNL     1       8.237   7.000  18.896  0.00  0.00    +0.000 A 
ATOM     24  C   UNL     1       7.983   8.043  18.012  0.00  0.00    +0.000 A 
ATOM     25 CL   UNL     1       8.920   9.482  18.110  0.00  0.00    +0.000 Cl
ATOM     26  C   UNL     1       6.992   7.927  17.040  0.00  0.00    +0.000 A 
ATOM     27  C   UNL     1       6.251   6.748  16.944  0.00  0.00    +0.000 A 
ATOM     28 CL   UNL     1       5.081   6.632  15.678  0.00  0.00    +0.000 Cl
ENDBRANCH  20  21
ENDBRANCH   7  20
TORSDOF 5
ENDMDL
MODEL 6
REMARK VINA RESULT:      -6.9      3.702      8.721
REMARK  Name = 
REMARK  5 active torsions:
REMARK  status: ('A' for Active; 'I' for Inactive)
REMARK    1  A    between atoms: C_2  and  C_3
REMARK    2  A    between atoms: C_8  and  O_9
REMARK    3  A    between atoms: O_9  and  C_10
REMARK    4  A    between atoms: N_16  and  C_17
REMARK    5  A    between atoms: C_17  and  C_18
REMARK                            x       y       z     vdW  Elec       q    Type
REMARK                         _______ _______ _______ _____ _____    ______ ____
ROOT
ATOM      1  C   UNL     1       6.472   5.342  16.144  0.00  0.00    +0.000 C 
ATOM      2  C   UNL     1       5.919   3.981  16.558  0.00  0.00    +0.000 C 
ATOM      3  C   UNL     1       4.460   3.942  17.007  0.00  0.00    +0.000 C 
ATOM      4  N   UNL     1       4.039   5.011  17.905  0.00  0.00    +0.000 N 
ATOM      5  C   UNL     1       2.838   4.728  18.570  0.00  0.00    +0.000 C 
ATOM      6  O   UNL     1       2.304   3.626  18.525  0.00  0.00    +0.000 OA
ATOM      7  N   UNL     1       2.200   5.655  19.332  0.00  0.00    +0.000 N 
ATOM      8  C   UNL     1       4.493   6.338  17.476  0.00  0.00    +0.000 C 
ATOM      9  C   UNL     1       5.963   6.435  17.078  0.00  0.00    +0.000 C 
ATOM     10  H   UNL     1       1.327   5.311  19.719  0.00  0.00    +0.000 HD
ENDROOT
BRANCH   1  11
ATOM     11  O   UNL     1       6.145   5.701  14.796  0.00  0.00    +0.000 OA
BRANCH  11  17
ATOM     12  C   UNL     1       7.126   4.722  12.887  0.00  0.00    +0.000 A 
ATOM     13  C   UNL     1       7.096   3.893  11.753  0.00  0.00    +0.000 A 
ATOM     14  C   UNL     1       6.008   3.060  11.533  0.00  0.00    +0.000 A 
ATOM     15  C   UNL     1       4.978   3.025  12.469  0.00  0.00    +0.000 A 
ATOM     16  C   UNL     1       5.013   3.848  13.610  0.00  0.00    +0.000 A 
ATOM     17  C   UNL     1       6.068   4.741  13.809  0.00  0.00    +0.000 A 
BRANCH  12  19
ATOM     18  N   UNL     1       9.229   6.167  13.259  0.00  0.00    +0.000 NA
ATOM     19  C   UNL     1       8.272   5.537  13.089  0.00  0.00    +0.000 C 
ENDBRANCH  12  19
ENDBRANCH  11  17
ENDBRANCH   1  11
BRANCH   7  20
ATOM     20  C   UNL     1       2.635   6.974  19.674  0.00  0.00    +0.000 C 
BRANCH  20  21
ATOM     21  C   UNL     1       1.608   8.012  20.002  0.00  0.00    +0.000 A 
ATOM     22  C   UNL     1       1.069   8.003  21.301  0.00  0.00    +0.000 A 
ATOM     23  C   UNL     1       0.302   9.070  21.758  0.00  0.00    +0.000 A 
ATOM     24  C   UNL     1       0.049  10.145  20.912  0.00  0.00    +0.000 A 
ATOM     25 CL   UNL     1      -0.878  11.475  21.488  0.00  0.00    +0.000 Cl
ATOM     26  C   UNL     1       0.551  10.162  19.613  0.00  0.00    +0.000 A 
ATOM     27  C   UNL     1       1.326   9.094  19.156  0.00  0.00    +0.000 A 
ATOM     28 CL   UNL     1       1.980   9.198  17.561  0.00  0.00    +0.000 Cl
ENDBRANCH  20  21
ENDBRANCH   7  20
TORSDOF 5
ENDMDL
MODEL 7
REMARK VINA RESULT:      -6.8      4.926      7.581
REMARK  Name = 
REMARK  5 active torsions:
REMARK  status: ('A' for Active; 'I' for Inactive)
REMARK    1  A    between atoms: C_2  and  C_3
REMARK    2  A    between atoms: C_8  and  O_9
REMARK    3  A    between atoms: O_9  and  C_10
REMARK    4  A    between atoms: N_16  and  C_17
REMARK    5  A    between atoms: C_17  and  C_18
REMARK                            x       y       z     vdW  Elec       q    Type
REMARK                         _______ _______ _______ _____ _____    ______ ____
ROOT
ATOM      1  C   UNL     1      -0.241  12.733  19.101  0.00  0.00    +0.000 C 
ATOM      2  C   UNL     1      -1.279  12.248  20.111  0.00  0.00    +0.000 C 
ATOM      3  C   UNL     1      -0.800  11.245  21.158  0.00  0.00    +0.000 C 
ATOM      4  N   UNL     1       0.050  10.165  20.668  0.00  0.00    +0.000 N 
ATOM      5  C   UNL     1       0.148   9.094  21.567  0.00  0.00    +0.000 C 
ATOM      6  O   UNL     1      -0.549   9.011  22.571  0.00  0.00    +0.000 OA
ATOM      7  N   UNL     1       1.007   8.061  21.366  0.00  0.00    +0.000 N 
ATOM      8  C   UNL     1       1.105  10.627  19.761  0.00  0.00    +0.000 C 
ATOM      9  C   UNL     1       0.657  11.582  18.659  0.00  0.00    +0.000 C 
ATOM     10  H   UNL     1       0.987   7.382  22.119  0.00  0.00    +0.000 HD
ENDROOT
BRANCH   1  11
ATOM     11  O   UNL     1       0.584  13.793  19.602  0.00  0.00    +0.000 OA
BRANCH  11  17
ATOM     12  C   UNL     1       1.708  15.604  18.592  0.00  0.00    +0.000 A 
ATOM     13  C   UNL     1       1.791  16.938  18.159  0.00  0.00    +0.000 A 
ATOM     14  C   UNL     1       0.663  17.746  18.186  0.00  0.00    +0.000 A 
ATOM     15  C   UNL     1      -0.551  17.205  18.601  0.00  0.00    +0.000 A 
ATOM     16  C   UNL     1      -0.636  15.866  19.025  0.00  0.00    +0.000 A 
ATOM     17  C   UNL     1       0.504  15.061  19.068  0.00  0.00    +0.000 A 
BRANCH  12  19
ATOM     18  N   UNL     1       3.815  14.121  18.478  0.00  0.00    +0.000 NA
ATOM     19  C   UNL     1       2.880  14.804  18.519  0.00  0.00    +0.000 C 
ENDBRANCH  12  19
ENDBRANCH  11  17
ENDBRANCH   1  11
BRANCH   7  20
ATOM     20  C   UNL     1       1.850   7.815  20.236  0.00  0.00    +0.000 C 
BRANCH  20  21
ATOM     21  C   UNL     1       2.149   6.400  19.851  0.00  0.00    +0.000 A 
ATOM     22  C   UNL     1       1.555   5.381  20.618  0.00  0.00    +0.000 A 
ATOM     23  C   UNL     1       1.582   4.059  20.183  0.00  0.00    +0.000 A 
ATOM     24  C   UNL     1       2.222   3.743  18.989  0.00  0.00    +0.000 A 
ATOM     25 CL   UNL     1       2.231   2.112  18.440  0.00  0.00    +0.000 Cl
ATOM     26  C   UNL     1       2.839   4.733  18.228  0.00  0.00    +0.000 A 
ATOM     27  C   UNL     1       2.807   6.060  18.661  0.00  0.00    +0.000 A 
ATOM     28 CL   UNL     1       3.529   7.256  17.646  0.00  0.00    +0.000 Cl
ENDBRANCH  20  21
ENDBRANCH   7  20
TORSDOF 5
ENDMDL
MODEL 8
REMARK VINA RESULT:      -6.8      3.952      8.585
REMARK  Name = 
REMARK  5 active torsions:
REMARK  status: ('A' for Active; 'I' for Inactive)
REMARK    1  A    between atoms: C_2  and  C_3
REMARK    2  A    between atoms: C_8  and  O_9
REMARK    3  A    between atoms: O_9  and  C_10
REMARK    4  A    between atoms: N_16  and  C_17
REMARK    5  A    between atoms: C_17  and  C_18
REMARK                            x       y       z     vdW  Elec       q    Type
REMARK                         _______ _______ _______ _____ _____    ______ ____
ROOT
ATOM      1  C   UNL     1       6.442   5.220  16.141  0.00  0.00    +0.000 C 
ATOM      2  C   UNL     1       5.777   3.901  16.528  0.00  0.00    +0.000 C 
ATOM      3  C   UNL     1       4.309   3.969  16.943  0.00  0.00    +0.000 C 
ATOM      4  N   UNL     1       3.949   5.060  17.840  0.00  0.00    +0.000 N 
ATOM      5  C   UNL     1       2.714   4.864  18.474  0.00  0.00    +0.000 C 
ATOM      6  O   UNL     1       2.099   3.806  18.406  0.00  0.00    +0.000 OA
ATOM      7  N   UNL     1       2.129   5.831  19.229  0.00  0.00    +0.000 N 
ATOM      8  C   UNL     1       4.512   6.352  17.435  0.00  0.00    +0.000 C 
ATOM      9  C   UNL     1       5.994   6.341  17.073  0.00  0.00    +0.000 C 
ATOM     10  H   UNL     1       1.224   5.551  19.592  0.00  0.00    +0.000 HD
ENDROOT
BRANCH   1  11
ATOM     11  O   UNL     1       6.176   5.613  14.789  0.00  0.00    +0.000 OA
BRANCH  11  17
ATOM     12  C   UNL     1       7.135   4.670  12.850  0.00  0.00    +0.000 A 
ATOM     13  C   UNL     1       7.092   3.863  11.701  0.00  0.00    +0.000 A 
ATOM     14  C   UNL     1       6.001   3.035  11.477  0.00  0.00    +0.000 A 
ATOM     15  C   UNL     1       4.981   2.983  12.424  0.00  0.00    +0.000 A 
ATOM     16  C   UNL     1       5.029   3.784  13.580  0.00  0.00    +0.000 A 
ATOM     17  C   UNL     1       6.087   4.673  13.785  0.00  0.00    +0.000 A 
BRANCH  12  19
ATOM     18  N   UNL     1       9.219   6.132  13.262  0.00  0.00    +0.000 NA
ATOM     19  C   UNL     1       8.284   5.481  13.055  0.00  0.00    +0.000 C 
ENDBRANCH  12  19
ENDBRANCH  11  17
ENDBRANCH   1  11
BRANCH   7  20
ATOM     20  C   UNL     1       2.654   7.110  19.594  0.00  0.00    +0.000 C 
BRANCH  20  21
ATOM     21  C   UNL     1       1.830   8.332  19.332  0.00  0.00    +0.000 A 
ATOM     22  C   UNL     1       1.629   8.702  17.990  0.00  0.00    +0.000 A 
ATOM     23  C   UNL     1       0.685   9.668  17.655  0.00  0.00    +0.000 A 
ATOM     24  C   UNL     1      -0.049  10.288  18.660  0.00  0.00    +0.000 A 
ATOM     25 CL   UNL     1      -1.233  11.463  18.241  0.00  0.00    +0.000 Cl
ATOM     26  C   UNL     1       0.154   9.956  19.998  0.00  0.00    +0.000 A 
ATOM     27  C   UNL     1       1.096   8.982  20.334  0.00  0.00    +0.000 A 
ATOM     28 CL   UNL     1       1.259   8.560  22.001  0.00  0.00    +0.000 Cl
ENDBRANCH  20  21
ENDBRANCH   7  20
TORSDOF 5
ENDMDL
MODEL 9
REMARK VINA RESULT:      -6.7      4.694      9.040
REMARK  Name = 
REMARK  5 active torsions:
REMARK  status: ('A' for Active; 'I' for Inactive)
REMARK    1  A    between atoms: C_2  and  C_3
REMARK    2  A    between atoms: C_8  and  O_9
REMARK    3  A    between atoms: O_9  and  C_10
REMARK    4  A    between atoms: N_16  and  C_17
REMARK    5  A    between atoms: C_17  and  C_18
REMARK                            x       y       z     vdW  Elec       q    Type
REMARK                         _______ _______ _______ _____ _____    ______ ____
ROOT
ATOM      1  C   UNL     1       2.844   6.963  18.499  0.00  0.00    +0.000 C 
ATOM      2  C   UNL     1       2.624   7.058  20.007  0.00  0.00    +0.000 C 
ATOM      3  C   UNL     1       1.379   7.808  20.472  0.00  0.00    +0.000 C 
ATOM      4  N   UNL     1       1.096   9.064  19.787  0.00  0.00    +0.000 N 
ATOM      5  C   UNL     1       0.190   9.877  20.483  0.00  0.00    +0.000 C 
ATOM      6  O   UNL     1      -0.180   9.623  21.624  0.00  0.00    +0.000 OA
ATOM      7  N   UNL     1      -0.319  11.015  19.944  0.00  0.00    +0.000 N 
ATOM      8  C   UNL     1       1.222   8.969  18.329  0.00  0.00    +0.000 C 
ATOM      9  C   UNL     1       2.485   8.281  17.820  0.00  0.00    +0.000 C 
ATOM     10  H   UNL     1      -0.986  11.474  20.555  0.00  0.00    +0.000 HD
ENDROOT
BRANCH   1  11
ATOM     11  O   UNL     1       2.094   5.910  17.882  0.00  0.00    +0.000 OA
BRANCH  11  17
ATOM     12  C   UNL     1       3.140   3.797  17.797  0.00  0.00    +0.000 A 
ATOM     13  C   UNL     1       3.215   2.427  18.097  0.00  0.00    +0.000 A 
ATOM     14  C   UNL     1       2.308   1.863  18.984  0.00  0.00    +0.000 A 
ATOM     15  C   UNL     1       1.364   2.678  19.602  0.00  0.00    +0.000 A 
ATOM     16  C   UNL     1       1.296   4.053  19.309  0.00  0.00    +0.000 A 
ATOM     17  C   UNL     1       2.157   4.621  18.367  0.00  0.00    +0.000 A 
BRANCH  12  19
ATOM     18  N   UNL     1       4.909   4.802  16.212  0.00  0.00    +0.000 NA
ATOM     19  C   UNL     1       4.107   4.339  16.907  0.00  0.00    +0.000 C 
ENDBRANCH  12  19
ENDBRANCH  11  17
ENDBRANCH   1  11
BRANCH   7  20
ATOM     20  C   UNL     1       0.015  11.632  18.697  0.00  0.00    +0.000 C 
BRANCH  20  21
ATOM     21  C   UNL     1       0.382  13.083  18.684  0.00  0.00    +0.000 A 
ATOM     22  C   UNL     1      -0.583  14.000  19.138  0.00  0.00    +0.000 A 
ATOM     23  C   UNL     1      -0.241  15.326  19.387  0.00  0.00    +0.000 A 
ATOM     24  C   UNL     1       1.065  15.751  19.161  0.00  0.00    +0.000 A 
ATOM     25 CL   UNL     1       1.492  17.383  19.494  0.00  0.00    +0.000 Cl
ATOM     26  C   UNL     1       2.029  14.865  18.685  0.00  0.00    +0.000 A 
ATOM     27  C   UNL     1       1.687  13.534  18.442  0.00  0.00    +0.000 A 
ATOM     28 CL   UNL     1       2.938  12.464  17.918  0.00  0.00    +0.000 Cl
ENDBRANCH  20  21
ENDBRANCH   7  20
TORSDOF 5
ENDMDL
