MODEL 1
REMARK VINA RESULT:      -7.3      0.000      0.000
REMARK  Name = 
REMARK  10 active torsions:
REMARK  status: ('A' for Active; 'I' for Inactive)
REMARK    1  A    between atoms: C_1  and  O_2
REMARK    2  A    between atoms: O_2  and  C_3
REMARK    3  A    between atoms: C_6  and  C_7
REMARK    4  A    between atoms: C_8  and  C_9
REMARK    5  A    between atoms: C_9  and  C_11
REMARK    6  A    between atoms: C_12  and  O_13
REMARK    7  A    between atoms: C_15  and  O_16
REMARK    8  A    between atoms: O_16  and  C_17
REMARK    9  A    between atoms: C_19  and  O_20
REMARK   10  A    between atoms: O_20  and  C_21
REMARK                            x       y       z     vdW  Elec       q    Type
REMARK                         _______ _______ _______ _____ _____    ______ ____
ROOT
ATOM      1  C   UNL     1       3.707   4.201  19.582  0.00  0.00    +0.000 C 
ATOM      2  O   UNL     1       3.455   3.139  20.135  0.00  0.00    +0.000 OA
ENDROOT
BRANCH   1   3
ATOM      3  C   UNL     1       4.647   4.274  18.433  0.00  0.00    +0.000 A 
ATOM      4  C   UNL     1       4.190   3.884  17.156  0.00  0.00    +0.000 A 
ATOM      5  C   UNL     1       5.025   3.933  16.039  0.00  0.00    +0.000 A 
ATOM      6  C   UNL     1       6.352   4.325  16.162  0.00  0.00    +0.000 A 
ATOM      7  C   UNL     1       6.827   4.698  17.418  0.00  0.00    +0.000 A 
ATOM      8  C   UNL     1       5.989   4.684  18.557  0.00  0.00    +0.000 A 
BRANCH   4   9
ATOM      9  O   UNL     1       2.924   3.431  16.881  0.00  0.00    +0.000 OA
ATOM     10  H   UNL     1       2.517   3.965  16.178  0.00  0.00    +0.000 HD
ENDBRANCH   4   9
BRANCH   6  11
ATOM     11  O   UNL     1       7.058   4.314  14.992  0.00  0.00    +0.000 OA
ATOM     12  C   UNL     1       6.341   4.023  13.801  0.00  0.00    +0.000 C 
ENDBRANCH   6  11
BRANCH   8  13
ATOM     13  O   UNL     1       6.593   5.270  19.638  0.00  0.00    +0.000 OA
ATOM     14  C   UNL     1       7.909   5.787  19.471  0.00  0.00    +0.000 C 
ENDBRANCH   8  13
ENDBRANCH   1   3
BRANCH   1  16
ATOM     15  C   UNL     1       2.725   6.352  18.997  0.00  0.00    +0.000 C 
ATOM     16  C   UNL     1       2.962   5.441  19.955  0.00  0.00    +0.000 C 
BRANCH  15  20
ATOM     17  C   UNL     1       0.830  10.150  19.582  0.00  0.00    +0.000 A 
ATOM     18  C   UNL     1       1.374   9.809  18.342  0.00  0.00    +0.000 A 
ATOM     19  C   UNL     1       1.995   8.571  18.157  0.00  0.00    +0.000 A 
ATOM     20  C   UNL     1       2.109   7.669  19.225  0.00  0.00    +0.000 A 
ATOM     21  C   UNL     1       1.577   8.025  20.466  0.00  0.00    +0.000 A 
ATOM     22  C   UNL     1       0.952   9.258  20.643  0.00  0.00    +0.000 A 
BRANCH  17  24
ATOM     23  C   UNL     1      -0.704  11.662  18.617  0.00  0.00    +0.000 C 
ATOM     24  O   UNL     1       0.243  11.382  19.649  0.00  0.00    +0.000 OA
ENDBRANCH  17  24
ENDBRANCH  15  20
ENDBRANCH   1  16
TORSDOF 7
ENDMDL
MODEL 2
REMARK VINA RESULT:      -7.2      0.289      1.044
REMARK  Name = 
REMARK  10 active torsions:
REMARK  status: ('A' for Active; 'I' for Inactive)
REMARK    1  A    between atoms: C_1  and  O_2
REMARK    2  A    between atoms: O_2  and  C_3
REMARK    3  A    between atoms: C_6  and  C_7
REMARK    4  A    between atoms: C_8  and  C_9
REMARK    5  A    between atoms: C_9  and  C_11
REMARK    6  A    between atoms: C_12  and  O_13
REMARK    7  A    between atoms: C_15  and  O_16
REMARK    8  A    between atoms: O_16  and  C_17
REMARK    9  A    between atoms: C_19  and  O_20
REMARK   10  A    between atoms: O_20  and  C_21
REMARK                            x       y       z     vdW  Elec       q    Type
REMARK                         _______ _______ _______ _____ _____    ______ ____
ROOT
ATOM      1  C   UNL     1       3.876   4.138  19.521  0.00  0.00    +0.000 C 
ATOM      2  O   UNL     1       3.742   3.075  20.113  0.00  0.00    +0.000 OA
ENDROOT
BRANCH   1   3
ATOM      3  C   UNL     1       4.847   4.287  18.406  0.00  0.00    +0.000 A 
ATOM      4  C   UNL     1       4.432   3.967  17.096  0.00  0.00    +0.000 A 
ATOM      5  C   UNL     1       5.297   4.090  16.008  0.00  0.00    +0.000 A 
ATOM      6  C   UNL     1       6.615   4.488  16.191  0.00  0.00    +0.000 A 
ATOM      7  C   UNL     1       7.050   4.794  17.479  0.00  0.00    +0.000 A 
ATOM      8  C   UNL     1       6.180   4.705  18.591  0.00  0.00    +0.000 A 
BRANCH   4   9
ATOM      9  O   UNL     1       3.180   3.515  16.759  0.00  0.00    +0.000 OA
ATOM     10  H   UNL     1       2.713   4.178  16.223  0.00  0.00    +0.000 HD
ENDBRANCH   4   9
BRANCH   6  11
ATOM     11  O   UNL     1       7.354   4.553  15.044  0.00  0.00    +0.000 OA
ATOM     12  C   UNL     1       6.681   4.291  13.820  0.00  0.00    +0.000 C 
ENDBRANCH   6  11
BRANCH   8  13
ATOM     13  O   UNL     1       6.746   5.234  19.721  0.00  0.00    +0.000 OA
ATOM     14  C   UNL     1       8.052   5.792  19.618  0.00  0.00    +0.000 C 
ENDBRANCH   8  13
ENDBRANCH   1   3
BRANCH   1  16
ATOM     15  C   UNL     1       2.957   6.322  18.957  0.00  0.00    +0.000 C 
ATOM     16  C   UNL     1       2.961   5.282  19.808  0.00  0.00    +0.000 C 
BRANCH  15  20
ATOM     17  C   UNL     1       0.853   9.993  19.629  0.00  0.00    +0.000 A 
ATOM     18  C   UNL     1       0.977   9.047  20.648  0.00  0.00    +0.000 A 
ATOM     19  C   UNL     1       1.659   7.848  20.423  0.00  0.00    +0.000 A 
ATOM     20  C   UNL     1       2.201   7.568  19.159  0.00  0.00    +0.000 A 
ATOM     21  C   UNL     1       2.059   8.513  18.142  0.00  0.00    +0.000 A 
ATOM     22  C   UNL     1       1.383   9.711  18.375  0.00  0.00    +0.000 A 
BRANCH  17  24
ATOM     23  C   UNL     1      -0.152  11.988  18.866  0.00  0.00    +0.000 C 
ATOM     24  O   UNL     1       0.170  11.129  19.961  0.00  0.00    +0.000 OA
ENDBRANCH  17  24
ENDBRANCH  15  20
ENDBRANCH   1  16
TORSDOF 7
ENDMDL
MODEL 3
REMARK VINA RESULT:      -7.2      1.131      1.238
REMARK  Name = 
REMARK  10 active torsions:
REMARK  status: ('A' for Active; 'I' for Inactive)
REMARK    1  A    between atoms: C_1  and  O_2
REMARK    2  A    between atoms: O_2  and  C_3
REMARK    3  A    between atoms: C_6  and  C_7
REMARK    4  A    between atoms: C_8  and  C_9
REMARK    5  A    between atoms: C_9  and  C_11
REMARK    6  A    between atoms: C_12  and  O_13
REMARK    7  A    between atoms: C_15  and  O_16
REMARK    8  A    between atoms: O_16  and  C_17
REMARK    9  A    between atoms: C_19  and  O_20
REMARK   10  A    between atoms: O_20  and  C_21
REMARK                            x       y       z     vdW  Elec       q    Type
REMARK                         _______ _______ _______ _____ _____    ______ ____
ROOT
ATOM      1  C   UNL     1       5.012   4.520  18.966  0.00  0.00    +0.000 C 
ATOM      2  O   UNL     1       5.116   3.499  19.632  0.00  0.00    +0.000 OA
ENDROOT
BRANCH   1   3
ATOM      3  C   UNL     1       5.575   4.612  17.594  0.00  0.00    +0.000 A 
ATOM      4  C   UNL     1       4.928   3.921  16.548  0.00  0.00    +0.000 A 
ATOM      5  C   UNL     1       5.407   3.971  15.237  0.00  0.00    +0.000 A 
ATOM      6  C   UNL     1       6.569   4.670  14.934  0.00  0.00    +0.000 A 
ATOM      7  C   UNL     1       7.232   5.346  15.956  0.00  0.00    +0.000 A 
ATOM      8  C   UNL     1       6.745   5.333  17.284  0.00  0.00    +0.000 A 
BRANCH   4   9
ATOM      9  O   UNL     1       3.801   3.151  16.694  0.00  0.00    +0.000 OA
ATOM     10  H   UNL     1       3.270   3.467  17.445  0.00  0.00    +0.000 HD
ENDBRANCH   4   9
BRANCH   6  11
ATOM     11  O   UNL     1       6.931   4.625  13.617  0.00  0.00    +0.000 OA
ATOM     12  C   UNL     1       6.297   3.651  12.800  0.00  0.00    +0.000 C 
ENDBRANCH   6  11
BRANCH   8  13
ATOM     13  O   UNL     1       7.428   6.213  18.083  0.00  0.00    +0.000 OA
ATOM     14  C   UNL     1       7.615   7.541  17.608  0.00  0.00    +0.000 C 
ENDBRANCH   8  13
ENDBRANCH   1   3
BRANCH   1  16
ATOM     15  C   UNL     1       3.283   6.202  18.626  0.00  0.00    +0.000 C 
ATOM     16  C   UNL     1       4.187   5.663  19.461  0.00  0.00    +0.000 C 
BRANCH  15  20
ATOM     17  C   UNL     1       0.842   9.636  19.405  0.00  0.00    +0.000 A 
ATOM     18  C   UNL     1       1.399   9.431  18.142  0.00  0.00    +0.000 A 
ATOM     19  C   UNL     1       2.199   8.312  17.893  0.00  0.00    +0.000 A 
ATOM     20  C   UNL     1       2.478   7.398  18.921  0.00  0.00    +0.000 A 
ATOM     21  C   UNL     1       1.930   7.621  20.185  0.00  0.00    +0.000 A 
ATOM     22  C   UNL     1       1.127   8.735  20.426  0.00  0.00    +0.000 A 
BRANCH  17  24
ATOM     23  C   UNL     1      -0.836  11.001  18.461  0.00  0.00    +0.000 C 
ATOM     24  O   UNL     1       0.075  10.759  19.534  0.00  0.00    +0.000 OA
ENDBRANCH  17  24
ENDBRANCH  15  20
ENDBRANCH   1  16
TORSDOF 7
ENDMDL
MODEL 4
REMARK VINA RESULT:      -7.2      1.269      1.769
REMARK  Name = 
REMARK  10 active torsions:
REMARK  status: ('A' for Active; 'I' for Inactive)
REMARK    1  A    between atoms: C_1  and  O_2
REMARK    2  A    between atoms: O_2  and  C_3
REMARK    3  A    between atoms: C_6  and  C_7
REMARK    4  A    between atoms: C_8  and  C_9
REMARK    5  A    between atoms: C_9  and  C_11
REMARK    6  A    between atoms: C_12  and  O_13
REMARK    7  A    between atoms: C_15  and  O_16
REMARK    8  A    between atoms: O_16  and  C_17
REMARK    9  A    between atoms: C_19  and  O_20
REMARK   10  A    between atoms: O_20  and  C_21
REMARK                            x       y       z     vdW  Elec       q    Type
REMARK                         _______ _______ _______ _____ _____    ______ ____
ROOT
ATOM      1  C   UNL     1       5.243   4.593  18.743  0.00  0.00    +0.000 C 
ATOM      2  O   UNL     1       5.352   3.613  19.469  0.00  0.00    +0.000 OA
ENDROOT
BRANCH   1   3
ATOM      3  C   UNL     1       5.716   4.571  17.335  0.00  0.00    +0.000 A 
ATOM      4  C   UNL     1       4.924   3.926  16.362  0.00  0.00    +0.000 A 
ATOM      5  C   UNL     1       5.313   3.875  15.023  0.00  0.00    +0.000 A 
ATOM      6  C   UNL     1       6.525   4.421  14.616  0.00  0.00    +0.000 A 
ATOM      7  C   UNL     1       7.330   5.048  15.565  0.00  0.00    +0.000 A 
ATOM      8  C   UNL     1       6.938   5.137  16.921  0.00  0.00    +0.000 A 
BRANCH   4   9
ATOM      9  O   UNL     1       3.728   3.300  16.613  0.00  0.00    +0.000 OA
ATOM     10  H   UNL     1       2.985   3.888  16.397  0.00  0.00    +0.000 HD
ENDBRANCH   4   9
BRANCH   6  11
ATOM     11  O   UNL     1       6.787   4.289  13.281  0.00  0.00    +0.000 OA
ATOM     12  C   UNL     1       5.956   3.408  12.539  0.00  0.00    +0.000 C 
ENDBRANCH   6  11
BRANCH   8  13
ATOM     13  O   UNL     1       7.771   5.957  17.636  0.00  0.00    +0.000 OA
ATOM     14  C   UNL     1       7.523   7.358  17.602  0.00  0.00    +0.000 C 
ENDBRANCH   8  13
ENDBRANCH   1   3
BRANCH   1  16
ATOM     15  C   UNL     1       3.280   6.034  18.690  0.00  0.00    +0.000 C 
ATOM     16  C   UNL     1       4.496   5.798  19.211  0.00  0.00    +0.000 C 
BRANCH  15  20
ATOM     17  C   UNL     1       1.019   9.569  19.557  0.00  0.00    +0.000 A 
ATOM     18  C   UNL     1       1.212   8.590  20.533  0.00  0.00    +0.000 A 
ATOM     19  C   UNL     1       1.946   7.436  20.245  0.00  0.00    +0.000 A 
ATOM     20  C   UNL     1       2.470   7.233  18.959  0.00  0.00    +0.000 A 
ATOM     21  C   UNL     1       2.259   8.210  17.985  0.00  0.00    +0.000 A 
ATOM     22  C   UNL     1       1.532   9.363  18.281  0.00  0.00    +0.000 A 
BRANCH  17  24
ATOM     23  C   UNL     1       0.670  11.893  19.345  0.00  0.00    +0.000 C 
ATOM     24  O   UNL     1       0.291  10.656  19.949  0.00  0.00    +0.000 OA
ENDBRANCH  17  24
ENDBRANCH  15  20
ENDBRANCH   1  16
TORSDOF 7
ENDMDL
MODEL 5
REMARK VINA RESULT:      -7.1      4.335      6.461
REMARK  Name = 
REMARK  10 active torsions:
REMARK  status: ('A' for Active; 'I' for Inactive)
REMARK    1  A    between atoms: C_1  and  O_2
REMARK    2  A    between atoms: O_2  and  C_3
REMARK    3  A    between atoms: C_6  and  C_7
REMARK    4  A    between atoms: C_8  and  C_9
REMARK    5  A    between atoms: C_9  and  C_11
REMARK    6  A    between atoms: C_12  and  O_13
REMARK    7  A    between atoms: C_15  and  O_16
REMARK    8  A    between atoms: O_16  and  C_17
REMARK    9  A    between atoms: C_19  and  O_20
REMARK   10  A    between atoms: O_20  and  C_21
REMARK                            x       y       z     vdW  Elec       q    Type
REMARK                         _______ _______ _______ _____ _____    ______ ____
ROOT
ATOM      1  C   UNL     1       7.055   6.756  17.199  0.00  0.00    +0.000 C 
ATOM      2  O   UNL     1       7.608   6.477  16.143  0.00  0.00    +0.000 OA
ENDROOT
BRANCH   1   3
ATOM      3  C   UNL     1       5.907   5.961  17.708  0.00  0.00    +0.000 A 
ATOM      4  C   UNL     1       6.149   4.670  18.220  0.00  0.00    +0.000 A 
ATOM      5  C   UNL     1       5.113   3.877  18.715  0.00  0.00    +0.000 A 
ATOM      6  C   UNL     1       3.797   4.323  18.674  0.00  0.00    +0.000 A 
ATOM      7  C   UNL     1       3.535   5.590  18.157  0.00  0.00    +0.000 A 
ATOM      8  C   UNL     1       4.575   6.420  17.679  0.00  0.00    +0.000 A 
BRANCH   4   9
ATOM      9  O   UNL     1       7.383   4.070  18.286  0.00  0.00    +0.000 OA
ATOM     10  H   UNL     1       7.304   3.171  18.646  0.00  0.00    +0.000 HD
ENDBRANCH   4   9
BRANCH   6  11
ATOM     11  O   UNL     1       2.883   3.441  19.178  0.00  0.00    +0.000 OA
ATOM     12  C   UNL     1       2.409   2.425  18.307  0.00  0.00    +0.000 C 
ENDBRANCH   6  11
BRANCH   8  13
ATOM     13  O   UNL     1       4.127   7.685  17.402  0.00  0.00    +0.000 OA
ATOM     14  C   UNL     1       2.818   8.042  17.833  0.00  0.00    +0.000 C 
ENDBRANCH   8  13
ENDBRANCH   1   3
BRANCH   1  16
ATOM     15  C   UNL     1       7.948   8.998  17.528  0.00  0.00    +0.000 C 
ATOM     16  C   UNL     1       7.614   7.822  18.084  0.00  0.00    +0.000 C 
BRANCH  15  20
ATOM     17  C   UNL     1       9.763  12.268  19.619  0.00  0.00    +0.000 A 
ATOM     18  C   UNL     1       9.135  12.471  18.389  0.00  0.00    +0.000 A 
ATOM     19  C   UNL     1       8.548  11.400  17.708  0.00  0.00    +0.000 A 
ATOM     20  C   UNL     1       8.613  10.103  18.238  0.00  0.00    +0.000 A 
ATOM     21  C   UNL     1       9.257   9.907  19.460  0.00  0.00    +0.000 A 
ATOM     22  C   UNL     1       9.834  10.979  20.139  0.00  0.00    +0.000 A 
BRANCH  17  24
ATOM     23  C   UNL     1      10.132  14.593  19.457  0.00  0.00    +0.000 C 
ATOM     24  O   UNL     1      10.297  13.384  20.198  0.00  0.00    +0.000 OA
ENDBRANCH  17  24
ENDBRANCH  15  20
ENDBRANCH   1  16
TORSDOF 7
ENDMDL
MODEL 6
REMARK VINA RESULT:      -7.1      0.634      2.287
REMARK  Name = 
REMARK  10 active torsions:
REMARK  status: ('A' for Active; 'I' for Inactive)
REMARK    1  A    between atoms: C_1  and  O_2
REMARK    2  A    between atoms: O_2  and  C_3
REMARK    3  A    between atoms: C_6  and  C_7
REMARK    4  A    between atoms: C_8  and  C_9
REMARK    5  A    between atoms: C_9  and  C_11
REMARK    6  A    between atoms: C_12  and  O_13
REMARK    7  A    between atoms: C_15  and  O_16
REMARK    8  A    between atoms: O_16  and  C_17
REMARK    9  A    between atoms: C_19  and  O_20
REMARK   10  A    between atoms: O_20  and  C_21
REMARK                            x       y       z     vdW  Elec       q    Type
REMARK                         _______ _______ _______ _____ _____    ______ ____
ROOT
ATOM      1  C   UNL     1       3.735   4.378  19.722  0.00  0.00    +0.000 C 
ATOM      2  O   UNL     1       3.730   3.437  20.505  0.00  0.00    +0.000 OA
ENDROOT
BRANCH   1   3
ATOM      3  C   UNL     1       4.624   4.391  18.530  0.00  0.00    +0.000 A 
ATOM      4  C   UNL     1       5.970   4.780  18.692  0.00  0.00    +0.000 A 
ATOM      5  C   UNL     1       6.853   4.810  17.612  0.00  0.00    +0.000 A 
ATOM      6  C   UNL     1       6.415   4.501  16.329  0.00  0.00    +0.000 A 
ATOM      7  C   UNL     1       5.085   4.131  16.146  0.00  0.00    +0.000 A 
ATOM      8  C   UNL     1       4.182   4.064  17.233  0.00  0.00    +0.000 A 
BRANCH   4   9
ATOM      9  O   UNL     1       6.540   5.159  19.882  0.00  0.00    +0.000 OA
ATOM     10  H   UNL     1       6.511   6.125  19.980  0.00  0.00    +0.000 HD
ENDBRANCH   4   9
BRANCH   6  11
ATOM     11  O   UNL     1       7.380   4.584  15.365  0.00  0.00    +0.000 OA
ATOM     12  C   UNL     1       6.946   4.750  14.022  0.00  0.00    +0.000 C 
ENDBRANCH   6  11
BRANCH   8  13
ATOM     13  O   UNL     1       2.991   3.494  16.869  0.00  0.00    +0.000 OA
ATOM     14  C   UNL     1       2.665   2.219  17.410  0.00  0.00    +0.000 C 
ENDBRANCH   8  13
ENDBRANCH   1   3
BRANCH   1  16
ATOM     15  C   UNL     1       2.920   6.597  19.137  0.00  0.00    +0.000 C 
ATOM     16  C   UNL     1       2.740   5.482  19.864  0.00  0.00    +0.000 C 
BRANCH  15  20
ATOM     17  C   UNL     1       0.430  10.076  19.383  0.00  0.00    +0.000 A 
ATOM     18  C   UNL     1       1.029   9.712  18.175  0.00  0.00    +0.000 A 
ATOM     19  C   UNL     1       1.844   8.580  18.100  0.00  0.00    +0.000 A 
ATOM     20  C   UNL     1       2.097   7.812  19.248  0.00  0.00    +0.000 A 
ATOM     21  C   UNL     1       1.508   8.192  20.454  0.00  0.00    +0.000 A 
ATOM     22  C   UNL     1       0.689   9.319  20.521  0.00  0.00    +0.000 A 
BRANCH  17  24
ATOM     23  C   UNL     1      -1.363  11.195  18.334  0.00  0.00    +0.000 C 
ATOM     24  O   UNL     1      -0.349  11.197  19.340  0.00  0.00    +0.000 OA
ENDBRANCH  17  24
ENDBRANCH  15  20
ENDBRANCH   1  16
TORSDOF 7
ENDMDL
MODEL 7
REMARK VINA RESULT:      -7.0      4.227      6.565
REMARK  Name = 
REMARK  10 active torsions:
REMARK  status: ('A' for Active; 'I' for Inactive)
REMARK    1  A    between atoms: C_1  and  O_2
REMARK    2  A    between atoms: O_2  and  C_3
REMARK    3  A    between atoms: C_6  and  C_7
REMARK    4  A    between atoms: C_8  and  C_9
REMARK    5  A    between atoms: C_9  and  C_11
REMARK    6  A    between atoms: C_12  and  O_13
REMARK    7  A    between atoms: C_15  and  O_16
REMARK    8  A    between atoms: O_16  and  C_17
REMARK    9  A    between atoms: C_19  and  O_20
REMARK   10  A    between atoms: O_20  and  C_21
REMARK                            x       y       z     vdW  Elec       q    Type
REMARK                         _______ _______ _______ _____ _____    ______ ____
ROOT
ATOM      1  C   UNL     1       6.727   6.698  17.037  0.00  0.00    +0.000 C 
ATOM      2  O   UNL     1       7.459   6.113  16.250  0.00  0.00    +0.000 OA
ENDROOT
BRANCH   1   3
ATOM      3  C   UNL     1       5.645   5.987  17.767  0.00  0.00    +0.000 A 
ATOM      4  C   UNL     1       5.964   4.809  18.474  0.00  0.00    +0.000 A 
ATOM      5  C   UNL     1       4.993   4.098  19.181  0.00  0.00    +0.000 A 
ATOM      6  C   UNL     1       3.665   4.509  19.168  0.00  0.00    +0.000 A 
ATOM      7  C   UNL     1       3.327   5.661  18.462  0.00  0.00    +0.000 A 
ATOM      8  C   UNL     1       4.302   6.412  17.765  0.00  0.00    +0.000 A 
BRANCH   4   9
ATOM      9  O   UNL     1       7.217   4.250  18.543  0.00  0.00    +0.000 OA
ATOM     10  H   UNL     1       7.369   3.664  17.783  0.00  0.00    +0.000 HD
ENDBRANCH   4   9
BRANCH   6  11
ATOM     11  O   UNL     1       2.819   3.715  19.890  0.00  0.00    +0.000 OA
ATOM     12  C   UNL     1       1.436   4.037  19.854  0.00  0.00    +0.000 C 
ENDBRANCH   6  11
BRANCH   8  13
ATOM     13  O   UNL     1       3.796   7.601  17.310  0.00  0.00    +0.000 OA
ATOM     14  C   UNL     1       2.637   8.125  17.949  0.00  0.00    +0.000 C 
ENDBRANCH   8  13
ENDBRANCH   1   3
BRANCH   1  16
ATOM     15  C   UNL     1       8.222   8.449  17.833  0.00  0.00    +0.000 C 
ATOM     16  C   UNL     1       6.994   8.123  17.399  0.00  0.00    +0.000 C 
BRANCH  15  20
ATOM     17  C   UNL     1       9.480  12.283  19.274  0.00  0.00    +0.000 A 
ATOM     18  C   UNL     1       9.708  11.129  20.027  0.00  0.00    +0.000 A 
ATOM     19  C   UNL     1       9.292   9.881  19.556  0.00  0.00    +0.000 A 
ATOM     20  C   UNL     1       8.610   9.777  18.334  0.00  0.00    +0.000 A 
ATOM     21  C   UNL     1       8.372  10.938  17.596  0.00  0.00    +0.000 A 
ATOM     22  C   UNL     1       8.796  12.179  18.068  0.00  0.00    +0.000 A 
BRANCH  17  24
ATOM     23  C   UNL     1      10.440  14.406  18.901  0.00  0.00    +0.000 C 
ATOM     24  O   UNL     1       9.933  13.446  19.829  0.00  0.00    +0.000 OA
ENDBRANCH  17  24
ENDBRANCH  15  20
ENDBRANCH   1  16
TORSDOF 7
ENDMDL
MODEL 8
REMARK VINA RESULT:      -6.8      0.710      2.527
REMARK  Name = 
REMARK  10 active torsions:
REMARK  status: ('A' for Active; 'I' for Inactive)
REMARK    1  A    between atoms: C_1  and  O_2
REMARK    2  A    between atoms: O_2  and  C_3
REMARK    3  A    between atoms: C_6  and  C_7
REMARK    4  A    between atoms: C_8  and  C_9
REMARK    5  A    between atoms: C_9  and  C_11
REMARK    6  A    between atoms: C_12  and  O_13
REMARK    7  A    between atoms: C_15  and  O_16
REMARK    8  A    between atoms: O_16  and  C_17
REMARK    9  A    between atoms: C_19  and  O_20
REMARK   10  A    between atoms: O_20  and  C_21
REMARK                            x       y       z     vdW  Elec       q    Type
REMARK                         _______ _______ _______ _____ _____    ______ ____
ROOT
ATOM      1  C   UNL     1       3.695   4.395  19.787  0.00  0.00    +0.000 C 
ATOM      2  O   UNL     1       3.635   3.432  20.541  0.00  0.00    +0.000 OA
ENDROOT
BRANCH   1   3
ATOM      3  C   UNL     1       4.510   4.358  18.545  0.00  0.00    +0.000 A 
ATOM      4  C   UNL     1       5.865   4.743  18.610  0.00  0.00    +0.000 A 
ATOM      5  C   UNL     1       6.682   4.727  17.478  0.00  0.00    +0.000 A 
ATOM      6  C   UNL     1       6.166   4.373  16.237  0.00  0.00    +0.000 A 
ATOM      7  C   UNL     1       4.825   4.006  16.149  0.00  0.00    +0.000 A 
ATOM      8  C   UNL     1       3.989   3.986  17.289  0.00  0.00    +0.000 A 
BRANCH   4   9
ATOM      9  O   UNL     1       6.508   5.161  19.749  0.00  0.00    +0.000 OA
ATOM     10  H   UNL     1       6.740   6.103  19.681  0.00  0.00    +0.000 HD
ENDBRANCH   4   9
BRANCH   6  11
ATOM     11  O   UNL     1       7.071   4.413  15.214  0.00  0.00    +0.000 OA
ATOM     12  C   UNL     1       6.591   4.127  13.908  0.00  0.00    +0.000 C 
ENDBRANCH   6  11
BRANCH   8  13
ATOM     13  O   UNL     1       2.775   3.412  17.019  0.00  0.00    +0.000 OA
ATOM     14  C   UNL     1       2.501   2.130  17.575  0.00  0.00    +0.000 C 
ENDBRANCH   8  13
ENDBRANCH   1   3
BRANCH   1  16
ATOM     15  C   UNL     1       2.772   6.529  19.061  0.00  0.00    +0.000 C 
ATOM     16  C   UNL     1       2.832   5.591  20.021  0.00  0.00    +0.000 C 
BRANCH  15  20
ATOM     17  C   UNL     1       0.806  10.311  19.502  0.00  0.00    +0.000 A 
ATOM     18  C   UNL     1       0.913   9.434  20.583  0.00  0.00    +0.000 A 
ATOM     19  C   UNL     1       1.551   8.199  20.434  0.00  0.00    +0.000 A 
ATOM     20  C   UNL     1       2.062   7.813  19.186  0.00  0.00    +0.000 A 
ATOM     21  C   UNL     1       1.936   8.689  18.107  0.00  0.00    +0.000 A 
ATOM     22  C   UNL     1       1.305   9.922  18.263  0.00  0.00    +0.000 A 
BRANCH  17  24
ATOM     23  C   UNL     1      -0.925  11.403  20.678  0.00  0.00    +0.000 C 
ATOM     24  O   UNL     1       0.168  11.490  19.762  0.00  0.00    +0.000 OA
ENDBRANCH  17  24
ENDBRANCH  15  20
ENDBRANCH   1  16
TORSDOF 7
ENDMDL
MODEL 9
REMARK VINA RESULT:      -6.8      1.121      2.421
REMARK  Name = 
REMARK  10 active torsions:
REMARK  status: ('A' for Active; 'I' for Inactive)
REMARK    1  A    between atoms: C_1  and  O_2
REMARK    2  A    between atoms: O_2  and  C_3
REMARK    3  A    between atoms: C_6  and  C_7
REMARK    4  A    between atoms: C_8  and  C_9
REMARK    5  A    between atoms: C_9  and  C_11
REMARK    6  A    between atoms: C_12  and  O_13
REMARK    7  A    between atoms: C_15  and  O_16
REMARK    8  A    between atoms: O_16  and  C_17
REMARK    9  A    between atoms: C_19  and  O_20
REMARK   10  A    between atoms: O_20  and  C_21
REMARK                            x       y       z     vdW  Elec       q    Type
REMARK                         _______ _______ _______ _____ _____    ______ ____
ROOT
ATOM      1  C   UNL     1       4.835   4.285  19.201  0.00  0.00    +0.000 C 
ATOM      2  O   UNL     1       5.062   3.350  19.958  0.00  0.00    +0.000 OA
ENDROOT
BRANCH   1   3
ATOM      3  C   UNL     1       5.286   4.265  17.785  0.00  0.00    +0.000 A 
ATOM      4  C   UNL     1       6.638   4.550  17.500  0.00  0.00    +0.000 A 
ATOM      5  C   UNL     1       7.122   4.544  16.191  0.00  0.00    +0.000 A 
ATOM      6  C   UNL     1       6.269   4.303  15.121  0.00  0.00    +0.000 A 
ATOM      7  C   UNL     1       4.927   4.036  15.381  0.00  0.00    +0.000 A 
ATOM      8  C   UNL     1       4.423   4.007  16.702  0.00  0.00    +0.000 A 
BRANCH   4   9
ATOM      9  O   UNL     1       7.591   4.853  18.440  0.00  0.00    +0.000 OA
ATOM     10  H   UNL     1       7.336   5.648  18.938  0.00  0.00    +0.000 HD
ENDBRANCH   4   9
BRANCH   6  11
ATOM     11  O   UNL     1       6.872   4.340  13.895  0.00  0.00    +0.000 OA
ATOM     12  C   UNL     1       6.252   3.615  12.842  0.00  0.00    +0.000 C 
ENDBRANCH   6  11
BRANCH   8  13
ATOM     13  O   UNL     1       3.138   3.535  16.744  0.00  0.00    +0.000 OA
ATOM     14  C   UNL     1       2.899   2.298  17.407  0.00  0.00    +0.000 C 
ENDBRANCH   8  13
ENDBRANCH   1   3
BRANCH   1  16
ATOM     15  C   UNL     1       3.345   6.145  18.700  0.00  0.00    +0.000 C 
ATOM     16  C   UNL     1       3.966   5.417  19.642  0.00  0.00    +0.000 C 
BRANCH  15  20
ATOM     17  C   UNL     1       0.941   9.625  19.383  0.00  0.00    +0.000 A 
ATOM     18  C   UNL     1       1.547   9.411  18.144  0.00  0.00    +0.000 A 
ATOM     19  C   UNL     1       2.335   8.277  17.926  0.00  0.00    +0.000 A 
ATOM     20  C   UNL     1       2.552   7.356  18.963  0.00  0.00    +0.000 A 
ATOM     21  C   UNL     1       1.954   7.587  20.203  0.00  0.00    +0.000 A 
ATOM     22  C   UNL     1       1.163   8.716  20.412  0.00  0.00    +0.000 A 
BRANCH  17  24
ATOM     23  C   UNL     1       0.388  11.521  20.676  0.00  0.00    +0.000 C 
ATOM     24  O   UNL     1       0.190  10.763  19.482  0.00  0.00    +0.000 OA
ENDBRANCH  17  24
ENDBRANCH  15  20
ENDBRANCH   1  16
TORSDOF 7
ENDMDL
