MODEL 1
REMARK VINA RESULT:      -8.5      0.000      0.000
REMARK  Name = 
REMARK  4 active torsions:
REMARK  status: ('A' for Active; 'I' for Inactive)
REMARK    1  A    between atoms: C_2  and  C_11
REMARK    2  A    between atoms: N_3  and  C_4
REMARK    3  A    between atoms: C_14  and  C_16
REMARK    4  A    between atoms: C_20  and  C_21
REMARK                            x       y       z     vdW  Elec       q    Type
REMARK                         _______ _______ _______ _____ _____    ______ ____
ROOT
ATOM      1  C   UNL     1       2.443   3.149  17.753  0.00  0.00    +0.000 C 
ATOM      2  C   UNL     1       3.951   3.262  17.628  0.00  0.00    +0.000 C 
ATOM      3  N   UNL     1       4.626   3.537  18.906  0.00  0.00    +0.000 N 
ATOM      4  C   UNL     1       5.685   4.439  19.107  0.00  0.00    +0.000 C 
ATOM      5  O   UNL     1       6.106   4.702  20.238  0.00  0.00    +0.000 OA
ATOM      6  C   UNL     1       4.273   2.614  19.999  0.00  0.00    +0.000 C 
ATOM      7  C   UNL     1       2.763   2.455  20.187  0.00  0.00    +0.000 C 
ATOM      8  F   UNL     1       2.273   3.565  20.792  0.00  0.00    +0.000 F 
ATOM      9  F   UNL     1       2.512   1.421  21.027  0.00  0.00    +0.000 F 
ATOM     10  C   UNL     1       2.018   2.220  18.881  0.00  0.00    +0.000 C 
ENDROOT
BRANCH   4  11
ATOM     11  C   UNL     1       6.302   5.150  17.958  0.00  0.00    +0.000 A 
ATOM     12  C   UNL     1       6.899   6.402  18.121  0.00  0.00    +0.000 A 
ATOM     13  C   UNL     1       7.592   7.009  17.085  0.00  0.00    +0.000 A 
ATOM     14  C   UNL     1       7.584   6.422  15.827  0.00  0.00    +0.000 A 
ATOM     15  C   UNL     1       6.887   5.225  15.598  0.00  0.00    +0.000 A 
ATOM     16  C   UNL     1       6.251   4.586  16.675  0.00  0.00    +0.000 A 
BRANCH  15  17
ATOM     17  C   UNL     1       6.863   4.673  14.246  0.00  0.00    +0.000 A 
ATOM     18  N   UNL     1       7.493   5.161  13.192  0.00  0.00    +0.000 NA
ATOM     19  C   UNL     1       7.188   4.331  12.145  0.00  0.00    +0.000 A 
ATOM     20  C   UNL     1       6.327   3.341  12.549  0.00  0.00    +0.000 A 
ATOM     21  N   UNL     1       6.129   3.569  13.880  0.00  0.00    +0.000 N 
ATOM     22  H   UNL     1       5.526   3.040  14.495  0.00  0.00    +0.000 HD
ENDBRANCH  15  17
ENDBRANCH   4  11
BRANCH   1  24
ATOM     23  O   UNL     1       0.734   4.720  17.252  0.00  0.00    +0.000 OA
ATOM     24  C   UNL     1       1.818   4.537  17.799  0.00  0.00    +0.000 C 
ATOM     25  N   UNL     1       2.582   5.498  18.425  0.00  0.00    +0.000 N 
ATOM     26  H   UNL     1       3.534   5.261  18.679  0.00  0.00    +0.000 HD
BRANCH  25  27
ATOM     27  C   UNL     1       2.214   6.832  18.673  0.00  0.00    +0.000 A 
ATOM     28  C   UNL     1       2.149   7.796  17.670  0.00  0.00    +0.000 A 
ATOM     29  C   UNL     1       1.774   9.105  17.969  0.00  0.00    +0.000 A 
ATOM     30  C   UNL     1       1.455   9.451  19.279  0.00  0.00    +0.000 A 
ATOM     31 CL   UNL     1       0.995  11.067  19.643  0.00  0.00    +0.000 Cl
ATOM     32  C   UNL     1       1.498   8.493  20.291  0.00  0.00    +0.000 A 
ATOM     33  C   UNL     1       1.866   7.177  19.985  0.00  0.00    +0.000 A 
ENDBRANCH  25  27
ENDBRANCH   1  24
TORSDOF 4
ENDMDL
MODEL 2
REMARK VINA RESULT:      -8.4      9.103     12.474
REMARK  Name = 
REMARK  4 active torsions:
REMARK  status: ('A' for Active; 'I' for Inactive)
REMARK    1  A    between atoms: C_2  and  C_11
REMARK    2  A    between atoms: N_3  and  C_4
REMARK    3  A    between atoms: C_14  and  C_16
REMARK    4  A    between atoms: C_20  and  C_21
REMARK                            x       y       z     vdW  Elec       q    Type
REMARK                         _______ _______ _______ _____ _____    ______ ____
ROOT
ATOM      1  C   UNL     1      -3.074  15.614  21.639  0.00  0.00    +0.000 C 
ATOM      2  C   UNL     1      -4.424  15.157  21.120  0.00  0.00    +0.000 C 
ATOM      3  N   UNL     1      -5.112  14.221  22.023  0.00  0.00    +0.000 N 
ATOM      4  C   UNL     1      -5.813  13.065  21.640  0.00  0.00    +0.000 C 
ATOM      5  O   UNL     1      -6.251  12.267  22.475  0.00  0.00    +0.000 OA
ATOM      6  C   UNL     1      -5.231  14.686  23.416  0.00  0.00    +0.000 C 
ATOM      7  C   UNL     1      -3.902  15.159  24.008  0.00  0.00    +0.000 C 
ATOM      8  F   UNL     1      -3.137  14.077  24.297  0.00  0.00    +0.000 F 
ATOM      9  F   UNL     1      -4.125  15.795  25.184  0.00  0.00    +0.000 F 
ATOM     10  C   UNL     1      -3.132  16.090  23.083  0.00  0.00    +0.000 C 
ENDROOT
BRANCH   4  11
ATOM     11  C   UNL     1      -6.006  12.737  20.204  0.00  0.00    +0.000 A 
ATOM     12  C   UNL     1      -7.213  13.015  19.557  0.00  0.00    +0.000 A 
ATOM     13  C   UNL     1      -7.353  12.835  18.190  0.00  0.00    +0.000 A 
ATOM     14  C   UNL     1      -6.320  12.248  17.472  0.00  0.00    +0.000 A 
ATOM     15  C   UNL     1      -5.140  11.840  18.115  0.00  0.00    +0.000 A 
ATOM     16  C   UNL     1      -4.985  12.096  19.488  0.00  0.00    +0.000 A 
BRANCH  15  17
ATOM     17  C   UNL     1      -4.103  11.179  17.329  0.00  0.00    +0.000 A 
ATOM     18  N   UNL     1      -3.358  10.160  17.719  0.00  0.00    +0.000 NA
ATOM     19  C   UNL     1      -2.526   9.869  16.669  0.00  0.00    +0.000 A 
ATOM     20  C   UNL     1      -2.732  10.745  15.633  0.00  0.00    +0.000 A 
ATOM     21  N   UNL     1      -3.733  11.569  16.063  0.00  0.00    +0.000 N 
ATOM     22  H   UNL     1      -4.122  12.352  15.557  0.00  0.00    +0.000 HD
ENDBRANCH  15  17
ENDBRANCH   4  11
BRANCH   1  24
ATOM     23  O   UNL     1      -0.925  14.897  20.924  0.00  0.00    +0.000 OA
ATOM     24  C   UNL     1      -2.020  14.550  21.359  0.00  0.00    +0.000 C 
ATOM     25  N   UNL     1      -2.432  13.253  21.577  0.00  0.00    +0.000 N 
ATOM     26  H   UNL     1      -3.413  13.089  21.766  0.00  0.00    +0.000 HD
BRANCH  25  27
ATOM     27  C   UNL     1      -1.643  12.094  21.472  0.00  0.00    +0.000 A 
ATOM     28  C   UNL     1      -1.270  11.544  20.248  0.00  0.00    +0.000 A 
ATOM     29  C   UNL     1      -0.483  10.395  20.199  0.00  0.00    +0.000 A 
ATOM     30  C   UNL     1      -0.061   9.794  21.383  0.00  0.00    +0.000 A 
ATOM     31 CL   UNL     1       0.908   8.375  21.317  0.00  0.00    +0.000 Cl
ATOM     32  C   UNL     1      -0.412  10.343  22.615  0.00  0.00    +0.000 A 
ATOM     33  C   UNL     1      -1.194  11.504  22.660  0.00  0.00    +0.000 A 
ENDBRANCH  25  27
ENDBRANCH   1  24
TORSDOF 4
ENDMDL
MODEL 3
REMARK VINA RESULT:      -8.4      7.057     10.626
REMARK  Name = 
REMARK  4 active torsions:
REMARK  status: ('A' for Active; 'I' for Inactive)
REMARK    1  A    between atoms: C_2  and  C_11
REMARK    2  A    between atoms: N_3  and  C_4
REMARK    3  A    between atoms: C_14  and  C_16
REMARK    4  A    between atoms: C_20  and  C_21
REMARK                            x       y       z     vdW  Elec       q    Type
REMARK                         _______ _______ _______ _____ _____    ______ ____
ROOT
ATOM      1  C   UNL     1      -4.447  13.412  22.247  0.00  0.00    +0.000 C 
ATOM      2  C   UNL     1      -3.196  12.775  22.824  0.00  0.00    +0.000 C 
ATOM      3  N   UNL     1      -1.988  13.597  22.653  0.00  0.00    +0.000 N 
ATOM      4  C   UNL     1      -0.715  13.131  22.281  0.00  0.00    +0.000 C 
ATOM      5  O   UNL     1       0.213  13.908  22.036  0.00  0.00    +0.000 OA
ATOM      6  C   UNL     1      -2.117  14.986  23.125  0.00  0.00    +0.000 C 
ATOM      7  C   UNL     1      -3.357  15.695  22.577  0.00  0.00    +0.000 C 
ATOM      8  F   UNL     1      -3.143  16.019  21.278  0.00  0.00    +0.000 F 
ATOM      9  F   UNL     1      -3.546  16.864  23.237  0.00  0.00    +0.000 F 
ATOM     10  C   UNL     1      -4.623  14.858  22.688  0.00  0.00    +0.000 C 
ENDROOT
BRANCH   4  11
ATOM     11  C   UNL     1      -0.458  11.676  22.121  0.00  0.00    +0.000 A 
ATOM     12  C   UNL     1      -0.860  10.762  23.097  0.00  0.00    +0.000 A 
ATOM     13  C   UNL     1      -0.744   9.395  22.893  0.00  0.00    +0.000 A 
ATOM     14  C   UNL     1      -0.099   8.931  21.756  0.00  0.00    +0.000 A 
ATOM     15  C   UNL     1       0.430   9.827  20.813  0.00  0.00    +0.000 A 
ATOM     16  C   UNL     1       0.239  11.207  20.999  0.00  0.00    +0.000 A 
BRANCH  15  17
ATOM     17  C   UNL     1       1.147   9.293  19.659  0.00  0.00    +0.000 A 
ATOM     18  N   UNL     1       1.175   9.818  18.446  0.00  0.00    +0.000 NA
ATOM     19  C   UNL     1       1.963   8.990  17.689  0.00  0.00    +0.000 A 
ATOM     20  C   UNL     1       2.393   7.920  18.433  0.00  0.00    +0.000 A 
ATOM     21  N   UNL     1       1.870   8.123  19.678  0.00  0.00    +0.000 N 
ATOM     22  H   UNL     1       1.967   7.511  20.475  0.00  0.00    +0.000 HD
ENDBRANCH  15  17
ENDBRANCH   4  11
BRANCH   1  24
ATOM     23  O   UNL     1      -5.151  13.967  20.048  0.00  0.00    +0.000 OA
ATOM     24  C   UNL     1      -4.496  13.193  20.741  0.00  0.00    +0.000 C 
ATOM     25  N   UNL     1      -3.822  12.077  20.293  0.00  0.00    +0.000 N 
ATOM     26  H   UNL     1      -3.470  11.423  20.983  0.00  0.00    +0.000 HD
BRANCH  25  27
ATOM     27  C   UNL     1      -3.643  11.686  18.955  0.00  0.00    +0.000 A 
ATOM     28  C   UNL     1      -4.681  11.677  18.026  0.00  0.00    +0.000 A 
ATOM     29  C   UNL     1      -4.450  11.284  16.709  0.00  0.00    +0.000 A 
ATOM     30  C   UNL     1      -3.170  10.903  16.315  0.00  0.00    +0.000 A 
ATOM     31 CL   UNL     1      -2.890  10.417  14.690  0.00  0.00    +0.000 Cl
ATOM     32  C   UNL     1      -2.118  10.923  17.229  0.00  0.00    +0.000 A 
ATOM     33  C   UNL     1      -2.351  11.329  18.548  0.00  0.00    +0.000 A 
ENDBRANCH  25  27
ENDBRANCH   1  24
TORSDOF 4
ENDMDL
MODEL 4
REMARK VINA RESULT:      -8.3      9.134     12.535
REMARK  Name = 
REMARK  4 active torsions:
REMARK  status: ('A' for Active; 'I' for Inactive)
REMARK    1  A    between atoms: C_2  and  C_11
REMARK    2  A    between atoms: N_3  and  C_4
REMARK    3  A    between atoms: C_14  and  C_16
REMARK    4  A    between atoms: C_20  and  C_21
REMARK                            x       y       z     vdW  Elec       q    Type
REMARK                         _______ _______ _______ _____ _____    ______ ____
ROOT
ATOM      1  C   UNL     1      -2.418   9.848  17.925  0.00  0.00    +0.000 C 
ATOM      2  C   UNL     1      -3.903  10.035  18.172  0.00  0.00    +0.000 C 
ATOM      3  N   UNL     1      -4.518  11.053  17.307  0.00  0.00    +0.000 N 
ATOM      4  C   UNL     1      -5.458  12.019  17.703  0.00  0.00    +0.000 C 
ATOM      5  O   UNL     1      -5.826  12.917  16.939  0.00  0.00    +0.000 OA
ATOM      6  C   UNL     1      -4.259  10.874  15.867  0.00  0.00    +0.000 C 
ATOM      7  C   UNL     1      -2.777  10.686  15.542  0.00  0.00    +0.000 C 
ATOM      8  F   UNL     1      -2.147  11.883  15.639  0.00  0.00    +0.000 F 
ATOM      9  F   UNL     1      -2.637  10.284  14.254  0.00  0.00    +0.000 F 
ATOM     10  C   UNL     1      -2.088   9.677  16.449  0.00  0.00    +0.000 C 
ENDROOT
BRANCH   4  11
ATOM     11  C   UNL     1      -6.006  12.021  19.085  0.00  0.00    +0.000 A 
ATOM     12  C   UNL     1      -7.267  11.487  19.360  0.00  0.00    +0.000 A 
ATOM     13  C   UNL     1      -7.726  11.365  20.663  0.00  0.00    +0.000 A 
ATOM     14  C   UNL     1      -6.976  11.899  21.701  0.00  0.00    +0.000 A 
ATOM     15  C   UNL     1      -5.761  12.555  21.445  0.00  0.00    +0.000 A 
ATOM     16  C   UNL     1      -5.274  12.606  20.128  0.00  0.00    +0.000 A 
BRANCH  15  17
ATOM     17  C   UNL     1      -5.032  13.147  22.563  0.00  0.00    +0.000 A 
ATOM     18  N   UNL     1      -4.597  12.511  23.636  0.00  0.00    +0.000 NA
ATOM     19  C   UNL     1      -3.975  13.453  24.414  0.00  0.00    +0.000 A 
ATOM     20  C   UNL     1      -4.062  14.693  23.833  0.00  0.00    +0.000 A 
ATOM     21  N   UNL     1      -4.734  14.487  22.662  0.00  0.00    +0.000 N 
ATOM     22  H   UNL     1      -4.997  15.193  21.991  0.00  0.00    +0.000 HD
ENDBRANCH  15  17
ENDBRANCH   4  11
BRANCH   1  24
ATOM     23  O   UNL     1      -0.533  11.270  18.187  0.00  0.00    +0.000 OA
ATOM     24  C   UNL     1      -1.631  10.944  18.632  0.00  0.00    +0.000 C 
ATOM     25  N   UNL     1      -2.222  11.441  19.773  0.00  0.00    +0.000 N 
ATOM     26  H   UNL     1      -3.042  10.966  20.131  0.00  0.00    +0.000 HD
BRANCH  25  27
ATOM     27  C   UNL     1      -1.752  12.501  20.568  0.00  0.00    +0.000 A 
ATOM     28  C   UNL     1      -1.775  13.828  20.145  0.00  0.00    +0.000 A 
ATOM     29  C   UNL     1      -1.300  14.843  20.974  0.00  0.00    +0.000 A 
ATOM     30  C   UNL     1      -0.805  14.531  22.237  0.00  0.00    +0.000 A 
ATOM     31 CL   UNL     1      -0.220  15.786  23.255  0.00  0.00    +0.000 Cl
ATOM     32  C   UNL     1      -0.794  13.210  22.681  0.00  0.00    +0.000 A 
ATOM     33  C   UNL     1      -1.281  12.194  21.850  0.00  0.00    +0.000 A 
ENDBRANCH  25  27
ENDBRANCH   1  24
TORSDOF 4
ENDMDL
MODEL 5
REMARK VINA RESULT:      -8.3      1.920      2.435
REMARK  Name = 
REMARK  4 active torsions:
REMARK  status: ('A' for Active; 'I' for Inactive)
REMARK    1  A    between atoms: C_2  and  C_11
REMARK    2  A    between atoms: N_3  and  C_4
REMARK    3  A    between atoms: C_14  and  C_16
REMARK    4  A    between atoms: C_20  and  C_21
REMARK                            x       y       z     vdW  Elec       q    Type
REMARK                         _______ _______ _______ _____ _____    ______ ____
ROOT
ATOM      1  C   UNL     1       1.157   4.659  19.661  0.00  0.00    +0.000 C 
ATOM      2  C   UNL     1       2.202   4.232  18.647  0.00  0.00    +0.000 C 
ATOM      3  N   UNL     1       3.474   3.814  19.257  0.00  0.00    +0.000 N 
ATOM      4  C   UNL     1       4.761   4.140  18.795  0.00  0.00    +0.000 C 
ATOM      5  O   UNL     1       5.773   3.852  19.443  0.00  0.00    +0.000 OA
ATOM      6  C   UNL     1       3.343   2.796  20.314  0.00  0.00    +0.000 C 
ATOM      7  C   UNL     1       2.308   3.163  21.378  0.00  0.00    +0.000 C 
ATOM      8  F   UNL     1       2.824   4.122  22.185  0.00  0.00    +0.000 F 
ATOM      9  F   UNL     1       2.062   2.089  22.168  0.00  0.00    +0.000 F 
ATOM     10  C   UNL     1       0.992   3.651  20.789  0.00  0.00    +0.000 C 
ENDROOT
BRANCH   4  11
ATOM     11  C   UNL     1       4.943   4.892  17.527  0.00  0.00    +0.000 A 
ATOM     12  C   UNL     1       4.773   6.278  17.481  0.00  0.00    +0.000 A 
ATOM     13  C   UNL     1       5.071   7.000  16.336  0.00  0.00    +0.000 A 
ATOM     14  C   UNL     1       5.420   6.322  15.176  0.00  0.00    +0.000 A 
ATOM     15  C   UNL     1       5.478   4.919  15.155  0.00  0.00    +0.000 A 
ATOM     16  C   UNL     1       5.245   4.206  16.343  0.00  0.00    +0.000 A 
BRANCH  15  17
ATOM     17  C   UNL     1       5.799   4.248  13.898  0.00  0.00    +0.000 A 
ATOM     18  N   UNL     1       6.984   4.206  13.315  0.00  0.00    +0.000 NA
ATOM     19  C   UNL     1       6.820   3.475  12.168  0.00  0.00    +0.000 A 
ATOM     20  C   UNL     1       5.511   3.095  12.020  0.00  0.00    +0.000 A 
ATOM     21  N   UNL     1       4.874   3.590  13.121  0.00  0.00    +0.000 N 
ATOM     22  H   UNL     1       3.887   3.516  13.326  0.00  0.00    +0.000 HD
ENDBRANCH  15  17
ENDBRANCH   4  11
BRANCH   1  24
ATOM     23  O   UNL     1       2.579   6.506  20.114  0.00  0.00    +0.000 OA
ATOM     24  C   UNL     1       1.425   6.088  20.115  0.00  0.00    +0.000 C 
ATOM     25  N   UNL     1       0.314   6.777  20.551  0.00  0.00    +0.000 N 
ATOM     26  H   UNL     1      -0.551   6.263  20.668  0.00  0.00    +0.000 HD
BRANCH  25  27
ATOM     27  C   UNL     1       0.265   8.125  20.948  0.00  0.00    +0.000 A 
ATOM     28  C   UNL     1      -0.226   8.528  22.188  0.00  0.00    +0.000 A 
ATOM     29  C   UNL     1      -0.248   9.878  22.535  0.00  0.00    +0.000 A 
ATOM     30  C   UNL     1       0.229  10.831  21.639  0.00  0.00    +0.000 A 
ATOM     31 CL   UNL     1       0.197  12.495  22.070  0.00  0.00    +0.000 Cl
ATOM     32  C   UNL     1       0.740  10.441  20.402  0.00  0.00    +0.000 A 
ATOM     33  C   UNL     1       0.770   9.084  20.060  0.00  0.00    +0.000 A 
ENDBRANCH  25  27
ENDBRANCH   1  24
TORSDOF 4
ENDMDL
MODEL 6
REMARK VINA RESULT:      -8.3      1.297      1.605
REMARK  Name = 
REMARK  4 active torsions:
REMARK  status: ('A' for Active; 'I' for Inactive)
REMARK    1  A    between atoms: C_2  and  C_11
REMARK    2  A    between atoms: N_3  and  C_4
REMARK    3  A    between atoms: C_14  and  C_16
REMARK    4  A    between atoms: C_20  and  C_21
REMARK                            x       y       z     vdW  Elec       q    Type
REMARK                         _______ _______ _______ _____ _____    ______ ____
ROOT
ATOM      1  C   UNL     1       1.654   3.283  19.206  0.00  0.00    +0.000 C 
ATOM      2  C   UNL     1       2.895   3.268  18.333  0.00  0.00    +0.000 C 
ATOM      3  N   UNL     1       4.146   3.420  19.092  0.00  0.00    +0.000 N 
ATOM      4  C   UNL     1       5.247   4.214  18.725  0.00  0.00    +0.000 C 
ATOM      5  O   UNL     1       6.205   4.383  19.485  0.00  0.00    +0.000 OA
ATOM      6  C   UNL     1       4.302   2.481  20.216  0.00  0.00    +0.000 C 
ATOM      7  C   UNL     1       3.086   2.448  21.144  0.00  0.00    +0.000 C 
ATOM      8  F   UNL     1       3.084   3.567  21.910  0.00  0.00    +0.000 F 
ATOM      9  F   UNL     1       3.191   1.400  21.999  0.00  0.00    +0.000 F 
ATOM     10  C   UNL     1       1.765   2.343  20.397  0.00  0.00    +0.000 C 
ENDROOT
BRANCH   4  11
ATOM     11  C   UNL     1       5.268   4.921  17.419  0.00  0.00    +0.000 A 
ATOM     12  C   UNL     1       4.994   6.288  17.335  0.00  0.00    +0.000 A 
ATOM     13  C   UNL     1       5.143   6.979  16.142  0.00  0.00    +0.000 A 
ATOM     14  C   UNL     1       5.444   6.277  14.983  0.00  0.00    +0.000 A 
ATOM     15  C   UNL     1       5.603   4.882  15.009  0.00  0.00    +0.000 A 
ATOM     16  C   UNL     1       5.521   4.207  16.239  0.00  0.00    +0.000 A 
BRANCH  15  17
ATOM     17  C   UNL     1       5.867   4.181  13.756  0.00  0.00    +0.000 A 
ATOM     18  N   UNL     1       7.022   4.133  13.117  0.00  0.00    +0.000 NA
ATOM     19  C   UNL     1       6.809   3.371  11.998  0.00  0.00    +0.000 A 
ATOM     20  C   UNL     1       5.497   2.978  11.924  0.00  0.00    +0.000 A 
ATOM     21  N   UNL     1       4.911   3.496  13.043  0.00  0.00    +0.000 N 
ATOM     22  H   UNL     1       3.936   3.421  13.298  0.00  0.00    +0.000 HD
ENDBRANCH  15  17
ENDBRANCH   4  11
BRANCH   1  24
ATOM     23  O   UNL     1       0.457   4.918  20.445  0.00  0.00    +0.000 OA
ATOM     24  C   UNL     1       1.282   4.718  19.558  0.00  0.00    +0.000 C 
ATOM     25  N   UNL     1       1.887   5.683  18.782  0.00  0.00    +0.000 N 
ATOM     26  H   UNL     1       2.411   5.382  17.969  0.00  0.00    +0.000 HD
BRANCH  25  27
ATOM     27  C   UNL     1       1.782   7.076  18.941  0.00  0.00    +0.000 A 
ATOM     28  C   UNL     1       1.620   7.682  20.185  0.00  0.00    +0.000 A 
ATOM     29  C   UNL     1       1.525   9.069  20.289  0.00  0.00    +0.000 A 
ATOM     30  C   UNL     1       1.597   9.856  19.142  0.00  0.00    +0.000 A 
ATOM     31 CL   UNL     1       1.477  11.565  19.275  0.00  0.00    +0.000 Cl
ATOM     32  C   UNL     1       1.777   9.263  17.893  0.00  0.00    +0.000 A 
ATOM     33  C   UNL     1       1.883   7.871  17.793  0.00  0.00    +0.000 A 
ENDBRANCH  25  27
ENDBRANCH   1  24
TORSDOF 4
ENDMDL
MODEL 7
REMARK VINA RESULT:      -8.1      8.637     12.338
REMARK  Name = 
REMARK  4 active torsions:
REMARK  status: ('A' for Active; 'I' for Inactive)
REMARK    1  A    between atoms: C_2  and  C_11
REMARK    2  A    between atoms: N_3  and  C_4
REMARK    3  A    between atoms: C_14  and  C_16
REMARK    4  A    between atoms: C_20  and  C_21
REMARK                            x       y       z     vdW  Elec       q    Type
REMARK                         _______ _______ _______ _____ _____    ______ ____
ROOT
ATOM      1  C   UNL     1      -2.372   9.927  17.898  0.00  0.00    +0.000 C 
ATOM      2  C   UNL     1      -3.858  10.074  18.171  0.00  0.00    +0.000 C 
ATOM      3  N   UNL     1      -4.522  11.044  17.286  0.00  0.00    +0.000 N 
ATOM      4  C   UNL     1      -5.484  11.993  17.672  0.00  0.00    +0.000 C 
ATOM      5  O   UNL     1      -5.895  12.854  16.887  0.00  0.00    +0.000 OA
ATOM      6  C   UNL     1      -4.286  10.827  15.848  0.00  0.00    +0.000 C 
ATOM      7  C   UNL     1      -2.805  10.675  15.498  0.00  0.00    +0.000 C 
ATOM      8  F   UNL     1      -2.212  11.894  15.544  0.00  0.00    +0.000 F 
ATOM      9  F   UNL     1      -2.678  10.237  14.221  0.00  0.00    +0.000 F 
ATOM     10  C   UNL     1      -2.067   9.718  16.422  0.00  0.00    +0.000 C 
ENDROOT
BRANCH   4  11
ATOM     11  C   UNL     1      -6.004  12.023  19.063  0.00  0.00    +0.000 A 
ATOM     12  C   UNL     1      -7.277  11.536  19.367  0.00  0.00    +0.000 A 
ATOM     13  C   UNL     1      -7.715  11.437  20.679  0.00  0.00    +0.000 A 
ATOM     14  C   UNL     1      -6.926  11.950  21.699  0.00  0.00    +0.000 A 
ATOM     15  C   UNL     1      -5.693  12.561  21.415  0.00  0.00    +0.000 A 
ATOM     16  C   UNL     1      -5.232  12.587  20.088  0.00  0.00    +0.000 A 
BRANCH  15  17
ATOM     17  C   UNL     1      -4.922  13.134  22.515  0.00  0.00    +0.000 A 
ATOM     18  N   UNL     1      -4.581  12.518  23.633  0.00  0.00    +0.000 NA
ATOM     19  C   UNL     1      -3.870  13.429  24.370  0.00  0.00    +0.000 A 
ATOM     20  C   UNL     1      -3.806  14.634  23.717  0.00  0.00    +0.000 A 
ATOM     21  N   UNL     1      -4.476  14.435  22.544  0.00  0.00    +0.000 N 
ATOM     22  H   UNL     1      -4.645  15.125  21.827  0.00  0.00    +0.000 HD
ENDBRANCH  15  17
ENDBRANCH   4  11
BRANCH   1  24
ATOM     23  O   UNL     1      -2.234  11.948  19.138  0.00  0.00    +0.000 OA
ATOM     24  C   UNL     1      -1.606  11.069  18.554  0.00  0.00    +0.000 C 
ATOM     25  N   UNL     1      -0.241  11.032  18.374  0.00  0.00    +0.000 N 
ATOM     26  H   UNL     1       0.137  10.353  17.724  0.00  0.00    +0.000 HD
BRANCH  25  27
ATOM     27  C   UNL     1       0.703  11.912  18.932  0.00  0.00    +0.000 A 
ATOM     28  C   UNL     1       0.907  12.027  20.305  0.00  0.00    +0.000 A 
ATOM     29  C   UNL     1       1.859  12.913  20.807  0.00  0.00    +0.000 A 
ATOM     30  C   UNL     1       2.617  13.685  19.931  0.00  0.00    +0.000 A 
ATOM     31 CL   UNL     1       3.788  14.777  20.555  0.00  0.00    +0.000 Cl
ATOM     32  C   UNL     1       2.436  13.567  18.553  0.00  0.00    +0.000 A 
ATOM     33  C   UNL     1       1.487  12.669  18.052  0.00  0.00    +0.000 A 
ENDBRANCH  25  27
ENDBRANCH   1  24
TORSDOF 4
ENDMDL
MODEL 8
REMARK VINA RESULT:      -8.1      8.736     12.697
REMARK  Name = 
REMARK  4 active torsions:
REMARK  status: ('A' for Active; 'I' for Inactive)
REMARK    1  A    between atoms: C_2  and  C_11
REMARK    2  A    between atoms: N_3  and  C_4
REMARK    3  A    between atoms: C_14  and  C_16
REMARK    4  A    between atoms: C_20  and  C_21
REMARK                            x       y       z     vdW  Elec       q    Type
REMARK                         _______ _______ _______ _____ _____    ______ ____
ROOT
ATOM      1  C   UNL     1      -2.406  10.057  18.074  0.00  0.00    +0.000 C 
ATOM      2  C   UNL     1      -3.906  10.140  18.284  0.00  0.00    +0.000 C 
ATOM      3  N   UNL     1      -4.578  11.060  17.353  0.00  0.00    +0.000 N 
ATOM      4  C   UNL     1      -5.599  11.969  17.680  0.00  0.00    +0.000 C 
ATOM      5  O   UNL     1      -6.017  12.794  16.861  0.00  0.00    +0.000 OA
ATOM      6  C   UNL     1      -4.275  10.826  15.931  0.00  0.00    +0.000 C 
ATOM      7  C   UNL     1      -2.775  10.737  15.643  0.00  0.00    +0.000 C 
ATOM      8  F   UNL     1      -2.242  11.983  15.686  0.00  0.00    +0.000 F 
ATOM      9  F   UNL     1      -2.576  10.281  14.382  0.00  0.00    +0.000 F 
ATOM     10  C   UNL     1      -2.031   9.834  16.616  0.00  0.00    +0.000 C 
ENDROOT
BRANCH   4  11
ATOM     11  C   UNL     1      -6.175  12.001  19.049  0.00  0.00    +0.000 A 
ATOM     12  C   UNL     1      -7.229  11.157  19.406  0.00  0.00    +0.000 A 
ATOM     13  C   UNL     1      -7.682  11.087  20.715  0.00  0.00    +0.000 A 
ATOM     14  C   UNL     1      -7.166  11.964  21.660  0.00  0.00    +0.000 A 
ATOM     15  C   UNL     1      -6.194  12.912  21.304  0.00  0.00    +0.000 A 
ATOM     16  C   UNL     1      -5.694  12.921  19.991  0.00  0.00    +0.000 A 
BRANCH  15  17
ATOM     17  C   UNL     1      -5.719  13.848  22.320  0.00  0.00    +0.000 A 
ATOM     18  N   UNL     1      -6.426  14.813  22.883  0.00  0.00    +0.000 NA
ATOM     19  C   UNL     1      -5.585  15.435  23.769  0.00  0.00    +0.000 A 
ATOM     20  C   UNL     1      -4.334  14.874  23.723  0.00  0.00    +0.000 A 
ATOM     21  N   UNL     1      -4.431  13.871  22.802  0.00  0.00    +0.000 N 
ATOM     22  H   UNL     1      -3.685  13.263  22.497  0.00  0.00    +0.000 HD
ENDBRANCH  15  17
ENDBRANCH   4  11
BRANCH   1  24
ATOM     23  O   UNL     1      -2.297  11.833  19.647  0.00  0.00    +0.000 OA
ATOM     24  C   UNL     1      -1.721  11.247  18.735  0.00  0.00    +0.000 C 
ATOM     25  N   UNL     1      -0.505  11.595  18.188  0.00  0.00    +0.000 N 
ATOM     26  H   UNL     1      -0.222  11.144  17.327  0.00  0.00    +0.000 HD
BRANCH  25  27
ATOM     27  C   UNL     1       0.367  12.596  18.651  0.00  0.00    +0.000 A 
ATOM     28  C   UNL     1       1.621  12.315  19.188  0.00  0.00    +0.000 A 
ATOM     29  C   UNL     1       2.449  13.345  19.629  0.00  0.00    +0.000 A 
ATOM     30  C   UNL     1       2.024  14.667  19.528  0.00  0.00    +0.000 A 
ATOM     31 CL   UNL     1       3.049  15.934  20.076  0.00  0.00    +0.000 Cl
ATOM     32  C   UNL     1       0.779  14.965  18.977  0.00  0.00    +0.000 A 
ATOM     33  C   UNL     1      -0.046  13.929  18.525  0.00  0.00    +0.000 A 
ENDBRANCH  25  27
ENDBRANCH   1  24
TORSDOF 4
ENDMDL
MODEL 9
REMARK VINA RESULT:      -8.1      1.336      1.659
REMARK  Name = 
REMARK  4 active torsions:
REMARK  status: ('A' for Active; 'I' for Inactive)
REMARK    1  A    between atoms: C_2  and  C_11
REMARK    2  A    between atoms: N_3  and  C_4
REMARK    3  A    between atoms: C_14  and  C_16
REMARK    4  A    between atoms: C_20  and  C_21
REMARK                            x       y       z     vdW  Elec       q    Type
REMARK                         _______ _______ _______ _____ _____    ______ ____
ROOT
ATOM      1  C   UNL     1       1.761   5.186  18.442  0.00  0.00    +0.000 C 
ATOM      2  C   UNL     1       3.055   4.650  17.858  0.00  0.00    +0.000 C 
ATOM      3  N   UNL     1       3.962   4.082  18.867  0.00  0.00    +0.000 N 
ATOM      4  C   UNL     1       5.355   4.259  18.923  0.00  0.00    +0.000 C 
ATOM      5  O   UNL     1       6.022   3.851  19.879  0.00  0.00    +0.000 OA
ATOM      6  C   UNL     1       3.346   3.076  19.751  0.00  0.00    +0.000 C 
ATOM      7  C   UNL     1       2.036   3.552  20.382  0.00  0.00    +0.000 C 
ATOM      8  F   UNL     1       2.317   4.438  21.369  0.00  0.00    +0.000 F 
ATOM      9  F   UNL     1       1.407   2.507  20.974  0.00  0.00    +0.000 F 
ATOM     10  C   UNL     1       1.088   4.194  19.380  0.00  0.00    +0.000 C 
ENDROOT
BRANCH   4  11
ATOM     11  C   UNL     1       6.068   4.996  17.848  0.00  0.00    +0.000 A 
ATOM     12  C   UNL     1       6.692   6.219  18.104  0.00  0.00    +0.000 A 
ATOM     13  C   UNL     1       7.470   6.845  17.141  0.00  0.00    +0.000 A 
ATOM     14  C   UNL     1       7.525   6.312  15.861  0.00  0.00    +0.000 A 
ATOM     15  C   UNL     1       6.807   5.150  15.535  0.00  0.00    +0.000 A 
ATOM     16  C   UNL     1       6.082   4.488  16.541  0.00  0.00    +0.000 A 
BRANCH  15  17
ATOM     17  C   UNL     1       6.853   4.657  14.162  0.00  0.00    +0.000 A 
ATOM     18  N   UNL     1       7.529   5.194  13.161  0.00  0.00    +0.000 NA
ATOM     19  C   UNL     1       7.283   4.407  12.067  0.00  0.00    +0.000 A 
ATOM     20  C   UNL     1       6.413   3.395  12.385  0.00  0.00    +0.000 A 
ATOM     21  N   UNL     1       6.148   3.564  13.714  0.00  0.00    +0.000 N 
ATOM     22  H   UNL     1       5.521   3.005  14.275  0.00  0.00    +0.000 HD
ENDBRANCH  15  17
ENDBRANCH   4  11
BRANCH   1  24
ATOM     23  O   UNL     1       2.689   6.679  20.039  0.00  0.00    +0.000 OA
ATOM     24  C   UNL     1       1.991   6.570  19.034  0.00  0.00    +0.000 C 
ATOM     25  N   UNL     1       1.326   7.594  18.394  0.00  0.00    +0.000 N 
ATOM     26  H   UNL     1       0.643   7.351  17.686  0.00  0.00    +0.000 HD
BRANCH  25  27
ATOM     27  C   UNL     1       1.423   8.967  18.683  0.00  0.00    +0.000 A 
ATOM     28  C   UNL     1       2.107   9.863  17.866  0.00  0.00    +0.000 A 
ATOM     29  C   UNL     1       2.170  11.216  18.195  0.00  0.00    +0.000 A 
ATOM     30  C   UNL     1       1.538  11.677  19.347  0.00  0.00    +0.000 A 
ATOM     31 CL   UNL     1       1.619  13.346  19.751  0.00  0.00    +0.000 Cl
ATOM     32  C   UNL     1       0.834  10.795  20.165  0.00  0.00    +0.000 A 
ATOM     33  C   UNL     1       0.764   9.439  19.826  0.00  0.00    +0.000 A 
ENDBRANCH  25  27
ENDBRANCH   1  24
TORSDOF 4
ENDMDL
