MODEL 1
REMARK VINA RESULT:      -9.2      0.000      0.000
REMARK  Name = 
REMARK  5 active torsions:
REMARK  status: ('A' for Active; 'I' for Inactive)
REMARK    1  A    between atoms: C_1  and  N_2
REMARK    2  A    between atoms: N_2  and  C_3
REMARK    3  A    between atoms: C_4  and  C_6
REMARK    4  A    between atoms: C_7  and  N_8
REMARK    5  A    between atoms: C_11  and  C_12
REMARK                            x       y       z     vdW  Elec       q    Type
REMARK                         _______ _______ _______ _____ _____    ______ ____
ROOT
ATOM      1  C   UNL     1       1.442   8.721  20.242  0.00  0.00    +0.000 A 
ATOM      2  C   UNL     1       1.475   8.738  21.638  0.00  0.00    +0.000 A 
ATOM      3  N   UNL     1       0.687   9.505  22.431  0.00  0.00    +0.000 NA
ATOM      4  C   UNL     1      -0.219  10.267  21.813  0.00  0.00    +0.000 A 
ATOM      5  C   UNL     1      -0.370  10.384  20.436  0.00  0.00    +0.000 A 
ATOM      6  C   UNL     1       0.537   9.652  19.655  0.00  0.00    +0.000 A 
ATOM      7 CL   UNL     1       0.711   9.968  17.959  0.00  0.00    +0.000 Cl
ATOM      8  C   UNL     1      -1.407  11.468  20.153  0.00  0.00    +0.000 C 
ATOM      9  C   UNL     1      -0.950  12.495  19.119  0.00  0.00    +0.000 C 
ATOM     10  C   UNL     1      -1.622  12.109  17.787  0.00  0.00    +0.000 C 
ATOM     11  C   UNL     1      -2.775  11.121  18.092  0.00  0.00    +0.000 C 
ATOM     12  C   UNL     1      -2.724   9.660  17.624  0.00  0.00    +0.000 C 
ATOM     13  C   UNL     1      -2.655   9.445  16.124  0.00  0.00    +0.000 C 
ATOM     14  C   UNL     1      -3.386  10.482  15.293  0.00  0.00    +0.000 C 
ATOM     15  N   UNL     1      -4.066  11.517  16.036  0.00  0.00    +0.000 N 
ATOM     16  C   UNL     1      -3.987  11.731  17.392  0.00  0.00    +0.000 C 
ATOM     17  O   UNL     1      -4.786  12.495  17.938  0.00  0.00    +0.000 OA
ATOM     18  C   UNL     1      -2.823  11.095  19.637  0.00  0.00    +0.000 C 
ATOM     19  C   UNL     1      -1.561  12.079  21.592  0.00  0.00    +0.000 C 
ATOM     20  N   UNL     1      -1.104  11.080  22.543  0.00  0.00    +0.000 N 
ATOM     21  H   UNL     1      -4.780  12.057  15.564  0.00  0.00    +0.000 HD
ATOM     22  H   UNL     1      -0.686  11.354  23.426  0.00  0.00    +0.000 HD
ENDROOT
BRANCH   1  27
ATOM     23  C   UNL     1       3.097   5.462  18.971  0.00  0.00    +0.000 A 
ATOM     24  C   UNL     1       3.698   5.904  17.778  0.00  0.00    +0.000 A 
ATOM     25  C   UNL     1       3.609   7.257  17.464  0.00  0.00    +0.000 A 
ATOM     26  C   UNL     1       2.886   8.141  18.265  0.00  0.00    +0.000 A 
ATOM     27  C   UNL     1       2.252   7.739  19.459  0.00  0.00    +0.000 A 
ATOM     28  C   UNL     1       2.387   6.370  19.787  0.00  0.00    +0.000 A 
ATOM     29  F   UNL     1       1.791   5.929  20.912  0.00  0.00    +0.000 F 
BRANCH  23  33
ATOM     30  C   UNL     1       2.112   1.824  19.631  0.00  0.00    +0.000 C 
ATOM     31  N   UNL     1       1.967   3.215  19.227  0.00  0.00    +0.000 N 
ATOM     32  C   UNL     1       0.867   3.500  18.307  0.00  0.00    +0.000 C 
ATOM     33  C   UNL     1       3.121   4.022  19.361  0.00  0.00    +0.000 C 
ATOM     34  O   UNL     1       4.167   3.578  19.834  0.00  0.00    +0.000 OA
ENDBRANCH  23  33
BRANCH  24  35
ATOM     35  N   UNL     1       4.154   5.043  16.762  0.00  0.00    +0.000 N 
ATOM     36  H   UNL     1       4.111   4.049  16.983  0.00  0.00    +0.000 HD
ATOM     37  H   UNL     1       5.025   5.321  16.324  0.00  0.00    +0.000 HD
ENDBRANCH  24  35
ENDBRANCH   1  27
TORSDOF 3
ENDMDL
MODEL 2
REMARK VINA RESULT:      -9.1      1.004      1.175
REMARK  Name = 
REMARK  5 active torsions:
REMARK  status: ('A' for Active; 'I' for Inactive)
REMARK    1  A    between atoms: C_1  and  N_2
REMARK    2  A    between atoms: N_2  and  C_3
REMARK    3  A    between atoms: C_4  and  C_6
REMARK    4  A    between atoms: C_7  and  N_8
REMARK    5  A    between atoms: C_11  and  C_12
REMARK                            x       y       z     vdW  Elec       q    Type
REMARK                         _______ _______ _______ _____ _____    ______ ____
ROOT
ATOM      1  C   UNL     1       1.709   8.316  19.916  0.00  0.00    +0.000 A 
ATOM      2  C   UNL     1       1.744   8.201  21.308  0.00  0.00    +0.000 A 
ATOM      3  N   UNL     1       0.968   8.902  22.171  0.00  0.00    +0.000 NA
ATOM      4  C   UNL     1       0.072   9.732  21.629  0.00  0.00    +0.000 A 
ATOM      5  C   UNL     1      -0.079   9.979  20.270  0.00  0.00    +0.000 A 
ATOM      6  C   UNL     1       0.817   9.311  19.422  0.00  0.00    +0.000 A 
ATOM      7 CL   UNL     1       0.994   9.782  17.763  0.00  0.00    +0.000 Cl
ATOM      8  C   UNL     1      -1.099  11.100  20.092  0.00  0.00    +0.000 C 
ATOM      9  C   UNL     1      -0.629  12.213  19.159  0.00  0.00    +0.000 C 
ATOM     10  C   UNL     1      -1.308  11.963  17.798  0.00  0.00    +0.000 C 
ATOM     11  C   UNL     1      -2.475  10.967  18.011  0.00  0.00    +0.000 C 
ATOM     12  C   UNL     1      -2.445   9.556  17.408  0.00  0.00    +0.000 C 
ATOM     13  C   UNL     1      -2.381   9.482  15.895  0.00  0.00    +0.000 C 
ATOM     14  C   UNL     1      -3.097  10.603  15.166  0.00  0.00    +0.000 C 
ATOM     15  N   UNL     1      -3.761  11.574  16.005  0.00  0.00    +0.000 N 
ATOM     16  C   UNL     1      -3.678  11.658  17.374  0.00  0.00    +0.000 C 
ATOM     17  O   UNL     1      -4.466  12.378  17.992  0.00  0.00    +0.000 OA
ATOM     18  C   UNL     1      -2.522  10.797  19.547  0.00  0.00    +0.000 C 
ATOM     19  C   UNL     1      -1.244  11.575  21.582  0.00  0.00    +0.000 C 
ATOM     20  N   UNL     1      -0.800  10.484  22.435  0.00  0.00    +0.000 N 
ATOM     21  H   UNL     1      -4.469  12.165  15.587  0.00  0.00    +0.000 HD
ATOM     22  H   UNL     1      -0.377  10.668  23.339  0.00  0.00    +0.000 HD
ENDROOT
BRANCH   1  27
ATOM     23  C   UNL     1       3.054   5.182  18.088  0.00  0.00    +0.000 A 
ATOM     24  C   UNL     1       3.975   5.757  17.193  0.00  0.00    +0.000 A 
ATOM     25  C   UNL     1       4.182   7.131  17.263  0.00  0.00    +0.000 A 
ATOM     26  C   UNL     1       3.451   7.931  18.142  0.00  0.00    +0.000 A 
ATOM     27  C   UNL     1       2.504   7.401  19.043  0.00  0.00    +0.000 A 
ATOM     28  C   UNL     1       2.335   5.997  18.989  0.00  0.00    +0.000 A 
ATOM     29  F   UNL     1       1.435   5.439  19.821  0.00  0.00    +0.000 F 
BRANCH  23  33
ATOM     30  C   UNL     1       3.233   1.387  18.548  0.00  0.00    +0.000 C 
ATOM     31  N   UNL     1       3.638   2.783  18.634  0.00  0.00    +0.000 N 
ATOM     32  C   UNL     1       4.601   3.104  19.686  0.00  0.00    +0.000 C 
ATOM     33  C   UNL     1       2.752   3.721  18.054  0.00  0.00    +0.000 C 
ATOM     34  O   UNL     1       1.726   3.366  17.473  0.00  0.00    +0.000 OA
ENDBRANCH  23  33
BRANCH  24  35
ATOM     35  N   UNL     1       4.503   5.090  16.071  0.00  0.00    +0.000 N 
ATOM     36  H   UNL     1       5.115   4.303  16.283  0.00  0.00    +0.000 HD
ATOM     37  H   UNL     1       4.862   5.696  15.342  0.00  0.00    +0.000 HD
ENDBRANCH  24  35
ENDBRANCH   1  27
TORSDOF 3
ENDMDL
MODEL 3
REMARK VINA RESULT:      -8.4      4.032      6.748
REMARK  Name = 
REMARK  5 active torsions:
REMARK  status: ('A' for Active; 'I' for Inactive)
REMARK    1  A    between atoms: C_1  and  N_2
REMARK    2  A    between atoms: N_2  and  C_3
REMARK    3  A    between atoms: C_4  and  C_6
REMARK    4  A    between atoms: C_7  and  N_8
REMARK    5  A    between atoms: C_11  and  C_12
REMARK                            x       y       z     vdW  Elec       q    Type
REMARK                         _______ _______ _______ _____ _____    ______ ____
ROOT
ATOM      1  C   UNL     1      -3.128  11.927  18.698  0.00  0.00    +0.000 A 
ATOM      2  C   UNL     1      -3.870  11.599  17.561  0.00  0.00    +0.000 A 
ATOM      3  N   UNL     1      -5.216  11.715  17.445  0.00  0.00    +0.000 NA
ATOM      4  C   UNL     1      -5.864  12.227  18.495  0.00  0.00    +0.000 A 
ATOM      5  C   UNL     1      -5.282  12.583  19.706  0.00  0.00    +0.000 A 
ATOM      6  C   UNL     1      -3.903  12.348  19.816  0.00  0.00    +0.000 A 
ATOM      7 CL   UNL     1      -3.111  12.398  21.358  0.00  0.00    +0.000 Cl
ATOM      8  C   UNL     1      -6.390  12.974  20.680  0.00  0.00    +0.000 C 
ATOM      9  C   UNL     1      -6.275  12.293  22.042  0.00  0.00    +0.000 C 
ATOM     10  C   UNL     1      -5.659  13.329  23.001  0.00  0.00    +0.000 C 
ATOM     11  C   UNL     1      -5.773  14.728  22.347  0.00  0.00    +0.000 C 
ATOM     12  C   UNL     1      -4.530  15.511  21.903  0.00  0.00    +0.000 C 
ATOM     13  C   UNL     1      -3.547  15.873  23.000  0.00  0.00    +0.000 C 
ATOM     14  C   UNL     1      -4.170  16.145  24.357  0.00  0.00    +0.000 C 
ATOM     15  N   UNL     1      -5.610  16.045  24.417  0.00  0.00    +0.000 N 
ATOM     16  C   UNL     1      -6.437  15.590  23.418  0.00  0.00    +0.000 C 
ATOM     17  O   UNL     1      -7.654  15.768  23.503  0.00  0.00    +0.000 OA
ATOM     18  C   UNL     1      -6.610  14.460  21.075  0.00  0.00    +0.000 C 
ATOM     19  C   UNL     1      -7.647  12.499  19.865  0.00  0.00    +0.000 C 
ATOM     20  N   UNL     1      -7.257  12.413  18.468  0.00  0.00    +0.000 N 
ATOM     21  H   UNL     1      -6.088  16.476  25.199  0.00  0.00    +0.000 HD
ATOM     22  H   UNL     1      -7.692  11.741  17.845  0.00  0.00    +0.000 HD
ENDROOT
BRANCH   1  27
ATOM     23  C   UNL     1       0.554  10.742  18.569  0.00  0.00    +0.000 A 
ATOM     24  C   UNL     1       1.237  11.969  18.478  0.00  0.00    +0.000 A 
ATOM     25  C   UNL     1       0.486  13.140  18.537  0.00  0.00    +0.000 A 
ATOM     26  C   UNL     1      -0.906  13.105  18.610  0.00  0.00    +0.000 A 
ATOM     27  C   UNL     1      -1.634  11.899  18.682  0.00  0.00    +0.000 A 
ATOM     28  C   UNL     1      -0.855  10.718  18.665  0.00  0.00    +0.000 A 
ATOM     29  F   UNL     1      -1.499   9.537  18.721  0.00  0.00    +0.000 F 
BRANCH  23  33
ATOM     30  C   UNL     1       2.284   7.441  19.436  0.00  0.00    +0.000 C 
ATOM     31  N   UNL     1       1.578   8.697  19.646  0.00  0.00    +0.000 N 
ATOM     32  C   UNL     1       0.841   8.812  20.904  0.00  0.00    +0.000 C 
ATOM     33  C   UNL     1       1.283   9.443  18.481  0.00  0.00    +0.000 C 
ATOM     34  O   UNL     1       1.646   9.068  17.366  0.00  0.00    +0.000 OA
ENDBRANCH  23  33
BRANCH  24  35
ATOM     35  N   UNL     1       2.581  12.093  18.078  0.00  0.00    +0.000 N 
ATOM     36  H   UNL     1       2.728  12.178  17.073  0.00  0.00    +0.000 HD
ATOM     37  H   UNL     1       3.222  11.448  18.527  0.00  0.00    +0.000 HD
ENDBRANCH  24  35
ENDBRANCH   1  27
TORSDOF 3
ENDMDL
MODEL 4
REMARK VINA RESULT:      -8.3      1.711      2.658
REMARK  Name = 
REMARK  5 active torsions:
REMARK  status: ('A' for Active; 'I' for Inactive)
REMARK    1  A    between atoms: C_1  and  N_2
REMARK    2  A    between atoms: N_2  and  C_3
REMARK    3  A    between atoms: C_4  and  C_6
REMARK    4  A    between atoms: C_7  and  N_8
REMARK    5  A    between atoms: C_11  and  C_12
REMARK                            x       y       z     vdW  Elec       q    Type
REMARK                         _______ _______ _______ _____ _____    ______ ____
ROOT
ATOM      1  C   UNL     1       1.531   8.163  19.958  0.00  0.00    +0.000 A 
ATOM      2  C   UNL     1       1.693   8.156  21.346  0.00  0.00    +0.000 A 
ATOM      3  N   UNL     1       1.071   8.995  22.210  0.00  0.00    +0.000 NA
ATOM      4  C   UNL     1       0.205   9.863  21.680  0.00  0.00    +0.000 A 
ATOM      5  C   UNL     1      -0.057  10.015  20.324  0.00  0.00    +0.000 A 
ATOM      6  C   UNL     1       0.687   9.197  19.461  0.00  0.00    +0.000 A 
ATOM      7 CL   UNL     1       0.741   9.515  17.757  0.00  0.00    +0.000 Cl
ATOM      8  C   UNL     1      -0.985  11.213  20.141  0.00  0.00    +0.000 C 
ATOM      9  C   UNL     1      -0.511  12.196  19.073  0.00  0.00    +0.000 C 
ATOM     10  C   UNL     1      -1.341  11.907  17.808  0.00  0.00    +0.000 C 
ATOM     11  C   UNL     1      -2.566  11.049  18.213  0.00  0.00    +0.000 C 
ATOM     12  C   UNL     1      -2.722   9.599  17.737  0.00  0.00    +0.000 C 
ATOM     13  C   UNL     1      -2.815   9.398  16.237  0.00  0.00    +0.000 C 
ATOM     14  C   UNL     1      -3.496  10.523  15.479  0.00  0.00    +0.000 C 
ATOM     15  N   UNL     1      -3.984  11.617  16.286  0.00  0.00    +0.000 N 
ATOM     16  C   UNL     1      -3.759  11.801  17.629  0.00  0.00    +0.000 C 
ATOM     17  O   UNL     1      -4.414  12.643  18.249  0.00  0.00    +0.000 OA
ATOM     18  C   UNL     1      -2.476  11.007  19.756  0.00  0.00    +0.000 C 
ATOM     19  C   UNL     1      -0.939  11.816  21.590  0.00  0.00    +0.000 C 
ATOM     20  N   UNL     1      -0.513  10.759  22.492  0.00  0.00    +0.000 N 
ATOM     21  H   UNL     1      -4.673  12.240  15.883  0.00  0.00    +0.000 HD
ATOM     22  H   UNL     1       0.012  10.972  23.334  0.00  0.00    +0.000 HD
ENDROOT
BRANCH   1  27
ATOM     23  C   UNL     1       3.889   6.251  17.558  0.00  0.00    +0.000 A 
ATOM     24  C   UNL     1       3.357   4.950  17.625  0.00  0.00    +0.000 A 
ATOM     25  C   UNL     1       2.209   4.753  18.386  0.00  0.00    +0.000 A 
ATOM     26  C   UNL     1       1.639   5.792  19.121  0.00  0.00    +0.000 A 
ATOM     27  C   UNL     1       2.150   7.107  19.101  0.00  0.00    +0.000 A 
ATOM     28  C   UNL     1       3.292   7.302  18.289  0.00  0.00    +0.000 A 
ATOM     29  F   UNL     1       3.828   8.536  18.241  0.00  0.00    +0.000 F 
BRANCH  23  33
ATOM     30  C   UNL     1       7.546   6.801  16.572  0.00  0.00    +0.000 C 
ATOM     31  N   UNL     1       6.400   6.515  17.424  0.00  0.00    +0.000 N 
ATOM     32  C   UNL     1       6.690   5.781  18.656  0.00  0.00    +0.000 C 
ATOM     33  C   UNL     1       5.137   6.538  16.790  0.00  0.00    +0.000 C 
ATOM     34  O   UNL     1       5.017   6.827  15.599  0.00  0.00    +0.000 OA
ENDBRANCH  23  33
BRANCH  24  35
ATOM     35  N   UNL     1       4.041   3.798  17.192  0.00  0.00    +0.000 N 
ATOM     36  H   UNL     1       4.785   3.963  16.516  0.00  0.00    +0.000 HD
ATOM     37  H   UNL     1       3.446   3.012  16.954  0.00  0.00    +0.000 HD
ENDBRANCH  24  35
ENDBRANCH   1  27
TORSDOF 3
ENDMDL
MODEL 5
REMARK VINA RESULT:      -8.1      4.122      6.733
REMARK  Name = 
REMARK  5 active torsions:
REMARK  status: ('A' for Active; 'I' for Inactive)
REMARK    1  A    between atoms: C_1  and  N_2
REMARK    2  A    between atoms: N_2  and  C_3
REMARK    3  A    between atoms: C_4  and  C_6
REMARK    4  A    between atoms: C_7  and  N_8
REMARK    5  A    between atoms: C_11  and  C_12
REMARK                            x       y       z     vdW  Elec       q    Type
REMARK                         _______ _______ _______ _____ _____    ______ ____
ROOT
ATOM      1  C   UNL     1      -2.686  12.126  19.437  0.00  0.00    +0.000 A 
ATOM      2  C   UNL     1      -3.653  11.746  18.503  0.00  0.00    +0.000 A 
ATOM      3  N   UNL     1      -4.989  11.937  18.638  0.00  0.00    +0.000 NA
ATOM      4  C   UNL     1      -5.392  12.580  19.737  0.00  0.00    +0.000 A 
ATOM      5  C   UNL     1      -4.566  13.005  20.771  0.00  0.00    +0.000 A 
ATOM      6  C   UNL     1      -3.205  12.693  20.636  0.00  0.00    +0.000 A 
ATOM      7 CL   UNL     1      -2.121  12.829  21.983  0.00  0.00    +0.000 Cl
ATOM      8  C   UNL     1      -5.440  13.551  21.897  0.00  0.00    +0.000 C 
ATOM      9  C   UNL     1      -5.088  12.988  23.272  0.00  0.00    +0.000 C 
ATOM     10  C   UNL     1      -4.247  14.064  23.986  0.00  0.00    +0.000 C 
ATOM     11  C   UNL     1      -4.426  15.404  23.230  0.00  0.00    +0.000 C 
ATOM     12  C   UNL     1      -3.261  16.063  22.479  0.00  0.00    +0.000 C 
ATOM     13  C   UNL     1      -2.065  16.458  23.324  0.00  0.00    +0.000 C 
ATOM     14  C   UNL     1      -2.394  16.888  24.741  0.00  0.00    +0.000 C 
ATOM     15  N   UNL     1      -3.797  16.887  25.088  0.00  0.00    +0.000 N 
ATOM     16  C   UNL     1      -4.824  16.398  24.318  0.00  0.00    +0.000 C 
ATOM     17  O   UNL     1      -5.992  16.660  24.618  0.00  0.00    +0.000 OA
ATOM     18  C   UNL     1      -5.510  15.077  22.177  0.00  0.00    +0.000 C 
ATOM     19  C   UNL     1      -6.853  13.087  21.392  0.00  0.00    +0.000 C 
ATOM     20  N   UNL     1      -6.753  12.852  19.961  0.00  0.00    +0.000 N 
ATOM     21  H   UNL     1      -4.090  17.415  25.900  0.00  0.00    +0.000 HD
ATOM     22  H   UNL     1      -7.333  12.156  19.505  0.00  0.00    +0.000 HD
ENDROOT
BRANCH   1  27
ATOM     23  C   UNL     1       0.825  10.703  18.645  0.00  0.00    +0.000 A 
ATOM     24  C   UNL     1       1.548  11.881  18.383  0.00  0.00    +0.000 A 
ATOM     25  C   UNL     1       0.894  13.099  18.544  0.00  0.00    +0.000 A 
ATOM     26  C   UNL     1      -0.458  13.155  18.884  0.00  0.00    +0.000 A 
ATOM     27  C   UNL     1      -1.228  12.001  19.136  0.00  0.00    +0.000 A 
ATOM     28  C   UNL     1      -0.538  10.772  19.010  0.00  0.00    +0.000 A 
ATOM     29  F   UNL     1      -1.228   9.637  19.229  0.00  0.00    +0.000 F 
BRANCH  23  33
ATOM     30  C   UNL     1       2.389   7.269  19.281  0.00  0.00    +0.000 C 
ATOM     31  N   UNL     1       1.800   8.566  19.581  0.00  0.00    +0.000 N 
ATOM     32  C   UNL     1       1.203   8.704  20.909  0.00  0.00    +0.000 C 
ATOM     33  C   UNL     1       1.446   9.358  18.464  0.00  0.00    +0.000 C 
ATOM     34  O   UNL     1       1.666   8.984  17.312  0.00  0.00    +0.000 OA
ENDBRANCH  23  33
BRANCH  24  35
ATOM     35  N   UNL     1       2.794  11.909  17.728  0.00  0.00    +0.000 N 
ATOM     36  H   UNL     1       2.960  12.728  17.145  0.00  0.00    +0.000 HD
ATOM     37  H   UNL     1       3.064  11.037  17.286  0.00  0.00    +0.000 HD
ENDBRANCH  24  35
ENDBRANCH   1  27
TORSDOF 3
ENDMDL
MODEL 6
REMARK VINA RESULT:      -8.1      4.441      9.966
REMARK  Name = 
REMARK  5 active torsions:
REMARK  status: ('A' for Active; 'I' for Inactive)
REMARK    1  A    between atoms: C_1  and  N_2
REMARK    2  A    between atoms: N_2  and  C_3
REMARK    3  A    between atoms: C_4  and  C_6
REMARK    4  A    between atoms: C_7  and  N_8
REMARK    5  A    between atoms: C_11  and  C_12
REMARK                            x       y       z     vdW  Elec       q    Type
REMARK                         _______ _______ _______ _____ _____    ______ ____
ROOT
ATOM      1  C   UNL     1      -5.434  12.493  19.702  0.00  0.00    +0.000 A 
ATOM      2  C   UNL     1      -6.330  12.293  18.649  0.00  0.00    +0.000 A 
ATOM      3  N   UNL     1      -5.999  11.836  17.416  0.00  0.00    +0.000 NA
ATOM      4  C   UNL     1      -4.718  11.515  17.223  0.00  0.00    +0.000 A 
ATOM      5  C   UNL     1      -3.698  11.672  18.154  0.00  0.00    +0.000 A 
ATOM      6  C   UNL     1      -4.069  12.246  19.379  0.00  0.00    +0.000 A 
ATOM      7 CL   UNL     1      -2.872  12.833  20.488  0.00  0.00    +0.000 Cl
ATOM      8  C   UNL     1      -2.370  11.332  17.481  0.00  0.00    +0.000 C 
ATOM      9  C   UNL     1      -1.287  12.386  17.699  0.00  0.00    +0.000 C 
ATOM     10  C   UNL     1      -0.367  11.848  18.812  0.00  0.00    +0.000 C 
ATOM     11  C   UNL     1      -0.641  10.333  18.981  0.00  0.00    +0.000 C 
ATOM     12  C   UNL     1      -1.269   9.770  20.264  0.00  0.00    +0.000 C 
ATOM     13  C   UNL     1      -0.476   9.983  21.540  0.00  0.00    +0.000 C 
ATOM     14  C   UNL     1       1.031   9.979  21.368  0.00  0.00    +0.000 C 
ATOM     15  N   UNL     1       1.509   9.750  20.024  0.00  0.00    +0.000 N 
ATOM     16  C   UNL     1       0.740   9.689  18.887  0.00  0.00    +0.000 C 
ATOM     17  O   UNL     1       1.231   9.263  17.838  0.00  0.00    +0.000 OA
ATOM     18  C   UNL     1      -1.621  10.017  17.828  0.00  0.00    +0.000 C 
ATOM     19  C   UNL     1      -2.840  11.241  15.985  0.00  0.00    +0.000 C 
ATOM     20  N   UNL     1      -4.275  11.006  15.989  0.00  0.00    +0.000 N 
ATOM     21  H   UNL     1       2.472   9.465  19.899  0.00  0.00    +0.000 HD
ATOM     22  H   UNL     1      -4.861  11.347  15.235  0.00  0.00    +0.000 HD
ENDROOT
BRANCH   1  27
ATOM     23  C   UNL     1      -6.185  14.438  22.962  0.00  0.00    +0.000 A 
ATOM     24  C   UNL     1      -7.038  13.540  23.630  0.00  0.00    +0.000 A 
ATOM     25  C   UNL     1      -7.280  12.306  23.036  0.00  0.00    +0.000 A 
ATOM     26  C   UNL     1      -6.756  11.989  21.783  0.00  0.00    +0.000 A 
ATOM     27  C   UNL     1      -5.914  12.866  21.068  0.00  0.00    +0.000 A 
ATOM     28  C   UNL     1      -5.642  14.100  21.703  0.00  0.00    +0.000 A 
ATOM     29  F   UNL     1      -4.852  14.979  21.060  0.00  0.00    +0.000 F 
BRANCH  23  33
ATOM     30  C   UNL     1      -4.630  17.370  24.868  0.00  0.00    +0.000 C 
ATOM     31  N   UNL     1      -4.814  16.004  24.398  0.00  0.00    +0.000 N 
ATOM     32  C   UNL     1      -3.636  15.141  24.471  0.00  0.00    +0.000 C 
ATOM     33  C   UNL     1      -5.901  15.794  23.518  0.00  0.00    +0.000 C 
ATOM     34  O   UNL     1      -6.667  16.707  23.209  0.00  0.00    +0.000 OA
ENDBRANCH  23  33
BRANCH  24  35
ATOM     35  N   UNL     1      -7.858  13.897  24.717  0.00  0.00    +0.000 N 
ATOM     36  H   UNL     1      -8.793  13.491  24.707  0.00  0.00    +0.000 HD
ATOM     37  H   UNL     1      -7.848  14.883  24.955  0.00  0.00    +0.000 HD
ENDBRANCH  24  35
ENDBRANCH   1  27
TORSDOF 3
ENDMDL
MODEL 7
REMARK VINA RESULT:      -7.8      4.705     10.121
REMARK  Name = 
REMARK  5 active torsions:
REMARK  status: ('A' for Active; 'I' for Inactive)
REMARK    1  A    between atoms: C_1  and  N_2
REMARK    2  A    between atoms: N_2  and  C_3
REMARK    3  A    between atoms: C_4  and  C_6
REMARK    4  A    between atoms: C_7  and  N_8
REMARK    5  A    between atoms: C_11  and  C_12
REMARK                            x       y       z     vdW  Elec       q    Type
REMARK                         _______ _______ _______ _____ _____    ______ ____
ROOT
ATOM      1  C   UNL     1      -5.438  12.474  19.678  0.00  0.00    +0.000 A 
ATOM      2  C   UNL     1      -6.339  12.271  18.630  0.00  0.00    +0.000 A 
ATOM      3  N   UNL     1      -6.014  11.812  17.397  0.00  0.00    +0.000 NA
ATOM      4  C   UNL     1      -4.733  11.491  17.197  0.00  0.00    +0.000 A 
ATOM      5  C   UNL     1      -3.709  11.651  18.122  0.00  0.00    +0.000 A 
ATOM      6  C   UNL     1      -4.074  12.227  19.348  0.00  0.00    +0.000 A 
ATOM      7 CL   UNL     1      -2.871  12.818  20.449  0.00  0.00    +0.000 Cl
ATOM      8  C   UNL     1      -2.385  11.311  17.442  0.00  0.00    +0.000 C 
ATOM      9  C   UNL     1      -1.302  12.366  17.652  0.00  0.00    +0.000 C 
ATOM     10  C   UNL     1      -0.374  11.831  18.761  0.00  0.00    +0.000 C 
ATOM     11  C   UNL     1      -0.647  10.316  18.935  0.00  0.00    +0.000 C 
ATOM     12  C   UNL     1      -1.266   9.756  20.222  0.00  0.00    +0.000 C 
ATOM     13  C   UNL     1      -0.467   9.972  21.493  0.00  0.00    +0.000 C 
ATOM     14  C   UNL     1       1.039   9.968  21.312  0.00  0.00    +0.000 C 
ATOM     15  N   UNL     1       1.510   9.738  19.966  0.00  0.00    +0.000 N 
ATOM     16  C   UNL     1       0.734   9.673  18.834  0.00  0.00    +0.000 C 
ATOM     17  O   UNL     1       1.220   9.246  17.783  0.00  0.00    +0.000 OA
ATOM     18  C   UNL     1      -1.632   9.997  17.787  0.00  0.00    +0.000 C 
ATOM     19  C   UNL     1      -2.863  11.217  15.949  0.00  0.00    +0.000 C 
ATOM     20  N   UNL     1      -4.297  10.981  15.961  0.00  0.00    +0.000 N 
ATOM     21  H   UNL     1       2.473   9.453  19.837  0.00  0.00    +0.000 HD
ATOM     22  H   UNL     1      -4.888  11.320  15.210  0.00  0.00    +0.000 HD
ENDROOT
BRANCH   1  27
ATOM     23  C   UNL     1      -6.160  14.420  22.944  0.00  0.00    +0.000 A 
ATOM     24  C   UNL     1      -7.020  13.529  23.612  0.00  0.00    +0.000 A 
ATOM     25  C   UNL     1      -7.277  12.299  23.016  0.00  0.00    +0.000 A 
ATOM     26  C   UNL     1      -6.759  11.980  21.761  0.00  0.00    +0.000 A 
ATOM     27  C   UNL     1      -5.910  12.849  21.045  0.00  0.00    +0.000 A 
ATOM     28  C   UNL     1      -5.623  14.079  21.683  0.00  0.00    +0.000 A 
ATOM     29  F   UNL     1      -4.826  14.951  21.039  0.00  0.00    +0.000 F 
BRANCH  23  33
ATOM     30  C   UNL     1      -6.208  18.173  23.691  0.00  0.00    +0.000 C 
ATOM     31  N   UNL     1      -6.581  16.910  23.070  0.00  0.00    +0.000 N 
ATOM     32  C   UNL     1      -7.916  16.862  22.475  0.00  0.00    +0.000 C 
ATOM     33  C   UNL     1      -5.861  15.772  23.501  0.00  0.00    +0.000 C 
ATOM     34  O   UNL     1      -4.946  15.860  24.320  0.00  0.00    +0.000 OA
ENDBRANCH  23  33
BRANCH  24  35
ATOM     35  N   UNL     1      -7.834  13.892  24.702  0.00  0.00    +0.000 N 
ATOM     36  H   UNL     1      -8.307  13.119  25.167  0.00  0.00    +0.000 HD
ATOM     37  H   UNL     1      -8.434  14.694  24.539  0.00  0.00    +0.000 HD
ENDBRANCH  24  35
ENDBRANCH   1  27
TORSDOF 3
ENDMDL
MODEL 8
REMARK VINA RESULT:      -7.6      2.952      4.350
REMARK  Name = 
REMARK  5 active torsions:
REMARK  status: ('A' for Active; 'I' for Inactive)
REMARK    1  A    between atoms: C_1  and  N_2
REMARK    2  A    between atoms: N_2  and  C_3
REMARK    3  A    between atoms: C_4  and  C_6
REMARK    4  A    between atoms: C_7  and  N_8
REMARK    5  A    between atoms: C_11  and  C_12
REMARK                            x       y       z     vdW  Elec       q    Type
REMARK                         _______ _______ _______ _____ _____    ______ ____
ROOT
ATOM      1  C   UNL     1       1.592  10.056  18.910  0.00  0.00    +0.000 A 
ATOM      2  C   UNL     1       2.583  10.706  18.170  0.00  0.00    +0.000 A 
ATOM      3  N   UNL     1       2.603  12.031  17.886  0.00  0.00    +0.000 NA
ATOM      4  C   UNL     1       1.614  12.767  18.399  0.00  0.00    +0.000 A 
ATOM      5  C   UNL     1       0.543  12.277  19.136  0.00  0.00    +0.000 A 
ATOM      6  C   UNL     1       0.508  10.886  19.316  0.00  0.00    +0.000 A 
ATOM      7 CL   UNL     1      -0.925  10.096  19.889  0.00  0.00    +0.000 Cl
ATOM      8  C   UNL     1      -0.434  13.422  19.394  0.00  0.00    +0.000 C 
ATOM      9  C   UNL     1      -1.882  13.076  19.058  0.00  0.00    +0.000 C 
ATOM     10  C   UNL     1      -2.580  12.754  20.393  0.00  0.00    +0.000 C 
ATOM     11  C   UNL     1      -1.692  13.284  21.547  0.00  0.00    +0.000 C 
ATOM     12  C   UNL     1      -1.009  12.329  22.536  0.00  0.00    +0.000 C 
ATOM     13  C   UNL     1      -1.933  11.460  23.366  0.00  0.00    +0.000 C 
ATOM     14  C   UNL     1      -3.265  12.095  23.721  0.00  0.00    +0.000 C 
ATOM     15  N   UNL     1      -3.465  13.443  23.244  0.00  0.00    +0.000 N 
ATOM     16  C   UNL     1      -2.640  14.134  22.389  0.00  0.00    +0.000 C 
ATOM     17  O   UNL     1      -2.794  15.349  22.238  0.00  0.00    +0.000 OA
ATOM     18  C   UNL     1      -0.567  14.045  20.810  0.00  0.00    +0.000 C 
ATOM     19  C   UNL     1       0.171  14.513  18.439  0.00  0.00    +0.000 C 
ATOM     20  N   UNL     1       1.557  14.156  18.186  0.00  0.00    +0.000 N 
ATOM     21  H   UNL     1      -4.191  14.002  23.674  0.00  0.00    +0.000 HD
ATOM     22  H   UNL     1       2.006  14.399  17.310  0.00  0.00    +0.000 HD
ENDROOT
BRANCH   1  27
ATOM     23  C   UNL     1       2.364   6.263  18.848  0.00  0.00    +0.000 A 
ATOM     24  C   UNL     1       2.118   5.909  20.187  0.00  0.00    +0.000 A 
ATOM     25  C   UNL     1       1.640   6.894  21.046  0.00  0.00    +0.000 A 
ATOM     26  C   UNL     1       1.476   8.212  20.618  0.00  0.00    +0.000 A 
ATOM     27  C   UNL     1       1.729   8.617  19.291  0.00  0.00    +0.000 A 
ATOM     28  C   UNL     1       2.173   7.596  18.419  0.00  0.00    +0.000 A 
ATOM     29  F   UNL     1       2.440   7.929  17.142  0.00  0.00    +0.000 F 
BRANCH  23  33
ATOM     30  C   UNL     1       4.679   4.305  16.514  0.00  0.00    +0.000 C 
ATOM     31  N   UNL     1       4.259   5.328  17.461  0.00  0.00    +0.000 N 
ATOM     32  C   UNL     1       5.329   5.960  18.232  0.00  0.00    +0.000 C 
ATOM     33  C   UNL     1       2.908   5.273  17.873  0.00  0.00    +0.000 C 
ATOM     34  O   UNL     1       2.128   4.434  17.420  0.00  0.00    +0.000 OA
ENDBRANCH  23  33
BRANCH  24  35
ATOM     35  N   UNL     1       2.560   4.710  20.776  0.00  0.00    +0.000 N 
ATOM     36  H   UNL     1       2.061   3.871  20.481  0.00  0.00    +0.000 HD
ATOM     37  H   UNL     1       2.715   4.756  21.777  0.00  0.00    +0.000 HD
ENDBRANCH  24  35
ENDBRANCH   1  27
TORSDOF 3
ENDMDL
MODEL 9
REMARK VINA RESULT:      -7.6      9.892     11.948
REMARK  Name = 
REMARK  5 active torsions:
REMARK  status: ('A' for Active; 'I' for Inactive)
REMARK    1  A    between atoms: C_1  and  N_2
REMARK    2  A    between atoms: N_2  and  C_3
REMARK    3  A    between atoms: C_4  and  C_6
REMARK    4  A    between atoms: C_7  and  N_8
REMARK    5  A    between atoms: C_11  and  C_12
REMARK                            x       y       z     vdW  Elec       q    Type
REMARK                         _______ _______ _______ _____ _____    ______ ____
ROOT
ATOM      1  C   UNL     1       7.243  15.347  22.612  0.00  0.00    +0.000 A 
ATOM      2  C   UNL     1       6.121  16.077  22.211  0.00  0.00    +0.000 A 
ATOM      3  N   UNL     1       5.929  16.599  20.975  0.00  0.00    +0.000 NA
ATOM      4  C   UNL     1       6.877  16.349  20.067  0.00  0.00    +0.000 A 
ATOM      5  C   UNL     1       8.060  15.661  20.306  0.00  0.00    +0.000 A 
ATOM      6  C   UNL     1       8.263  15.230  21.625  0.00  0.00    +0.000 A 
ATOM      7 CL   UNL     1       9.822  14.687  22.156  0.00  0.00    +0.000 Cl
ATOM      8  C   UNL     1       8.925  15.735  19.050  0.00  0.00    +0.000 C 
ATOM      9  C   UNL     1      10.365  16.164  19.325  0.00  0.00    +0.000 C 
ATOM     10  C   UNL     1      11.217  14.880  19.314  0.00  0.00    +0.000 C 
ATOM     11  C   UNL     1      10.390  13.752  18.649  0.00  0.00    +0.000 C 
ATOM     12  C   UNL     1       9.913  12.530  19.446  0.00  0.00    +0.000 C 
ATOM     13  C   UNL     1      11.001  11.664  20.050  0.00  0.00    +0.000 C 
ATOM     14  C   UNL     1      12.283  11.588  19.242  0.00  0.00    +0.000 C 
ATOM     15  N   UNL     1      12.288  12.328  18.001  0.00  0.00    +0.000 N 
ATOM     16  C   UNL     1      11.315  13.197  17.568  0.00  0.00    +0.000 C 
ATOM     17  O   UNL     1      11.320  13.588  16.398  0.00  0.00    +0.000 OA
ATOM     18  C   UNL     1       9.124  14.484  18.150  0.00  0.00    +0.000 C 
ATOM     19  C   UNL     1       8.117  16.800  18.227  0.00  0.00    +0.000 C 
ATOM     20  N   UNL     1       6.761  16.822  18.748  0.00  0.00    +0.000 N 
ATOM     21  H   UNL     1      12.986  12.095  17.306  0.00  0.00    +0.000 HD
ATOM     22  H   UNL     1       6.207  17.671  18.724  0.00  0.00    +0.000 HD
ENDROOT
BRANCH   1  27
ATOM     23  C   UNL     1       6.662  12.945  25.590  0.00  0.00    +0.000 A 
ATOM     24  C   UNL     1       7.625  13.404  26.508  0.00  0.00    +0.000 A 
ATOM     25  C   UNL     1       8.377  14.522  26.160  0.00  0.00    +0.000 A 
ATOM     26  C   UNL     1       8.238  15.130  24.913  0.00  0.00    +0.000 A 
ATOM     27  C   UNL     1       7.301  14.691  23.954  0.00  0.00    +0.000 A 
ATOM     28  C   UNL     1       6.513  13.581  24.338  0.00  0.00    +0.000 A 
ATOM     29  F   UNL     1       5.610  13.114  23.456  0.00  0.00    +0.000 F 
BRANCH  23  33
ATOM     30  C   UNL     1       4.195  10.470  27.150  0.00  0.00    +0.000 C 
ATOM     31  N   UNL     1       4.954  11.700  26.978  0.00  0.00    +0.000 N 
ATOM     32  C   UNL     1       4.393  12.890  27.618  0.00  0.00    +0.000 C 
ATOM     33  C   UNL     1       5.838  11.733  25.875  0.00  0.00    +0.000 C 
ATOM     34  O   UNL     1       5.984  10.759  25.136  0.00  0.00    +0.000 OA
ENDBRANCH  23  33
BRANCH  24  35
ATOM     35  N   UNL     1       8.055  12.669  27.629  0.00  0.00    +0.000 N 
ATOM     36  H   UNL     1       7.379  12.001  27.997  0.00  0.00    +0.000 HD
ATOM     37  H   UNL     1       8.515  13.216  28.348  0.00  0.00    +0.000 HD
ENDBRANCH  24  35
ENDBRANCH   1  27
TORSDOF 3
ENDMDL
