MODEL 1
REMARK VINA RESULT:      -7.4      0.000      0.000
REMARK  Name = 
REMARK  2 active torsions:
REMARK  status: ('A' for Active; 'I' for Inactive)
REMARK    1  A    between atoms: C_2  and  C_12
REMARK    2  A    between atoms: N_3  and  C_4
REMARK                            x       y       z     vdW  Elec       q    Type
REMARK                         _______ _______ _______ _____ _____    ______ ____
ROOT
ATOM      1  O   UNL     1       2.827   7.861  17.998  0.00  0.00    +0.000 OA
ATOM      2  C   UNL     1       2.254   7.516  19.028  0.00  0.00    +0.000 C 
ATOM      3  N   UNL     1       2.263   6.210  19.476  0.00  0.00    +0.000 N 
ATOM      4  H   UNL     1       1.921   6.031  20.407  0.00  0.00    +0.000 HD
ENDROOT
BRANCH   2   5
ATOM      5  C   UNL     1       1.548   8.479  19.878  0.00  0.00    +0.000 A 
ATOM      6  C   UNL     1       0.999   9.765  19.580  0.00  0.00    +0.000 A 
ATOM      7  C   UNL     1       0.312  10.205  20.696  0.00  0.00    +0.000 A 
ATOM      8  C   UNL     1      -0.519  11.332  20.978  0.00  0.00    +0.000 A 
ATOM      9  C   UNL     1      -1.129  11.433  22.182  0.00  0.00    +0.000 A 
ATOM     10 BR   UNL     1      -2.302  12.833  22.574  0.00  0.00    +0.000 Br
ATOM     11  C   UNL     1      -0.912  10.431  23.219  0.00  0.00    +0.000 A 
ATOM     12  C   UNL     1      -0.113   9.382  22.959  0.00  0.00    +0.000 A 
ATOM     13  N   UNL     1       0.482   9.267  21.704  0.00  0.00    +0.000 N 
ATOM     14  C   UNL     1       1.265   8.249  21.217  0.00  0.00    +0.000 A 
ENDBRANCH   2   5
BRANCH   3  15
ATOM     15  C   UNL     1       3.055   5.178  18.808  0.00  0.00    +0.000 C 
ATOM     16  C   UNL     1       3.698   4.166  19.800  0.00  0.00    +0.000 C 
ATOM     17  N   UNL     1       3.337   2.757  19.481  0.00  0.00    +0.000 NA
ATOM     18  C   UNL     1       1.867   2.618  19.541  0.00  0.00    +0.000 C 
ATOM     19  C   UNL     1       1.167   3.528  18.520  0.00  0.00    +0.000 C 
ATOM     20  C   UNL     1       2.215   4.382  17.783  0.00  0.00    +0.000 C 
ATOM     21  C   UNL     1       3.169   3.401  17.073  0.00  0.00    +0.000 C 
ATOM     22  C   UNL     1       3.786   2.443  18.107  0.00  0.00    +0.000 C 
ENDBRANCH   3  15
TORSDOF 2
ENDMDL
MODEL 2
REMARK VINA RESULT:      -7.4      1.199      1.469
REMARK  Name = 
REMARK  2 active torsions:
REMARK  status: ('A' for Active; 'I' for Inactive)
REMARK    1  A    between atoms: C_2  and  C_12
REMARK    2  A    between atoms: N_3  and  C_4
REMARK                            x       y       z     vdW  Elec       q    Type
REMARK                         _______ _______ _______ _____ _____    ______ ____
ROOT
ATOM      1  O   UNL     1       3.787   7.026  17.665  0.00  0.00    +0.000 OA
ATOM      2  C   UNL     1       2.738   6.933  18.297  0.00  0.00    +0.000 C 
ATOM      3  N   UNL     1       2.169   5.713  18.606  0.00  0.00    +0.000 N 
ATOM      4  H   UNL     1       1.407   5.705  19.267  0.00  0.00    +0.000 HD
ENDROOT
BRANCH   2   5
ATOM      5  C   UNL     1       2.035   8.115  18.802  0.00  0.00    +0.000 A 
ATOM      6  C   UNL     1       1.526   9.265  18.122  0.00  0.00    +0.000 A 
ATOM      7  C   UNL     1       0.821  10.025  19.035  0.00  0.00    +0.000 A 
ATOM      8  C   UNL     1       0.011  11.199  18.946  0.00  0.00    +0.000 A 
ATOM      9  C   UNL     1      -0.629  11.659  20.046  0.00  0.00    +0.000 A 
ATOM     10 BR   UNL     1      -1.775  13.132  19.969  0.00  0.00    +0.000 Br
ATOM     11  C   UNL     1      -0.465  11.004  21.338  0.00  0.00    +0.000 A 
ATOM     12  C   UNL     1       0.315   9.913  21.425  0.00  0.00    +0.000 A 
ATOM     13  N   UNL     1       0.940   9.422  20.279  0.00  0.00    +0.000 N 
ATOM     14  C   UNL     1       1.709   8.294  20.140  0.00  0.00    +0.000 A 
ENDBRANCH   2   5
BRANCH   3  15
ATOM     15  C   UNL     1       2.843   4.454  18.298  0.00  0.00    +0.000 C 
ATOM     16  C   UNL     1       3.762   3.955  19.450  0.00  0.00    +0.000 C 
ATOM     17  N   UNL     1       3.424   2.572  19.884  0.00  0.00    +0.000 NA
ATOM     18  C   UNL     1       2.021   2.549  20.346  0.00  0.00    +0.000 C 
ATOM     19  C   UNL     1       1.045   2.946  19.227  0.00  0.00    +0.000 C 
ATOM     20  C   UNL     1       1.836   3.330  17.963  0.00  0.00    +0.000 C 
ATOM     21  C   UNL     1       2.655   2.088  17.556  0.00  0.00    +0.000 C 
ATOM     22  C   UNL     1       3.555   1.658  18.727  0.00  0.00    +0.000 C 
ENDBRANCH   3  15
TORSDOF 2
ENDMDL
MODEL 3
REMARK VINA RESULT:      -7.1      1.505      1.955
REMARK  Name = 
REMARK  2 active torsions:
REMARK  status: ('A' for Active; 'I' for Inactive)
REMARK    1  A    between atoms: C_2  and  C_12
REMARK    2  A    between atoms: N_3  and  C_4
REMARK                            x       y       z     vdW  Elec       q    Type
REMARK                         _______ _______ _______ _____ _____    ______ ____
ROOT
ATOM      1  O   UNL     1       2.313   8.694  17.110  0.00  0.00    +0.000 OA
ATOM      2  C   UNL     1       2.168   8.217  18.233  0.00  0.00    +0.000 C 
ATOM      3  N   UNL     1       2.646   6.967  18.571  0.00  0.00    +0.000 N 
ATOM      4  H   UNL     1       2.642   6.711  19.546  0.00  0.00    +0.000 HD
ENDROOT
BRANCH   2   5
ATOM      5  C   UNL     1       1.506   8.962  19.308  0.00  0.00    +0.000 A 
ATOM      6  C   UNL     1       0.854  10.234  19.302  0.00  0.00    +0.000 A 
ATOM      7  C   UNL     1       0.271  10.420  20.541  0.00  0.00    +0.000 A 
ATOM      8  C   UNL     1      -0.588  11.415  21.103  0.00  0.00    +0.000 A 
ATOM      9  C   UNL     1      -1.066  11.259  22.359  0.00  0.00    +0.000 A 
ATOM     10 BR   UNL     1      -2.266  12.477  23.110  0.00  0.00    +0.000 Br
ATOM     11  C   UNL     1      -0.679  10.111  23.172  0.00  0.00    +0.000 A 
ATOM     12  C   UNL     1       0.146   9.188  22.650  0.00  0.00    +0.000 A 
ATOM     13  N   UNL     1       0.604   9.337  21.341  0.00  0.00    +0.000 N 
ATOM     14  C   UNL     1       1.386   8.482  20.605  0.00  0.00    +0.000 A 
ENDBRANCH   2   5
BRANCH   3  15
ATOM     15  C   UNL     1       3.457   6.181  17.642  0.00  0.00    +0.000 C 
ATOM     16  C   UNL     1       4.945   6.633  17.600  0.00  0.00    +0.000 C 
ATOM     17  N   UNL     1       5.883   5.511  17.881  0.00  0.00    +0.000 NA
ATOM     18  C   UNL     1       5.586   4.968  19.223  0.00  0.00    +0.000 C 
ATOM     19  C   UNL     1       4.153   4.419  19.310  0.00  0.00    +0.000 C 
ATOM     20  C   UNL     1       3.419   4.673  17.980  0.00  0.00    +0.000 C 
ATOM     21  C   UNL     1       4.217   3.938  16.885  0.00  0.00    +0.000 C 
ATOM     22  C   UNL     1       5.671   4.442  16.881  0.00  0.00    +0.000 C 
ENDBRANCH   3  15
TORSDOF 2
ENDMDL
MODEL 4
REMARK VINA RESULT:      -7.1      1.313      1.977
REMARK  Name = 
REMARK  2 active torsions:
REMARK  status: ('A' for Active; 'I' for Inactive)
REMARK    1  A    between atoms: C_2  and  C_12
REMARK    2  A    between atoms: N_3  and  C_4
REMARK                            x       y       z     vdW  Elec       q    Type
REMARK                         _______ _______ _______ _____ _____    ______ ____
ROOT
ATOM      1  O   UNL     1       3.737   7.154  17.814  0.00  0.00    +0.000 OA
ATOM      2  C   UNL     1       2.688   7.024  18.440  0.00  0.00    +0.000 C 
ATOM      3  N   UNL     1       2.147   5.786  18.723  0.00  0.00    +0.000 N 
ATOM      4  H   UNL     1       1.382   5.747  19.380  0.00  0.00    +0.000 HD
ENDROOT
BRANCH   2   5
ATOM      5  C   UNL     1       1.954   8.179  18.963  0.00  0.00    +0.000 A 
ATOM      6  C   UNL     1       1.385   8.423  20.252  0.00  0.00    +0.000 A 
ATOM      7  C   UNL     1       0.923   9.725  20.275  0.00  0.00    +0.000 A 
ATOM      8  C   UNL     1       0.369  10.571  21.285  0.00  0.00    +0.000 A 
ATOM      9  C   UNL     1       0.088  11.864  20.999  0.00  0.00    +0.000 A 
ATOM     10 BR   UNL     1      -0.549  13.041  22.302  0.00  0.00    +0.000 Br
ATOM     11  C   UNL     1       0.295  12.397  19.658  0.00  0.00    +0.000 A 
ATOM     12  C   UNL     1       0.795  11.594  18.704  0.00  0.00    +0.000 A 
ATOM     13  N   UNL     1       1.118  10.275  19.017  0.00  0.00    +0.000 N 
ATOM     14  C   UNL     1       1.701   9.322  18.217  0.00  0.00    +0.000 A 
ENDBRANCH   2   5
BRANCH   3  15
ATOM     15  C   UNL     1       2.853   4.549  18.395  0.00  0.00    +0.000 C 
ATOM     16  C   UNL     1       3.754   4.034  19.554  0.00  0.00    +0.000 C 
ATOM     17  N   UNL     1       3.432   2.632  19.939  0.00  0.00    +0.000 NA
ATOM     18  C   UNL     1       2.020   2.569  20.367  0.00  0.00    +0.000 C 
ATOM     19  C   UNL     1       1.063   2.981  19.236  0.00  0.00    +0.000 C 
ATOM     20  C   UNL     1       1.876   3.416  18.004  0.00  0.00    +0.000 C 
ATOM     21  C   UNL     1       2.728   2.203  17.581  0.00  0.00    +0.000 C 
ATOM     22  C   UNL     1       3.609   1.755  18.760  0.00  0.00    +0.000 C 
ENDBRANCH   3  15
TORSDOF 2
ENDMDL
MODEL 5
REMARK VINA RESULT:      -6.8      1.318      1.946
REMARK  Name = 
REMARK  2 active torsions:
REMARK  status: ('A' for Active; 'I' for Inactive)
REMARK    1  A    between atoms: C_2  and  C_12
REMARK    2  A    between atoms: N_3  and  C_4
REMARK                            x       y       z     vdW  Elec       q    Type
REMARK                         _______ _______ _______ _____ _____    ______ ____
ROOT
ATOM      1  O   UNL     1       2.724   8.445  17.221  0.00  0.00    +0.000 OA
ATOM      2  C   UNL     1       2.199   8.234  18.311  0.00  0.00    +0.000 C 
ATOM      3  N   UNL     1       2.322   7.025  18.967  0.00  0.00    +0.000 N 
ATOM      4  H   UNL     1       2.011   6.978  19.925  0.00  0.00    +0.000 HD
ENDROOT
BRANCH   2   5
ATOM      5  C   UNL     1       1.433   9.268  19.011  0.00  0.00    +0.000 A 
ATOM      6  C   UNL     1       0.860   9.286  20.321  0.00  0.00    +0.000 A 
ATOM      7  C   UNL     1       0.361  10.553  20.552  0.00  0.00    +0.000 A 
ATOM      8  C   UNL     1      -0.215  11.210  21.683  0.00  0.00    +0.000 A 
ATOM      9  C   UNL     1      -0.535  12.523  21.607  0.00  0.00    +0.000 A 
ATOM     10 BR   UNL     1      -1.202  13.456  23.081  0.00  0.00    +0.000 Br
ATOM     11  C   UNL     1      -0.347  13.270  20.369  0.00  0.00    +0.000 A 
ATOM     12  C   UNL     1       0.174  12.645  19.300  0.00  0.00    +0.000 A 
ATOM     13  N   UNL     1       0.537  11.303  19.398  0.00  0.00    +0.000 N 
ATOM     14  C   UNL     1       1.144  10.508  18.457  0.00  0.00    +0.000 A 
ENDBRANCH   2   5
BRANCH   3  15
ATOM     15  C   UNL     1       3.182   5.961  18.455  0.00  0.00    +0.000 C 
ATOM     16  C   UNL     1       4.077   5.318  19.554  0.00  0.00    +0.000 C 
ATOM     17  N   UNL     1       3.901   3.842  19.633  0.00  0.00    +0.000 NA
ATOM     18  C   UNL     1       2.485   3.547  19.936  0.00  0.00    +0.000 C 
ATOM     19  C   UNL     1       1.546   4.077  18.840  0.00  0.00    +0.000 C 
ATOM     20  C   UNL     1       2.365   4.836  17.779  0.00  0.00    +0.000 C 
ATOM     21  C   UNL     1       3.373   3.828  17.191  0.00  0.00    +0.000 C 
ATOM     22  C   UNL     1       4.238   3.245  18.321  0.00  0.00    +0.000 C 
ENDBRANCH   3  15
TORSDOF 2
ENDMDL
MODEL 6
REMARK VINA RESULT:      -6.8      2.522      3.019
REMARK  Name = 
REMARK  2 active torsions:
REMARK  status: ('A' for Active; 'I' for Inactive)
REMARK    1  A    between atoms: C_2  and  C_12
REMARK    2  A    between atoms: N_3  and  C_4
REMARK                            x       y       z     vdW  Elec       q    Type
REMARK                         _______ _______ _______ _____ _____    ______ ____
ROOT
ATOM      1  O   UNL     1       2.155   5.704  17.825  0.00  0.00    +0.000 OA
ATOM      2  C   UNL     1       2.754   6.723  18.159  0.00  0.00    +0.000 C 
ATOM      3  N   UNL     1       4.050   6.980  17.758  0.00  0.00    +0.000 N 
ATOM      4  H   UNL     1       4.418   7.905  17.925  0.00  0.00    +0.000 HD
ENDROOT
BRANCH   2   5
ATOM      5  C   UNL     1       2.119   7.758  18.978  0.00  0.00    +0.000 A 
ATOM      6  C   UNL     1       1.568   9.029  18.622  0.00  0.00    +0.000 A 
ATOM      7  C   UNL     1       0.962   9.561  19.743  0.00  0.00    +0.000 A 
ATOM      8  C   UNL     1       0.166  10.721  19.994  0.00  0.00    +0.000 A 
ATOM      9  C   UNL     1      -0.362  10.921  21.224  0.00  0.00    +0.000 A 
ATOM     10 BR   UNL     1      -1.488  12.367  21.586  0.00  0.00    +0.000 Br
ATOM     11  C   UNL     1      -0.091   9.993  22.317  0.00  0.00    +0.000 A 
ATOM     12  C   UNL     1       0.676   8.915  22.085  0.00  0.00    +0.000 A 
ATOM     13  N   UNL     1       1.185   8.696  20.805  0.00  0.00    +0.000 N 
ATOM     14  C   UNL     1       1.921   7.632  20.346  0.00  0.00    +0.000 A 
ENDBRANCH   2   5
BRANCH   3  15
ATOM     15  C   UNL     1       4.748   6.107  16.816  0.00  0.00    +0.000 C 
ATOM     16  C   UNL     1       6.133   6.665  16.379  0.00  0.00    +0.000 C 
ATOM     17  N   UNL     1       7.236   5.696  16.629  0.00  0.00    +0.000 NA
ATOM     18  C   UNL     1       7.279   5.386  18.072  0.00  0.00    +0.000 C 
ATOM     19  C   UNL     1       5.968   4.746  18.556  0.00  0.00    +0.000 C 
ATOM     20  C   UNL     1       4.960   4.690  17.394  0.00  0.00    +0.000 C 
ATOM     21  C   UNL     1       5.605   3.834  16.286  0.00  0.00    +0.000 C 
ATOM     22  C   UNL     1       6.958   4.447  15.885  0.00  0.00    +0.000 C 
ENDBRANCH   3  15
TORSDOF 2
ENDMDL
MODEL 7
REMARK VINA RESULT:      -6.8      3.897      7.857
REMARK  Name = 
REMARK  2 active torsions:
REMARK  status: ('A' for Active; 'I' for Inactive)
REMARK    1  A    between atoms: C_2  and  C_12
REMARK    2  A    between atoms: N_3  and  C_4
REMARK                            x       y       z     vdW  Elec       q    Type
REMARK                         _______ _______ _______ _____ _____    ______ ____
ROOT
ATOM      1  O   UNL     1       1.407   5.301  20.776  0.00  0.00    +0.000 OA
ATOM      2  C   UNL     1       2.139   6.098  20.193  0.00  0.00    +0.000 C 
ATOM      3  N   UNL     1       2.103   7.454  20.448  0.00  0.00    +0.000 N 
ATOM      4  H   UNL     1       2.841   8.023  20.061  0.00  0.00    +0.000 HD
ENDROOT
BRANCH   2   5
ATOM      5  C   UNL     1       3.130   5.656  19.208  0.00  0.00    +0.000 A 
ATOM      6  C   UNL     1       3.036   5.496  17.791  0.00  0.00    +0.000 A 
ATOM      7  C   UNL     1       4.296   5.190  17.311  0.00  0.00    +0.000 A 
ATOM      8  C   UNL     1       4.856   5.025  16.007  0.00  0.00    +0.000 A 
ATOM      9  C   UNL     1       6.184   4.805  15.869  0.00  0.00    +0.000 A 
ATOM     10 BR   UNL     1       6.988   4.676  14.188  0.00  0.00    +0.000 Br
ATOM     11  C   UNL     1       7.049   4.682  17.037  0.00  0.00    +0.000 A 
ATOM     12  C   UNL     1       6.517   4.815  18.263  0.00  0.00    +0.000 A 
ATOM     13  N   UNL     1       5.154   5.080  18.395  0.00  0.00    +0.000 N 
ATOM     14  C   UNL     1       4.435   5.320  19.540  0.00  0.00    +0.000 A 
ENDBRANCH   2   5
BRANCH   3  15
ATOM     15  C   UNL     1       1.271   8.011  21.512  0.00  0.00    +0.000 C 
ATOM     16  C   UNL     1       1.909   9.254  22.198  0.00  0.00    +0.000 C 
ATOM     17  N   UNL     1       1.008  10.439  22.170  0.00  0.00    +0.000 NA
ATOM     18  C   UNL     1       0.704  10.772  20.763  0.00  0.00    +0.000 C 
ATOM     19  C   UNL     1      -0.012   9.616  20.046  0.00  0.00    +0.000 C 
ATOM     20  C   UNL     1      -0.131   8.411  20.997  0.00  0.00    +0.000 C 
ATOM     21  C   UNL     1      -0.949   8.884  22.215  0.00  0.00    +0.000 C 
ATOM     22  C   UNL     1      -0.257  10.099  22.859  0.00  0.00    +0.000 C 
ENDBRANCH   3  15
TORSDOF 2
ENDMDL
MODEL 8
REMARK VINA RESULT:      -6.7      2.455      3.323
REMARK  Name = 
REMARK  2 active torsions:
REMARK  status: ('A' for Active; 'I' for Inactive)
REMARK    1  A    between atoms: C_2  and  C_12
REMARK    2  A    between atoms: N_3  and  C_4
REMARK                            x       y       z     vdW  Elec       q    Type
REMARK                         _______ _______ _______ _____ _____    ______ ____
ROOT
ATOM      1  O   UNL     1       2.771   4.854  20.140  0.00  0.00    +0.000 OA
ATOM      2  C   UNL     1       2.936   5.993  19.711  0.00  0.00    +0.000 C 
ATOM      3  N   UNL     1       3.951   6.308  18.830  0.00  0.00    +0.000 N 
ATOM      4  H   UNL     1       3.925   7.216  18.390  0.00  0.00    +0.000 HD
ENDROOT
BRANCH   2   5
ATOM      5  C   UNL     1       2.040   7.093  20.077  0.00  0.00    +0.000 A 
ATOM      6  C   UNL     1       1.185   7.267  21.209  0.00  0.00    +0.000 A 
ATOM      7  C   UNL     1       0.657   8.543  21.153  0.00  0.00    +0.000 A 
ATOM      8  C   UNL     1      -0.155   9.329  22.028  0.00  0.00    +0.000 A 
ATOM      9  C   UNL     1      -0.438  10.613  21.710  0.00  0.00    +0.000 A 
ATOM     10 BR   UNL     1      -1.414  11.716  22.859  0.00  0.00    +0.000 Br
ATOM     11  C   UNL     1       0.034  11.198  20.460  0.00  0.00    +0.000 A 
ATOM     12  C   UNL     1       0.779  10.451  19.628  0.00  0.00    +0.000 A 
ATOM     13  N   UNL     1       1.098   9.140  19.981  0.00  0.00    +0.000 N 
ATOM     14  C   UNL     1       1.896   8.244  19.315  0.00  0.00    +0.000 A 
ENDBRANCH   2   5
BRANCH   3  15
ATOM     15  C   UNL     1       4.822   5.279  18.264  0.00  0.00    +0.000 C 
ATOM     16  C   UNL     1       4.222   4.600  17.000  0.00  0.00    +0.000 C 
ATOM     17  N   UNL     1       5.138   4.677  15.829  0.00  0.00    +0.000 NA
ATOM     18  C   UNL     1       5.405   6.098  15.527  0.00  0.00    +0.000 C 
ATOM     19  C   UNL     1       6.083   6.813  16.706  0.00  0.00    +0.000 C 
ATOM     20  C   UNL     1       6.213   5.843  17.894  0.00  0.00    +0.000 C 
ATOM     21  C   UNL     1       7.073   4.659  17.409  0.00  0.00    +0.000 C 
ATOM     22  C   UNL     1       6.418   4.018  16.173  0.00  0.00    +0.000 C 
ENDBRANCH   3  15
TORSDOF 2
ENDMDL
MODEL 9
REMARK VINA RESULT:      -6.7      2.770      3.647
REMARK  Name = 
REMARK  2 active torsions:
REMARK  status: ('A' for Active; 'I' for Inactive)
REMARK    1  A    between atoms: C_2  and  C_12
REMARK    2  A    between atoms: N_3  and  C_4
REMARK                            x       y       z     vdW  Elec       q    Type
REMARK                         _______ _______ _______ _____ _____    ______ ____
ROOT
ATOM      1  O   UNL     1       3.192   5.225  19.617  0.00  0.00    +0.000 OA
ATOM      2  C   UNL     1       3.106   6.332  19.093  0.00  0.00    +0.000 C 
ATOM      3  N   UNL     1       3.845   6.680  17.979  0.00  0.00    +0.000 N 
ATOM      4  H   UNL     1       3.602   7.536  17.504  0.00  0.00    +0.000 HD
ENDROOT
BRANCH   2   5
ATOM      5  C   UNL     1       2.182   7.353  19.594  0.00  0.00    +0.000 A 
ATOM      6  C   UNL     1       1.489   7.460  20.840  0.00  0.00    +0.000 A 
ATOM      7  C   UNL     1       0.852   8.685  20.870  0.00  0.00    +0.000 A 
ATOM      8  C   UNL     1       0.111   9.403  21.860  0.00  0.00    +0.000 A 
ATOM      9  C   UNL     1      -0.324  10.657  21.596  0.00  0.00    +0.000 A 
ATOM     10 BR   UNL     1      -1.213  11.678  22.882  0.00  0.00    +0.000 Br
ATOM     11  C   UNL     1      -0.092  11.273  20.294  0.00  0.00    +0.000 A 
ATOM     12  C   UNL     1       0.585  10.588  19.357  0.00  0.00    +0.000 A 
ATOM     13  N   UNL     1       1.063   9.311  19.650  0.00  0.00    +0.000 N 
ATOM     14  C   UNL     1       1.830   8.483  18.869  0.00  0.00    +0.000 A 
ENDBRANCH   2   5
BRANCH   3  15
ATOM     15  C   UNL     1       4.690   5.709  17.287  0.00  0.00    +0.000 C 
ATOM     16  C   UNL     1       5.259   6.245  15.942  0.00  0.00    +0.000 C 
ATOM     17  N   UNL     1       6.744   6.158  15.883  0.00  0.00    +0.000 NA
ATOM     18  C   UNL     1       7.311   6.952  16.992  0.00  0.00    +0.000 C 
ATOM     19  C   UNL     1       6.860   6.419  18.362  0.00  0.00    +0.000 C 
ATOM     20  C   UNL     1       5.877   5.251  18.165  0.00  0.00    +0.000 C 
ATOM     21  C   UNL     1       6.633   4.161  17.380  0.00  0.00    +0.000 C 
ATOM     22  C   UNL     1       7.152   4.746  16.055  0.00  0.00    +0.000 C 
ENDBRANCH   3  15
TORSDOF 2
ENDMDL
