MODEL 1
REMARK VINA RESULT:      -7.7      0.000      0.000
REMARK  Name = 
REMARK  11 active torsions:
REMARK  status: ('A' for Active; 'I' for Inactive)
REMARK    1  A    between atoms: C_1  and  C_2
REMARK    2  A    between atoms: C_2  and  C_3
REMARK    3  A    between atoms: C_3  and  N_4
REMARK    4  A    between atoms: N_4  and  C_5
REMARK    5  A    between atoms: C_5  and  C_6
REMARK    6  A    between atoms: C_6  and  C_7
REMARK    7  A    between atoms: C_8  and  C_10
REMARK    8  A    between atoms: C_10  and  S_11
REMARK    9  A    between atoms: S_11  and  C_12
REMARK   10  A    between atoms: N_21  and  C_22
REMARK   11  A    between atoms: C_31  and  C_32
REMARK                            x       y       z     vdW  Elec       q    Type
REMARK                         _______ _______ _______ _____ _____    ______ ____
ROOT
ATOM      1  C   UNL     1       2.343   7.121  18.724  0.00  0.00    +0.000 A 
ATOM      2  N   UNL     1       2.357   8.364  18.338  0.00  0.00    +0.000 NA
ATOM      3  C   UNL     1       1.668   9.228  19.125  0.00  0.00    +0.000 A 
ATOM      4  S   UNL     1       1.535  10.893  18.748  0.00  0.00    +0.000 S 
ATOM      5  C   UNL     1       0.515  11.187  20.083  0.00  0.00    +0.000 A 
ATOM      6  C   UNL     1       0.326  10.052  20.853  0.00  0.00    +0.000 A 
ATOM      7  C   UNL     1       0.987   8.922  20.278  0.00  0.00    +0.000 A 
ATOM      8  C   UNL     1       0.990   7.550  20.735  0.00  0.00    +0.000 A 
ATOM      9  O   UNL     1       0.376   7.239  21.753  0.00  0.00    +0.000 OA
ATOM     10  N   UNL     1       1.694   6.661  19.901  0.00  0.00    +0.000 N 
ATOM     11  C   UNL     1      -0.525  10.093  22.092  0.00  0.00    +0.000 C 
ATOM     12  C   UNL     1      -0.673  11.545  22.572  0.00  0.00    +0.000 C 
ATOM     13  N   UNL     1      -1.076  12.411  21.451  0.00  0.00    +0.000 N 
ATOM     14  C   UNL     1      -2.309  13.014  21.282  0.00  0.00    +0.000 C 
ATOM     15  C   UNL     1      -3.406  12.794  22.299  0.00  0.00    +0.000 C 
ATOM     16  O   UNL     1      -2.548  13.739  20.314  0.00  0.00    +0.000 OA
ATOM     17  C   UNL     1      -0.075  12.545  20.373  0.00  0.00    +0.000 C 
ENDROOT
BRANCH  10  18
ATOM     18  C   UNL     1       1.697   5.294  20.325  0.00  0.00    +0.000 A 
ATOM     19  C   UNL     1       2.574   4.850  21.319  0.00  0.00    +0.000 A 
ATOM     20  C   UNL     1       2.533   3.528  21.758  0.00  0.00    +0.000 A 
ATOM     21  C   UNL     1       1.636   2.626  21.187  0.00  0.00    +0.000 A 
ATOM     22  C   UNL     1       0.816   3.033  20.137  0.00  0.00    +0.000 A 
ATOM     23  C   UNL     1       0.856   4.357  19.699  0.00  0.00    +0.000 A 
ENDBRANCH  10  18
BRANCH   1  24
ATOM     24  S   UNL     1       3.256   5.957  17.736  0.00  0.00    +0.000 S 
BRANCH  24  25
ATOM     25  C   UNL     1       4.808   6.836  17.354  0.00  0.00    +0.000 C 
BRANCH  25  27
ATOM     26  N   UNL     1       6.291   5.263  16.048  0.00  0.00    +0.000 N 
ATOM     27  C   UNL     1       5.450   6.403  16.019  0.00  0.00    +0.000 C 
ATOM     28  O   UNL     1       5.218   6.984  14.950  0.00  0.00    +0.000 OA
BRANCH  26  29
ATOM     29  C   UNL     1       6.839   4.761  14.777  0.00  0.00    +0.000 C 
BRANCH  29  31
ATOM     30  C   UNL     1       6.300   3.608  12.506  0.00  0.00    +0.000 C 
ATOM     31  C   UNL     1       5.977   3.754  13.986  0.00  0.00    +0.000 C 
ENDBRANCH  29  31
ENDBRANCH  26  29
BRANCH  26  32
ATOM     32  C   UNL     1       6.532   4.456  17.261  0.00  0.00    +0.000 C 
BRANCH  32  33
ATOM     33  C   UNL     1       7.840   4.720  18.032  0.00  0.00    +0.000 C 
ATOM     34  C   UNL     1       7.811   5.850  19.050  0.00  0.00    +0.000 C 
ENDBRANCH  32  33
ENDBRANCH  26  32
ENDBRANCH  25  27
ENDBRANCH  24  25
ENDBRANCH   1  24
TORSDOF 8
ENDMDL
MODEL 2
REMARK VINA RESULT:      -7.2      1.625      2.675
REMARK  Name = 
REMARK  11 active torsions:
REMARK  status: ('A' for Active; 'I' for Inactive)
REMARK    1  A    between atoms: C_1  and  C_2
REMARK    2  A    between atoms: C_2  and  C_3
REMARK    3  A    between atoms: C_3  and  N_4
REMARK    4  A    between atoms: N_4  and  C_5
REMARK    5  A    between atoms: C_5  and  C_6
REMARK    6  A    between atoms: C_6  and  C_7
REMARK    7  A    between atoms: C_8  and  C_10
REMARK    8  A    between atoms: C_10  and  S_11
REMARK    9  A    between atoms: S_11  and  C_12
REMARK   10  A    between atoms: N_21  and  C_22
REMARK   11  A    between atoms: C_31  and  C_32
REMARK                            x       y       z     vdW  Elec       q    Type
REMARK                         _______ _______ _______ _____ _____    ______ ____
ROOT
ATOM      1  C   UNL     1       2.745   6.014  18.168  0.00  0.00    +0.000 A 
ATOM      2  N   UNL     1       2.910   7.167  17.585  0.00  0.00    +0.000 NA
ATOM      3  C   UNL     1       2.389   8.233  18.242  0.00  0.00    +0.000 A 
ATOM      4  S   UNL     1       2.467   9.820  17.604  0.00  0.00    +0.000 S 
ATOM      5  C   UNL     1       1.571  10.464  18.905  0.00  0.00    +0.000 A 
ATOM      6  C   UNL     1       1.268   9.503  19.854  0.00  0.00    +0.000 A 
ATOM      7  C   UNL     1       1.735   8.214  19.450  0.00  0.00    +0.000 A 
ATOM      8  C   UNL     1       1.574   6.944  20.124  0.00  0.00    +0.000 A 
ATOM      9  O   UNL     1       0.979   6.888  21.198  0.00  0.00    +0.000 OA
ATOM     10  N   UNL     1       2.103   5.843  19.424  0.00  0.00    +0.000 N 
ATOM     11  C   UNL     1       0.499   9.860  21.096  0.00  0.00    +0.000 C 
ATOM     12  C   UNL     1       0.579  11.375  21.337  0.00  0.00    +0.000 C 
ATOM     13  N   UNL     1       0.239  12.104  20.104  0.00  0.00    +0.000 N 
ATOM     14  C   UNL     1      -0.906  12.845  19.877  0.00  0.00    +0.000 C 
ATOM     15  C   UNL     1      -1.967  12.947  20.949  0.00  0.00    +0.000 C 
ATOM     16  O   UNL     1      -1.095  13.437  18.812  0.00  0.00    +0.000 OA
ATOM     17  C   UNL     1       1.189  11.922  18.988  0.00  0.00    +0.000 C 
ENDROOT
BRANCH  10  18
ATOM     18  C   UNL     1       1.941   4.573  20.064  0.00  0.00    +0.000 A 
ATOM     19  C   UNL     1       2.675   4.243  21.207  0.00  0.00    +0.000 A 
ATOM     20  C   UNL     1       2.472   3.023  21.849  0.00  0.00    +0.000 A 
ATOM     21  C   UNL     1       1.554   2.106  21.340  0.00  0.00    +0.000 A 
ATOM     22  C   UNL     1       0.877   2.386  20.155  0.00  0.00    +0.000 A 
ATOM     23  C   UNL     1       1.079   3.608  19.513  0.00  0.00    +0.000 A 
ENDBRANCH  10  18
BRANCH   1  24
ATOM     24  S   UNL     1       3.435   4.591  17.355  0.00  0.00    +0.000 S 
BRANCH  24  25
ATOM     25  C   UNL     1       4.767   4.052  18.479  0.00  0.00    +0.000 C 
BRANCH  25  27
ATOM     26  N   UNL     1       6.892   5.316  17.962  0.00  0.00    +0.000 N 
ATOM     27  C   UNL     1       5.775   5.169  18.821  0.00  0.00    +0.000 C 
ATOM     28  O   UNL     1       5.612   5.943  19.774  0.00  0.00    +0.000 OA
BRANCH  26  29
ATOM     29  C   UNL     1       7.819   6.435  18.198  0.00  0.00    +0.000 C 
BRANCH  29  31
ATOM     30  C   UNL     1       8.268   8.993  18.022  0.00  0.00    +0.000 C 
ATOM     31  C   UNL     1       7.478   7.786  17.536  0.00  0.00    +0.000 C 
ENDBRANCH  29  31
ENDBRANCH  26  29
BRANCH  26  32
ATOM     32  C   UNL     1       7.101   4.501  16.748  0.00  0.00    +0.000 C 
BRANCH  32  33
ATOM     33  C   UNL     1       6.590   5.082  15.416  0.00  0.00    +0.000 C 
ATOM     34  C   UNL     1       6.420   4.098  14.267  0.00  0.00    +0.000 C 
ENDBRANCH  32  33
ENDBRANCH  26  32
ENDBRANCH  25  27
ENDBRANCH  24  25
ENDBRANCH   1  24
TORSDOF 8
ENDMDL
MODEL 3
REMARK VINA RESULT:      -6.9      3.178      6.623
REMARK  Name = 
REMARK  11 active torsions:
REMARK  status: ('A' for Active; 'I' for Inactive)
REMARK    1  A    between atoms: C_1  and  C_2
REMARK    2  A    between atoms: C_2  and  C_3
REMARK    3  A    between atoms: C_3  and  N_4
REMARK    4  A    between atoms: N_4  and  C_5
REMARK    5  A    between atoms: C_5  and  C_6
REMARK    6  A    between atoms: C_6  and  C_7
REMARK    7  A    between atoms: C_8  and  C_10
REMARK    8  A    between atoms: C_10  and  S_11
REMARK    9  A    between atoms: S_11  and  C_12
REMARK   10  A    between atoms: N_21  and  C_22
REMARK   11  A    between atoms: C_31  and  C_32
REMARK                            x       y       z     vdW  Elec       q    Type
REMARK                         _______ _______ _______ _____ _____    ______ ____
ROOT
ATOM      1  C   UNL     1       0.394  10.861  18.350  0.00  0.00    +0.000 A 
ATOM      2  N   UNL     1      -0.571  10.096  17.931  0.00  0.00    +0.000 NA
ATOM      3  C   UNL     1      -1.826  10.546  18.183  0.00  0.00    +0.000 A 
ATOM      4  S   UNL     1      -3.218   9.649  17.749  0.00  0.00    +0.000 S 
ATOM      5  C   UNL     1      -4.265  10.796  18.456  0.00  0.00    +0.000 A 
ATOM      6  C   UNL     1      -3.577  11.887  18.960  0.00  0.00    +0.000 A 
ATOM      7  C   UNL     1      -2.165  11.722  18.808  0.00  0.00    +0.000 A 
ATOM      8  C   UNL     1      -1.102  12.597  19.250  0.00  0.00    +0.000 A 
ATOM      9  O   UNL     1      -1.370  13.648  19.828  0.00  0.00    +0.000 OA
ATOM     10  N   UNL     1       0.194  12.110  18.998  0.00  0.00    +0.000 N 
ATOM     11  C   UNL     1      -4.309  13.028  19.610  0.00  0.00    +0.000 C 
ATOM     12  C   UNL     1      -5.784  13.010  19.180  0.00  0.00    +0.000 C 
ATOM     13  N   UNL     1      -6.348  11.662  19.358  0.00  0.00    +0.000 N 
ATOM     14  C   UNL     1      -7.282  11.281  20.303  0.00  0.00    +0.000 C 
ATOM     15  C   UNL     1      -7.808  12.290  21.298  0.00  0.00    +0.000 C 
ATOM     16  O   UNL     1      -7.709  10.125  20.364  0.00  0.00    +0.000 OA
ATOM     17  C   UNL     1      -5.763  10.619  18.489  0.00  0.00    +0.000 C 
ENDROOT
BRANCH  10  18
ATOM     18  C   UNL     1       1.264  12.952  19.441  0.00  0.00    +0.000 A 
ATOM     19  C   UNL     1       1.777  12.843  20.737  0.00  0.00    +0.000 A 
ATOM     20  C   UNL     1       2.851  13.634  21.140  0.00  0.00    +0.000 A 
ATOM     21  C   UNL     1       3.407  14.564  20.262  0.00  0.00    +0.000 A 
ATOM     22  C   UNL     1       2.851  14.743  18.997  0.00  0.00    +0.000 A 
ATOM     23  C   UNL     1       1.777  13.950  18.593  0.00  0.00    +0.000 A 
ENDBRANCH  10  18
BRANCH   1  24
ATOM     24  S   UNL     1       2.056  10.322  18.019  0.00  0.00    +0.000 S 
BRANCH  24  25
ATOM     25  C   UNL     1       1.890   8.520  17.789  0.00  0.00    +0.000 C 
BRANCH  25  27
ATOM     26  N   UNL     1       2.441   6.377  19.008  0.00  0.00    +0.000 N 
ATOM     27  C   UNL     1       1.992   7.718  19.103  0.00  0.00    +0.000 C 
ATOM     28  O   UNL     1       1.741   8.218  20.209  0.00  0.00    +0.000 OA
BRANCH  26  29
ATOM     29  C   UNL     1       2.648   5.615  20.250  0.00  0.00    +0.000 C 
BRANCH  29  31
ATOM     30  C   UNL     1       1.877   3.407  21.395  0.00  0.00    +0.000 C 
ATOM     31  C   UNL     1       1.487   4.720  20.731  0.00  0.00    +0.000 C 
ENDBRANCH  29  31
ENDBRANCH  26  29
BRANCH  26  32
ATOM     32  C   UNL     1       2.859   5.744  17.741  0.00  0.00    +0.000 C 
BRANCH  32  33
ATOM     33  C   UNL     1       2.679   4.219  17.626  0.00  0.00    +0.000 C 
ATOM     34  C   UNL     1       3.951   3.393  17.502  0.00  0.00    +0.000 C 
ENDBRANCH  32  33
ENDBRANCH  26  32
ENDBRANCH  25  27
ENDBRANCH  24  25
ENDBRANCH   1  24
TORSDOF 8
ENDMDL
MODEL 4
REMARK VINA RESULT:      -6.7      3.225      6.237
REMARK  Name = 
REMARK  11 active torsions:
REMARK  status: ('A' for Active; 'I' for Inactive)
REMARK    1  A    between atoms: C_1  and  C_2
REMARK    2  A    between atoms: C_2  and  C_3
REMARK    3  A    between atoms: C_3  and  N_4
REMARK    4  A    between atoms: N_4  and  C_5
REMARK    5  A    between atoms: C_5  and  C_6
REMARK    6  A    between atoms: C_6  and  C_7
REMARK    7  A    between atoms: C_8  and  C_10
REMARK    8  A    between atoms: C_10  and  S_11
REMARK    9  A    between atoms: S_11  and  C_12
REMARK   10  A    between atoms: N_21  and  C_22
REMARK   11  A    between atoms: C_31  and  C_32
REMARK                            x       y       z     vdW  Elec       q    Type
REMARK                         _______ _______ _______ _____ _____    ______ ____
ROOT
ATOM      1  C   UNL     1       0.201  10.612  18.319  0.00  0.00    +0.000 A 
ATOM      2  N   UNL     1      -0.810   9.880  17.950  0.00  0.00    +0.000 NA
ATOM      3  C   UNL     1      -2.035  10.417  18.180  0.00  0.00    +0.000 A 
ATOM      4  S   UNL     1      -3.480   9.578  17.806  0.00  0.00    +0.000 S 
ATOM      5  C   UNL     1      -4.453  10.824  18.448  0.00  0.00    +0.000 A 
ATOM      6  C   UNL     1      -3.700  11.900  18.883  0.00  0.00    +0.000 A 
ATOM      7  C   UNL     1      -2.301  11.645  18.736  0.00  0.00    +0.000 A 
ATOM      8  C   UNL     1      -1.186  12.481  19.120  0.00  0.00    +0.000 A 
ATOM      9  O   UNL     1      -1.389  13.579  19.636  0.00  0.00    +0.000 OA
ATOM     10  N   UNL     1       0.078  11.906  18.892  0.00  0.00    +0.000 N 
ATOM     11  C   UNL     1      -4.360  13.118  19.468  0.00  0.00    +0.000 C 
ATOM     12  C   UNL     1      -5.837  13.160  19.045  0.00  0.00    +0.000 C 
ATOM     13  N   UNL     1      -6.476  11.860  19.306  0.00  0.00    +0.000 N 
ATOM     14  C   UNL     1      -7.423  11.590  20.276  0.00  0.00    +0.000 C 
ATOM     15  C   UNL     1      -7.883  12.685  21.211  0.00  0.00    +0.000 C 
ATOM     16  O   UNL     1      -7.915  10.467  20.407  0.00  0.00    +0.000 OA
ATOM     17  C   UNL     1      -5.959  10.736  18.498  0.00  0.00    +0.000 C 
ENDROOT
BRANCH  10  18
ATOM     18  C   UNL     1       1.198  12.710  19.280  0.00  0.00    +0.000 A 
ATOM     19  C   UNL     1       1.620  12.763  20.612  0.00  0.00    +0.000 A 
ATOM     20  C   UNL     1       2.741  13.510  20.968  0.00  0.00    +0.000 A 
ATOM     21  C   UNL     1       3.438  14.235  20.002  0.00  0.00    +0.000 A 
ATOM     22  C   UNL     1       2.980  14.258  18.687  0.00  0.00    +0.000 A 
ATOM     23  C   UNL     1       1.857  13.510  18.330  0.00  0.00    +0.000 A 
ENDBRANCH  10  18
BRANCH   1  24
ATOM     24  S   UNL     1       1.826   9.959  18.013  0.00  0.00    +0.000 S 
BRANCH  24  25
ATOM     25  C   UNL     1       1.754   8.273  18.705  0.00  0.00    +0.000 C 
BRANCH  25  27
ATOM     26  N   UNL     1       3.127   6.177  19.026  0.00  0.00    +0.000 N 
ATOM     27  C   UNL     1       2.963   7.394  18.321  0.00  0.00    +0.000 C 
ATOM     28  O   UNL     1       3.743   7.700  17.408  0.00  0.00    +0.000 OA
BRANCH  26  29
ATOM     29  C   UNL     1       4.209   5.266  18.617  0.00  0.00    +0.000 C 
BRANCH  29  31
ATOM     30  C   UNL     1       4.911   4.563  16.211  0.00  0.00    +0.000 C 
ATOM     31  C   UNL     1       3.954   4.379  17.380  0.00  0.00    +0.000 C 
ENDBRANCH  29  31
ENDBRANCH  26  29
BRANCH  26  32
ATOM     32  C   UNL     1       2.182   5.695  20.053  0.00  0.00    +0.000 C 
BRANCH  32  33
ATOM     33  C   UNL     1       1.518   4.326  19.810  0.00  0.00    +0.000 C 
ATOM     34  C   UNL     1       1.355   3.425  21.026  0.00  0.00    +0.000 C 
ENDBRANCH  32  33
ENDBRANCH  26  32
ENDBRANCH  25  27
ENDBRANCH  24  25
ENDBRANCH   1  24
TORSDOF 8
ENDMDL
MODEL 5
REMARK VINA RESULT:      -6.6      1.188      1.357
REMARK  Name = 
REMARK  11 active torsions:
REMARK  status: ('A' for Active; 'I' for Inactive)
REMARK    1  A    between atoms: C_1  and  C_2
REMARK    2  A    between atoms: C_2  and  C_3
REMARK    3  A    between atoms: C_3  and  N_4
REMARK    4  A    between atoms: N_4  and  C_5
REMARK    5  A    between atoms: C_5  and  C_6
REMARK    6  A    between atoms: C_6  and  C_7
REMARK    7  A    between atoms: C_8  and  C_10
REMARK    8  A    between atoms: C_10  and  S_11
REMARK    9  A    between atoms: S_11  and  C_12
REMARK   10  A    between atoms: N_21  and  C_22
REMARK   11  A    between atoms: C_31  and  C_32
REMARK                            x       y       z     vdW  Elec       q    Type
REMARK                         _______ _______ _______ _____ _____    ______ ____
ROOT
ATOM      1  C   UNL     1       2.299   6.443  18.393  0.00  0.00    +0.000 A 
ATOM      2  N   UNL     1       2.388   7.609  17.820  0.00  0.00    +0.000 NA
ATOM      3  C   UNL     1       1.916   8.653  18.544  0.00  0.00    +0.000 A 
ATOM      4  S   UNL     1       1.906  10.253  17.933  0.00  0.00    +0.000 S 
ATOM      5  C   UNL     1       1.129  10.857  19.327  0.00  0.00    +0.000 A 
ATOM      6  C   UNL     1       0.936   9.874  20.282  0.00  0.00    +0.000 A 
ATOM      7  C   UNL     1       1.382   8.600  19.810  0.00  0.00    +0.000 A 
ATOM      8  C   UNL     1       1.308   7.316  20.470  0.00  0.00    +0.000 A 
ATOM      9  O   UNL     1       0.820   7.230  21.595  0.00  0.00    +0.000 OA
ATOM     10  N   UNL     1       1.784   6.238  19.701  0.00  0.00    +0.000 N 
ATOM     11  C   UNL     1       0.284  10.194  21.599  0.00  0.00    +0.000 C 
ATOM     12  C   UNL     1       0.362  11.705  21.861  0.00  0.00    +0.000 C 
ATOM     13  N   UNL     1      -0.107  12.450  20.681  0.00  0.00    +0.000 N 
ATOM     14  C   UNL     1      -1.280  13.175  20.581  0.00  0.00    +0.000 C 
ATOM     15  C   UNL     1      -2.234  13.238  21.752  0.00  0.00    +0.000 C 
ATOM     16  O   UNL     1      -1.581  13.782  19.550  0.00  0.00    +0.000 OA
ATOM     17  C   UNL     1       0.734  12.306  19.475  0.00  0.00    +0.000 C 
ENDROOT
BRANCH  10  18
ATOM     18  C   UNL     1       1.706   4.954  20.329  0.00  0.00    +0.000 A 
ATOM     19  C   UNL     1       2.618   4.579  21.320  0.00  0.00    +0.000 A 
ATOM     20  C   UNL     1       2.500   3.345  21.958  0.00  0.00    +0.000 A 
ATOM     21  C   UNL     1       1.487   2.460  21.592  0.00  0.00    +0.000 A 
ATOM     22  C   UNL     1       0.624   2.785  20.549  0.00  0.00    +0.000 A 
ATOM     23  C   UNL     1       0.740   4.020  19.911  0.00  0.00    +0.000 A 
ENDBRANCH  10  18
BRANCH   1  24
ATOM     24  S   UNL     1       2.930   5.048  17.489  0.00  0.00    +0.000 S 
BRANCH  24  25
ATOM     25  C   UNL     1       4.664   4.921  18.041  0.00  0.00    +0.000 C 
BRANCH  25  27
ATOM     26  N   UNL     1       6.445   5.408  16.318  0.00  0.00    +0.000 N 
ATOM     27  C   UNL     1       5.628   4.432  16.940  0.00  0.00    +0.000 C 
ATOM     28  O   UNL     1       5.732   3.237  16.629  0.00  0.00    +0.000 OA
BRANCH  26  29
ATOM     29  C   UNL     1       7.448   4.965  15.336  0.00  0.00    +0.000 C 
BRANCH  29  31
ATOM     30  C   UNL     1       6.265   3.795  13.333  0.00  0.00    +0.000 C 
ATOM     31  C   UNL     1       7.043   4.999  13.848  0.00  0.00    +0.000 C 
ENDBRANCH  29  31
ENDBRANCH  26  29
BRANCH  26  32
ATOM     32  C   UNL     1       6.454   6.833  16.706  0.00  0.00    +0.000 C 
BRANCH  32  33
ATOM     33  C   UNL     1       7.647   7.325  17.546  0.00  0.00    +0.000 C 
ATOM     34  C   UNL     1       7.986   6.510  18.785  0.00  0.00    +0.000 C 
ENDBRANCH  32  33
ENDBRANCH  26  32
ENDBRANCH  25  27
ENDBRANCH  24  25
ENDBRANCH   1  24
TORSDOF 8
ENDMDL
MODEL 6
REMARK VINA RESULT:      -6.6      3.174      6.255
REMARK  Name = 
REMARK  11 active torsions:
REMARK  status: ('A' for Active; 'I' for Inactive)
REMARK    1  A    between atoms: C_1  and  C_2
REMARK    2  A    between atoms: C_2  and  C_3
REMARK    3  A    between atoms: C_3  and  N_4
REMARK    4  A    between atoms: N_4  and  C_5
REMARK    5  A    between atoms: C_5  and  C_6
REMARK    6  A    between atoms: C_6  and  C_7
REMARK    7  A    between atoms: C_8  and  C_10
REMARK    8  A    between atoms: C_10  and  S_11
REMARK    9  A    between atoms: S_11  and  C_12
REMARK   10  A    between atoms: N_21  and  C_22
REMARK   11  A    between atoms: C_31  and  C_32
REMARK                            x       y       z     vdW  Elec       q    Type
REMARK                         _______ _______ _______ _____ _____    ______ ____
ROOT
ATOM      1  C   UNL     1      -0.499  11.723  19.595  0.00  0.00    +0.000 A 
ATOM      2  N   UNL     1      -0.148  12.247  20.734  0.00  0.00    +0.000 NA
ATOM      3  C   UNL     1      -1.163  12.732  21.491  0.00  0.00    +0.000 A 
ATOM      4  S   UNL     1      -0.888  13.501  22.996  0.00  0.00    +0.000 S 
ATOM      5  C   UNL     1      -2.545  13.854  23.200  0.00  0.00    +0.000 A 
ATOM      6  C   UNL     1      -3.316  13.339  22.173  0.00  0.00    +0.000 A 
ATOM      7  C   UNL     1      -2.502  12.705  21.183  0.00  0.00    +0.000 A 
ATOM      8  C   UNL     1      -2.908  12.096  19.936  0.00  0.00    +0.000 A 
ATOM      9  O   UNL     1      -4.096  12.070  19.621  0.00  0.00    +0.000 OA
ATOM     10  N   UNL     1      -1.844  11.612  19.152  0.00  0.00    +0.000 N 
ATOM     11  C   UNL     1      -4.809  13.518  22.164  0.00  0.00    +0.000 C 
ATOM     12  C   UNL     1      -5.299  13.855  23.580  0.00  0.00    +0.000 C 
ATOM     13  N   UNL     1      -4.494  14.949  24.149  0.00  0.00    +0.000 N 
ATOM     14  C   UNL     1      -4.919  16.244  24.384  0.00  0.00    +0.000 C 
ATOM     15  C   UNL     1      -6.331  16.654  24.031  0.00  0.00    +0.000 C 
ATOM     16  O   UNL     1      -4.173  17.090  24.881  0.00  0.00    +0.000 OA
ATOM     17  C   UNL     1      -3.073  14.623  24.386  0.00  0.00    +0.000 C 
ENDROOT
BRANCH  10  18
ATOM     18  C   UNL     1      -2.220  11.019  17.904  0.00  0.00    +0.000 A 
ATOM     19  C   UNL     1      -2.448   9.644  17.799  0.00  0.00    +0.000 A 
ATOM     20  C   UNL     1      -2.862   9.087  16.591  0.00  0.00    +0.000 A 
ATOM     21  C   UNL     1      -3.025   9.893  15.465  0.00  0.00    +0.000 A 
ATOM     22  C   UNL     1      -2.720  11.250  15.533  0.00  0.00    +0.000 A 
ATOM     23  C   UNL     1      -2.307  11.809  16.743  0.00  0.00    +0.000 A 
ENDBRANCH  10  18
BRANCH   1  24
ATOM     24  S   UNL     1       0.798  11.050  18.581  0.00  0.00    +0.000 S 
BRANCH  24  25
ATOM     25  C   UNL     1       1.145   9.428  19.340  0.00  0.00    +0.000 C 
BRANCH  25  27
ATOM     26  N   UNL     1       2.256   7.194  18.942  0.00  0.00    +0.000 N 
ATOM     27  C   UNL     1       1.933   8.471  18.420  0.00  0.00    +0.000 C 
ATOM     28  O   UNL     1       2.241   8.770  17.258  0.00  0.00    +0.000 OA
BRANCH  26  29
ATOM     29  C   UNL     1       2.917   6.220  18.058  0.00  0.00    +0.000 C 
BRANCH  29  31
ATOM     30  C   UNL     1       4.968   6.582  16.497  0.00  0.00    +0.000 C 
ATOM     31  C   UNL     1       4.448   6.331  17.905  0.00  0.00    +0.000 C 
ENDBRANCH  29  31
ENDBRANCH  26  29
BRANCH  26  32
ATOM     32  C   UNL     1       1.833   6.727  20.278  0.00  0.00    +0.000 C 
BRANCH  32  33
ATOM     33  C   UNL     1       2.163   5.269  20.648  0.00  0.00    +0.000 C 
ATOM     34  C   UNL     1       1.023   4.266  20.541  0.00  0.00    +0.000 C 
ENDBRANCH  32  33
ENDBRANCH  26  32
ENDBRANCH  25  27
ENDBRANCH  24  25
ENDBRANCH   1  24
TORSDOF 8
ENDMDL
MODEL 7
REMARK VINA RESULT:      -6.6      3.320      6.287
REMARK  Name = 
REMARK  11 active torsions:
REMARK  status: ('A' for Active; 'I' for Inactive)
REMARK    1  A    between atoms: C_1  and  C_2
REMARK    2  A    between atoms: C_2  and  C_3
REMARK    3  A    between atoms: C_3  and  N_4
REMARK    4  A    between atoms: N_4  and  C_5
REMARK    5  A    between atoms: C_5  and  C_6
REMARK    6  A    between atoms: C_6  and  C_7
REMARK    7  A    between atoms: C_8  and  C_10
REMARK    8  A    between atoms: C_10  and  S_11
REMARK    9  A    between atoms: S_11  and  C_12
REMARK   10  A    between atoms: N_21  and  C_22
REMARK   11  A    between atoms: C_31  and  C_32
REMARK                            x       y       z     vdW  Elec       q    Type
REMARK                         _______ _______ _______ _____ _____    ______ ____
ROOT
ATOM      1  C   UNL     1      -0.782  11.182  19.506  0.00  0.00    +0.000 A 
ATOM      2  N   UNL     1      -0.387  11.588  20.678  0.00  0.00    +0.000 NA
ATOM      3  C   UNL     1      -1.332  12.201  21.433  0.00  0.00    +0.000 A 
ATOM      4  S   UNL     1      -0.983  12.844  22.981  0.00  0.00    +0.000 S 
ATOM      5  C   UNL     1      -2.564  13.458  23.162  0.00  0.00    +0.000 A 
ATOM      6  C   UNL     1      -3.377  13.126  22.091  0.00  0.00    +0.000 A 
ATOM      7  C   UNL     1      -2.647  12.411  21.091  0.00  0.00    +0.000 A 
ATOM      8  C   UNL     1      -3.106  11.935  19.805  0.00  0.00    +0.000 A 
ATOM      9  O   UNL     1      -4.271  12.122  19.461  0.00  0.00    +0.000 OA
ATOM     10  N   UNL     1      -2.112  11.317  19.024  0.00  0.00    +0.000 N 
ATOM     11  C   UNL     1      -4.818  13.551  22.055  0.00  0.00    +0.000 C 
ATOM     12  C   UNL     1      -5.292  13.900  23.474  0.00  0.00    +0.000 C 
ATOM     13  N   UNL     1      -4.337  14.819  24.116  0.00  0.00    +0.000 N 
ATOM     14  C   UNL     1      -4.549  16.154  24.405  0.00  0.00    +0.000 C 
ATOM     15  C   UNL     1      -5.861  16.809  24.039  0.00  0.00    +0.000 C 
ATOM     16  O   UNL     1      -3.690  16.841  24.963  0.00  0.00    +0.000 OA
ATOM     17  C   UNL     1      -2.997  14.250  24.371  0.00  0.00    +0.000 C 
ENDROOT
BRANCH  10  18
ATOM     18  C   UNL     1      -2.540  10.853  17.740  0.00  0.00    +0.000 A 
ATOM     19  C   UNL     1      -2.472  11.680  16.615  0.00  0.00    +0.000 A 
ATOM     20  C   UNL     1      -2.845  11.200  15.361  0.00  0.00    +0.000 A 
ATOM     21  C   UNL     1      -3.317   9.896  15.221  0.00  0.00    +0.000 A 
ATOM     22  C   UNL     1      -3.469   9.088  16.345  0.00  0.00    +0.000 A 
ATOM     23  C   UNL     1      -3.095   9.568  17.601  0.00  0.00    +0.000 A 
ENDBRANCH  10  18
BRANCH   1  24
ATOM     24  S   UNL     1       0.418  10.350  18.492  0.00  0.00    +0.000 S 
BRANCH  24  25
ATOM     25  C   UNL     1       1.070   9.038  19.579  0.00  0.00    +0.000 C 
BRANCH  25  27
ATOM     26  N   UNL     1       2.434   6.914  19.479  0.00  0.00    +0.000 N 
ATOM     27  C   UNL     1       2.189   8.196  18.929  0.00  0.00    +0.000 C 
ATOM     28  O   UNL     1       2.825   8.586  17.940  0.00  0.00    +0.000 OA
BRANCH  26  29
ATOM     29  C   UNL     1       3.422   6.043  18.822  0.00  0.00    +0.000 C 
BRANCH  29  31
ATOM     30  C   UNL     1       3.460   3.730  17.627  0.00  0.00    +0.000 C 
ATOM     31  C   UNL     1       2.920   5.153  17.666  0.00  0.00    +0.000 C 
ENDBRANCH  29  31
ENDBRANCH  26  29
BRANCH  26  32
ATOM     32  C   UNL     1       1.648   6.337  20.588  0.00  0.00    +0.000 C 
BRANCH  32  33
ATOM     33  C   UNL     1       1.992   4.899  21.019  0.00  0.00    +0.000 C 
ATOM     34  C   UNL     1       1.021   3.810  20.587  0.00  0.00    +0.000 C 
ENDBRANCH  32  33
ENDBRANCH  26  32
ENDBRANCH  25  27
ENDBRANCH  24  25
ENDBRANCH   1  24
TORSDOF 8
ENDMDL
MODEL 8
REMARK VINA RESULT:      -6.6      1.234      1.454
REMARK  Name = 
REMARK  11 active torsions:
REMARK  status: ('A' for Active; 'I' for Inactive)
REMARK    1  A    between atoms: C_1  and  C_2
REMARK    2  A    between atoms: C_2  and  C_3
REMARK    3  A    between atoms: C_3  and  N_4
REMARK    4  A    between atoms: N_4  and  C_5
REMARK    5  A    between atoms: C_5  and  C_6
REMARK    6  A    between atoms: C_6  and  C_7
REMARK    7  A    between atoms: C_8  and  C_10
REMARK    8  A    between atoms: C_10  and  S_11
REMARK    9  A    between atoms: S_11  and  C_12
REMARK   10  A    between atoms: N_21  and  C_22
REMARK   11  A    between atoms: C_31  and  C_32
REMARK                            x       y       z     vdW  Elec       q    Type
REMARK                         _______ _______ _______ _____ _____    ______ ____
ROOT
ATOM      1  C   UNL     1       2.056   7.431  18.791  0.00  0.00    +0.000 A 
ATOM      2  N   UNL     1       2.015   8.679  18.426  0.00  0.00    +0.000 NA
ATOM      3  C   UNL     1       1.357   9.514  19.269  0.00  0.00    +0.000 A 
ATOM      4  S   UNL     1       1.159  11.180  18.929  0.00  0.00    +0.000 S 
ATOM      5  C   UNL     1       0.221  11.429  20.332  0.00  0.00    +0.000 A 
ATOM      6  C   UNL     1       0.110  10.278  21.093  0.00  0.00    +0.000 A 
ATOM      7  C   UNL     1       0.759   9.174  20.459  0.00  0.00    +0.000 A 
ATOM      8  C   UNL     1       0.826   7.796  20.892  0.00  0.00    +0.000 A 
ATOM      9  O   UNL     1       0.287   7.454  21.942  0.00  0.00    +0.000 OA
ATOM     10  N   UNL     1       1.496   6.937  20.000  0.00  0.00    +0.000 N 
ATOM     11  C   UNL     1      -0.660  10.278  22.385  0.00  0.00    +0.000 C 
ATOM     12  C   UNL     1      -0.812  11.719  22.897  0.00  0.00    +0.000 C 
ATOM     13  N   UNL     1      -1.308  12.590  21.819  0.00  0.00    +0.000 N 
ATOM     14  C   UNL     1      -2.563  13.164  21.740  0.00  0.00    +0.000 C 
ATOM     15  C   UNL     1      -3.587  12.901  22.821  0.00  0.00    +0.000 C 
ATOM     16  O   UNL     1      -2.883  13.898  20.801  0.00  0.00    +0.000 OA
ATOM     17  C   UNL     1      -0.383  12.767  20.681  0.00  0.00    +0.000 C 
ENDROOT
BRANCH  10  18
ATOM     18  C   UNL     1       1.561   5.564  20.400  0.00  0.00    +0.000 A 
ATOM     19  C   UNL     1       2.503   5.130  21.336  0.00  0.00    +0.000 A 
ATOM     20  C   UNL     1       2.524   3.801  21.754  0.00  0.00    +0.000 A 
ATOM     21  C   UNL     1       1.621   2.883  21.220  0.00  0.00    +0.000 A 
ATOM     22  C   UNL     1       0.732   3.283  20.225  0.00  0.00    +0.000 A 
ATOM     23  C   UNL     1       0.711   4.614  19.807  0.00  0.00    +0.000 A 
ENDBRANCH  10  18
BRANCH   1  24
ATOM     24  S   UNL     1       2.931   6.306  17.728  0.00  0.00    +0.000 S 
BRANCH  24  25
ATOM     25  C   UNL     1       4.423   5.874  18.686  0.00  0.00    +0.000 C 
BRANCH  25  27
ATOM     26  N   UNL     1       6.431   5.570  17.184  0.00  0.00    +0.000 N 
ATOM     27  C   UNL     1       5.397   4.948  17.928  0.00  0.00    +0.000 C 
ATOM     28  O   UNL     1       5.325   3.713  17.989  0.00  0.00    +0.000 OA
BRANCH  26  29
ATOM     29  C   UNL     1       7.439   4.717  16.532  0.00  0.00    +0.000 C 
BRANCH  29  31
ATOM     30  C   UNL     1       6.114   3.996  14.411  0.00  0.00    +0.000 C 
ATOM     31  C   UNL     1       7.380   4.605  14.994  0.00  0.00    +0.000 C 
ENDBRANCH  29  31
ENDBRANCH  26  29
BRANCH  26  32
ATOM     32  C   UNL     1       6.646   7.030  17.147  0.00  0.00    +0.000 C 
BRANCH  32  33
ATOM     33  C   UNL     1       7.878   7.578  17.890  0.00  0.00    +0.000 C 
ATOM     34  C   UNL     1       8.070   9.087  17.867  0.00  0.00    +0.000 C 
ENDBRANCH  32  33
ENDBRANCH  26  32
ENDBRANCH  25  27
ENDBRANCH  24  25
ENDBRANCH   1  24
TORSDOF 8
ENDMDL
MODEL 9
REMARK VINA RESULT:      -6.6      2.373      9.822
REMARK  Name = 
REMARK  11 active torsions:
REMARK  status: ('A' for Active; 'I' for Inactive)
REMARK    1  A    between atoms: C_1  and  C_2
REMARK    2  A    between atoms: C_2  and  C_3
REMARK    3  A    between atoms: C_3  and  N_4
REMARK    4  A    between atoms: N_4  and  C_5
REMARK    5  A    between atoms: C_5  and  C_6
REMARK    6  A    between atoms: C_6  and  C_7
REMARK    7  A    between atoms: C_8  and  C_10
REMARK    8  A    between atoms: C_10  and  S_11
REMARK    9  A    between atoms: S_11  and  C_12
REMARK   10  A    between atoms: N_21  and  C_22
REMARK   11  A    between atoms: C_31  and  C_32
REMARK                            x       y       z     vdW  Elec       q    Type
REMARK                         _______ _______ _______ _____ _____    ______ ____
ROOT
ATOM      1  C   UNL     1       0.840   8.273  20.329  0.00  0.00    +0.000 A 
ATOM      2  N   UNL     1       1.506   7.202  20.651  0.00  0.00    +0.000 NA
ATOM      3  C   UNL     1       2.464   6.822  19.768  0.00  0.00    +0.000 A 
ATOM      4  S   UNL     1       3.406   5.411  20.000  0.00  0.00    +0.000 S 
ATOM      5  C   UNL     1       4.214   5.620  18.512  0.00  0.00    +0.000 A 
ATOM      6  C   UNL     1       3.828   6.783  17.869  0.00  0.00    +0.000 A 
ATOM      7  C   UNL     1       2.804   7.462  18.600  0.00  0.00    +0.000 A 
ATOM      8  C   UNL     1       2.094   8.671  18.248  0.00  0.00    +0.000 A 
ATOM      9  O   UNL     1       2.360   9.259  17.202  0.00  0.00    +0.000 OA
ATOM     10  N   UNL     1       1.091   9.045  19.162  0.00  0.00    +0.000 N 
ATOM     11  C   UNL     1       4.432   7.172  16.549  0.00  0.00    +0.000 C 
ATOM     12  C   UNL     1       5.760   6.426  16.347  0.00  0.00    +0.000 C 
ATOM     13  N   UNL     1       5.578   4.988  16.604  0.00  0.00    +0.000 N 
ATOM     14  C   UNL     1       5.602   3.976  15.662  0.00  0.00    +0.000 C 
ATOM     15  C   UNL     1       5.812   4.305  14.202  0.00  0.00    +0.000 C 
ATOM     16  O   UNL     1       5.455   2.793  15.979  0.00  0.00    +0.000 OA
ATOM     17  C   UNL     1       5.241   4.640  18.000  0.00  0.00    +0.000 C 
ENDROOT
BRANCH  10  18
ATOM     18  C   UNL     1       0.364  10.231  18.826  0.00  0.00    +0.000 A 
ATOM     19  C   UNL     1       0.957  11.492  18.924  0.00  0.00    +0.000 A 
ATOM     20  C   UNL     1       0.255  12.635  18.546  0.00  0.00    +0.000 A 
ATOM     21  C   UNL     1      -1.060  12.533  18.093  0.00  0.00    +0.000 A 
ATOM     22  C   UNL     1      -1.692  11.292  18.071  0.00  0.00    +0.000 A 
ATOM     23  C   UNL     1      -0.989  10.148  18.448  0.00  0.00    +0.000 A 
ENDBRANCH  10  18
BRANCH   1  24
ATOM     24  S   UNL     1      -0.408   8.823  21.470  0.00  0.00    +0.000 S 
BRANCH  24  25
ATOM     25  C   UNL     1       0.226  10.425  22.068  0.00  0.00    +0.000 C 
BRANCH  25  27
ATOM     26  N   UNL     1      -0.728  12.689  22.657  0.00  0.00    +0.000 N 
ATOM     27  C   UNL     1      -0.840  11.283  22.784  0.00  0.00    +0.000 C 
ATOM     28  O   UNL     1      -1.785  10.783  23.409  0.00  0.00    +0.000 OA
BRANCH  26  29
ATOM     29  C   UNL     1      -1.783  13.534  23.239  0.00  0.00    +0.000 C 
BRANCH  29  31
ATOM     30  C   UNL     1      -3.097  13.732  21.000  0.00  0.00    +0.000 C 
ATOM     31  C   UNL     1      -3.144  13.565  22.513  0.00  0.00    +0.000 C 
ENDBRANCH  29  31
ENDBRANCH  26  29
BRANCH  26  32
ATOM     32  C   UNL     1       0.308  13.356  21.842  0.00  0.00    +0.000 C 
BRANCH  32  33
ATOM     33  C   UNL     1       0.428  14.886  21.974  0.00  0.00    +0.000 C 
ATOM     34  C   UNL     1       0.263  15.693  20.695  0.00  0.00    +0.000 C 
ENDBRANCH  32  33
ENDBRANCH  26  32
ENDBRANCH  25  27
ENDBRANCH  24  25
ENDBRANCH   1  24
TORSDOF 8
ENDMDL
