MODEL 1
REMARK VINA RESULT:      -7.4      0.000      0.000
REMARK  Name = 
REMARK  7 active torsions:
REMARK  status: ('A' for Active; 'I' for Inactive)
REMARK    1  A    between atoms: C_1  and  O_2
REMARK    2  A    between atoms: O_2  and  C_3
REMARK    3  A    between atoms: C_3  and  C_5
REMARK    4  A    between atoms: C_5  and  O_6
REMARK    5  A    between atoms: C_5  and  C_7
REMARK    6  A    between atoms: C_11  and  C_12
REMARK    7  A    between atoms: C_18  and  O_19
REMARK                            x       y       z     vdW  Elec       q    Type
REMARK                         _______ _______ _______ _____ _____    ______ ____
ROOT
ATOM      1  C   UNL     1       6.398   5.682  18.101  0.00  0.00    +0.000 C 
ATOM      2  O   UNL     1       5.568   6.706  17.543  0.00  0.00    +0.000 OA
ATOM      3  C   UNL     1       4.257   6.439  17.830  0.00  0.00    +0.000 C 
ATOM      4  O   UNL     1       3.336   7.184  17.544  0.00  0.00    +0.000 OA
ATOM      5  C   UNL     1       4.147   5.126  18.511  0.00  0.00    +0.000 C 
ATOM      6  C   UNL     1       5.412   4.700  18.605  0.00  0.00    +0.000 C 
ENDROOT
BRANCH   5   7
ATOM      7  C   UNL     1       2.912   4.465  18.951  0.00  0.00    +0.000 A 
ATOM      8  C   UNL     1       2.265   3.525  18.128  0.00  0.00    +0.000 A 
ATOM      9  C   UNL     1       1.076   2.907  18.525  0.00  0.00    +0.000 A 
ATOM     10  C   UNL     1       0.530   3.191  19.772  0.00  0.00    +0.000 A 
ATOM     11  C   UNL     1       1.175   4.087  20.619  0.00  0.00    +0.000 A 
ATOM     12  C   UNL     1       2.354   4.722  20.211  0.00  0.00    +0.000 A 
ENDBRANCH   5   7
BRANCH   6  13
ATOM     13  O   UNL     1       5.854   3.484  19.060  0.00  0.00    +0.000 OA
ATOM     14  H   UNL     1       5.138   3.073  19.581  0.00  0.00    +0.000 HD
ENDBRANCH   6  13
BRANCH   1  15
ATOM     15  C   UNL     1       7.352   5.105  17.047  0.00  0.00    +0.000 C 
BRANCH  15  16
ATOM     16  C   UNL     1       6.559   4.602  15.843  0.00  0.00    +0.000 C 
ATOM     17  O   UNL     1       5.908   3.564  15.836  0.00  0.00    +0.000 OA
BRANCH  16  19
ATOM     18  C   UNL     1       7.084   4.783  13.564  0.00  0.00    +0.000 C 
ATOM     19  O   UNL     1       6.703   5.440  14.777  0.00  0.00    +0.000 OA
ENDBRANCH  16  19
ENDBRANCH  15  16
BRANCH  15  20
ATOM     20  O   UNL     1       8.177   4.074  17.607  0.00  0.00    +0.000 OA
ATOM     21  H   UNL     1       8.377   4.347  18.523  0.00  0.00    +0.000 HD
ENDBRANCH  15  20
ENDBRANCH   1  15
TORSDOF 6
ENDMDL
MODEL 2
REMARK VINA RESULT:      -7.4      0.089      1.107
REMARK  Name = 
REMARK  7 active torsions:
REMARK  status: ('A' for Active; 'I' for Inactive)
REMARK    1  A    between atoms: C_1  and  O_2
REMARK    2  A    between atoms: O_2  and  C_3
REMARK    3  A    between atoms: C_3  and  C_5
REMARK    4  A    between atoms: C_5  and  O_6
REMARK    5  A    between atoms: C_5  and  C_7
REMARK    6  A    between atoms: C_11  and  C_12
REMARK    7  A    between atoms: C_18  and  O_19
REMARK                            x       y       z     vdW  Elec       q    Type
REMARK                         _______ _______ _______ _____ _____    ______ ____
ROOT
ATOM      1  C   UNL     1       6.392   5.710  18.011  0.00  0.00    +0.000 C 
ATOM      2  O   UNL     1       5.549   6.734  17.473  0.00  0.00    +0.000 OA
ATOM      3  C   UNL     1       4.245   6.466  17.788  0.00  0.00    +0.000 C 
ATOM      4  O   UNL     1       3.318   7.210  17.524  0.00  0.00    +0.000 OA
ATOM      5  C   UNL     1       4.150   5.152  18.471  0.00  0.00    +0.000 C 
ATOM      6  C   UNL     1       5.418   4.726  18.536  0.00  0.00    +0.000 C 
ENDROOT
BRANCH   5   7
ATOM      7  C   UNL     1       2.926   4.490  18.938  0.00  0.00    +0.000 A 
ATOM      8  C   UNL     1       2.402   4.761  20.214  0.00  0.00    +0.000 A 
ATOM      9  C   UNL     1       1.250   4.119  20.679  0.00  0.00    +0.000 A 
ATOM     10  C   UNL     1       0.581   3.218  19.860  0.00  0.00    +0.000 A 
ATOM     11  C   UNL     1       1.060   2.964  18.577  0.00  0.00    +0.000 A 
ATOM     12  C   UNL     1       2.225   3.592  18.122  0.00  0.00    +0.000 A 
ENDBRANCH   5   7
BRANCH   6  13
ATOM     13  O   UNL     1       5.870   3.511  18.981  0.00  0.00    +0.000 OA
ATOM     14  H   UNL     1       5.691   2.845  18.289  0.00  0.00    +0.000 HD
ENDBRANCH   6  13
BRANCH   1  15
ATOM     15  C   UNL     1       7.322   5.134  16.937  0.00  0.00    +0.000 C 
BRANCH  15  16
ATOM     16  C   UNL     1       6.502   4.614  15.758  0.00  0.00    +0.000 C 
ATOM     17  O   UNL     1       5.864   3.569  15.775  0.00  0.00    +0.000 OA
BRANCH  16  19
ATOM     18  C   UNL     1       7.175   4.836  13.522  0.00  0.00    +0.000 C 
ATOM     19  O   UNL     1       6.606   5.447  14.683  0.00  0.00    +0.000 OA
ENDBRANCH  16  19
ENDBRANCH  15  16
BRANCH  15  20
ATOM     20  O   UNL     1       8.172   4.115  17.481  0.00  0.00    +0.000 OA
ATOM     21  H   UNL     1       8.447   4.428  18.365  0.00  0.00    +0.000 HD
ENDBRANCH  15  20
ENDBRANCH   1  15
TORSDOF 6
ENDMDL
MODEL 3
REMARK VINA RESULT:      -7.3      2.301      5.624
REMARK  Name = 
REMARK  7 active torsions:
REMARK  status: ('A' for Active; 'I' for Inactive)
REMARK    1  A    between atoms: C_1  and  O_2
REMARK    2  A    between atoms: O_2  and  C_3
REMARK    3  A    between atoms: C_3  and  C_5
REMARK    4  A    between atoms: C_5  and  O_6
REMARK    5  A    between atoms: C_5  and  C_7
REMARK    6  A    between atoms: C_11  and  C_12
REMARK    7  A    between atoms: C_18  and  O_19
REMARK                            x       y       z     vdW  Elec       q    Type
REMARK                         _______ _______ _______ _____ _____    ______ ____
ROOT
ATOM      1  C   UNL     1       2.838   3.572  17.236  0.00  0.00    +0.000 C 
ATOM      2  O   UNL     1       2.240   4.555  18.088  0.00  0.00    +0.000 OA
ATOM      3  C   UNL     1       3.169   5.506  18.411  0.00  0.00    +0.000 C 
ATOM      4  O   UNL     1       2.918   6.504  19.062  0.00  0.00    +0.000 OA
ATOM      5  C   UNL     1       4.494   5.123  17.865  0.00  0.00    +0.000 C 
ATOM      6  C   UNL     1       4.264   3.968  17.230  0.00  0.00    +0.000 C 
ENDROOT
BRANCH   5   7
ATOM      7  C   UNL     1       5.756   5.858  18.021  0.00  0.00    +0.000 A 
ATOM      8  C   UNL     1       6.714   5.451  18.967  0.00  0.00    +0.000 A 
ATOM      9  C   UNL     1       7.909   6.156  19.142  0.00  0.00    +0.000 A 
ATOM     10  C   UNL     1       8.182   7.264  18.348  0.00  0.00    +0.000 A 
ATOM     11  C   UNL     1       7.265   7.662  17.379  0.00  0.00    +0.000 A 
ATOM     12  C   UNL     1       6.060   6.967  17.220  0.00  0.00    +0.000 A 
ENDBRANCH   5   7
BRANCH   6  13
ATOM     13  O   UNL     1       5.185   3.138  16.643  0.00  0.00    +0.000 OA
ATOM     14  H   UNL     1       4.913   2.984  15.718  0.00  0.00    +0.000 HD
ENDBRANCH   6  13
BRANCH   1  15
ATOM     15  C   UNL     1       2.599   2.154  17.770  0.00  0.00    +0.000 C 
BRANCH  15  16
ATOM     16  C   UNL     1       1.463   2.164  18.791  0.00  0.00    +0.000 C 
ATOM     17  O   UNL     1       0.276   2.212  18.493  0.00  0.00    +0.000 OA
BRANCH  16  19
ATOM     18  C   UNL     1       1.207   2.957  20.983  0.00  0.00    +0.000 C 
ATOM     19  O   UNL     1       1.948   2.149  20.065  0.00  0.00    +0.000 OA
ENDBRANCH  16  19
ENDBRANCH  15  16
BRANCH  15  20
ATOM     20  O   UNL     1       3.802   1.601  18.321  0.00  0.00    +0.000 OA
ATOM     21  H   UNL     1       4.183   1.025  17.630  0.00  0.00    +0.000 HD
ENDBRANCH  15  20
ENDBRANCH   1  15
TORSDOF 6
ENDMDL
MODEL 4
REMARK VINA RESULT:      -7.1      1.829      2.576
REMARK  Name = 
REMARK  7 active torsions:
REMARK  status: ('A' for Active; 'I' for Inactive)
REMARK    1  A    between atoms: C_1  and  O_2
REMARK    2  A    between atoms: O_2  and  C_3
REMARK    3  A    between atoms: C_3  and  C_5
REMARK    4  A    between atoms: C_5  and  O_6
REMARK    5  A    between atoms: C_5  and  C_7
REMARK    6  A    between atoms: C_11  and  C_12
REMARK    7  A    between atoms: C_18  and  O_19
REMARK                            x       y       z     vdW  Elec       q    Type
REMARK                         _______ _______ _______ _____ _____    ______ ____
ROOT
ATOM      1  C   UNL     1       6.029   4.303  16.563  0.00  0.00    +0.000 C 
ATOM      2  O   UNL     1       6.810   4.944  17.577  0.00  0.00    +0.000 OA
ATOM      3  C   UNL     1       6.165   4.848  18.780  0.00  0.00    +0.000 C 
ATOM      4  O   UNL     1       6.636   5.240  19.833  0.00  0.00    +0.000 OA
ATOM      5  C   UNL     1       4.834   4.222  18.591  0.00  0.00    +0.000 C 
ATOM      6  C   UNL     1       4.778   3.965  17.278  0.00  0.00    +0.000 C 
ENDROOT
BRANCH   5   7
ATOM      7  C   UNL     1       3.824   3.974  19.627  0.00  0.00    +0.000 A 
ATOM      8  C   UNL     1       2.873   4.957  19.956  0.00  0.00    +0.000 A 
ATOM      9  C   UNL     1       1.921   4.741  20.957  0.00  0.00    +0.000 A 
ATOM     10  C   UNL     1       1.880   3.522  21.624  0.00  0.00    +0.000 A 
ATOM     11  C   UNL     1       2.787   2.521  21.287  0.00  0.00    +0.000 A 
ATOM     12  C   UNL     1       3.753   2.746  20.299  0.00  0.00    +0.000 A 
ENDBRANCH   5   7
BRANCH   6  13
ATOM     13  O   UNL     1       3.710   3.484  16.565  0.00  0.00    +0.000 OA
ATOM     14  H   UNL     1       2.909   3.566  17.118  0.00  0.00    +0.000 HD
ENDBRANCH   6  13
BRANCH   1  15
ATOM     15  C   UNL     1       5.814   5.229  15.359  0.00  0.00    +0.000 C 
BRANCH  15  16
ATOM     16  C   UNL     1       6.757   4.838  14.224  0.00  0.00    +0.000 C 
ATOM     17  O   UNL     1       7.776   5.454  13.937  0.00  0.00    +0.000 OA
BRANCH  16  19
ATOM     18  C   UNL     1       6.726   3.659  12.196  0.00  0.00    +0.000 C 
ATOM     19  O   UNL     1       6.293   3.742  13.557  0.00  0.00    +0.000 OA
ENDBRANCH  16  19
ENDBRANCH  15  16
BRANCH  15  20
ATOM     20  O   UNL     1       5.972   6.605  15.731  0.00  0.00    +0.000 OA
ATOM     21  H   UNL     1       6.868   6.867  15.445  0.00  0.00    +0.000 HD
ENDBRANCH  15  20
ENDBRANCH   1  15
TORSDOF 6
ENDMDL
MODEL 5
REMARK VINA RESULT:      -7.1      1.192      1.987
REMARK  Name = 
REMARK  7 active torsions:
REMARK  status: ('A' for Active; 'I' for Inactive)
REMARK    1  A    between atoms: C_1  and  O_2
REMARK    2  A    between atoms: O_2  and  C_3
REMARK    3  A    between atoms: C_3  and  C_5
REMARK    4  A    between atoms: C_5  and  O_6
REMARK    5  A    between atoms: C_5  and  C_7
REMARK    6  A    between atoms: C_11  and  C_12
REMARK    7  A    between atoms: C_18  and  O_19
REMARK                            x       y       z     vdW  Elec       q    Type
REMARK                         _______ _______ _______ _____ _____    ______ ____
ROOT
ATOM      1  C   UNL     1       5.279   5.942  17.134  0.00  0.00    +0.000 C 
ATOM      2  O   UNL     1       4.376   7.026  17.374  0.00  0.00    +0.000 OA
ATOM      3  C   UNL     1       3.398   6.621  18.242  0.00  0.00    +0.000 C 
ATOM      4  O   UNL     1       2.537   7.361  18.683  0.00  0.00    +0.000 OA
ATOM      5  C   UNL     1       3.548   5.175  18.534  0.00  0.00    +0.000 C 
ATOM      6  C   UNL     1       4.627   4.810  17.831  0.00  0.00    +0.000 C 
ENDROOT
BRANCH   5   7
ATOM      7  C   UNL     1       2.681   4.356  19.390  0.00  0.00    +0.000 A 
ATOM      8  C   UNL     1       2.835   4.362  20.788  0.00  0.00    +0.000 A 
ATOM      9  C   UNL     1       2.030   3.569  21.611  0.00  0.00    +0.000 A 
ATOM     10  C   UNL     1       1.032   2.779  21.053  0.00  0.00    +0.000 A 
ATOM     11  C   UNL     1       0.837   2.787  19.674  0.00  0.00    +0.000 A 
ATOM     12  C   UNL     1       1.656   3.566  18.850  0.00  0.00    +0.000 A 
ENDBRANCH   5   7
BRANCH   6  13
ATOM     13  O   UNL     1       5.132   3.546  17.669  0.00  0.00    +0.000 OA
ATOM     14  H   UNL     1       4.732   2.966  18.346  0.00  0.00    +0.000 HD
ENDBRANCH   6  13
BRANCH   1  15
ATOM     15  C   UNL     1       5.474   5.703  15.632  0.00  0.00    +0.000 C 
BRANCH  15  16
ATOM     16  C   UNL     1       6.861   5.118  15.370  0.00  0.00    +0.000 C 
ATOM     17  O   UNL     1       7.617   4.729  16.252  0.00  0.00    +0.000 OA
BRANCH  16  19
ATOM     18  C   UNL     1       6.573   4.034  13.310  0.00  0.00    +0.000 C 
ATOM     19  O   UNL     1       7.151   5.122  14.038  0.00  0.00    +0.000 OA
ENDBRANCH  16  19
ENDBRANCH  15  16
BRANCH  15  20
ATOM     20  O   UNL     1       5.259   6.909  14.885  0.00  0.00    +0.000 OA
ATOM     21  H   UNL     1       4.466   7.332  15.267  0.00  0.00    +0.000 HD
ENDBRANCH  15  20
ENDBRANCH   1  15
TORSDOF 6
ENDMDL
MODEL 6
REMARK VINA RESULT:      -7.1      1.804      2.496
REMARK  Name = 
REMARK  7 active torsions:
REMARK  status: ('A' for Active; 'I' for Inactive)
REMARK    1  A    between atoms: C_1  and  O_2
REMARK    2  A    between atoms: O_2  and  C_3
REMARK    3  A    between atoms: C_3  and  C_5
REMARK    4  A    between atoms: C_5  and  O_6
REMARK    5  A    between atoms: C_5  and  C_7
REMARK    6  A    between atoms: C_11  and  C_12
REMARK    7  A    between atoms: C_18  and  O_19
REMARK                            x       y       z     vdW  Elec       q    Type
REMARK                         _______ _______ _______ _____ _____    ______ ____
ROOT
ATOM      1  C   UNL     1       5.956   4.249  16.557  0.00  0.00    +0.000 C 
ATOM      2  O   UNL     1       6.738   4.893  17.568  0.00  0.00    +0.000 OA
ATOM      3  C   UNL     1       6.091   4.806  18.771  0.00  0.00    +0.000 C 
ATOM      4  O   UNL     1       6.561   5.201  19.822  0.00  0.00    +0.000 OA
ATOM      5  C   UNL     1       4.758   4.182  18.583  0.00  0.00    +0.000 C 
ATOM      6  C   UNL     1       4.702   3.918  17.272  0.00  0.00    +0.000 C 
ENDROOT
BRANCH   5   7
ATOM      7  C   UNL     1       3.745   3.943  19.619  0.00  0.00    +0.000 A 
ATOM      8  C   UNL     1       3.728   2.738  20.345  0.00  0.00    +0.000 A 
ATOM      9  C   UNL     1       2.754   2.489  21.317  0.00  0.00    +0.000 A 
ATOM     10  C   UNL     1       1.799   3.457  21.606  0.00  0.00    +0.000 A 
ATOM     11  C   UNL     1       1.822   4.672  20.927  0.00  0.00    +0.000 A 
ATOM     12  C   UNL     1       2.784   4.912  19.939  0.00  0.00    +0.000 A 
ENDBRANCH   5   7
BRANCH   6  13
ATOM     13  O   UNL     1       3.634   3.436  16.560  0.00  0.00    +0.000 OA
ATOM     14  H   UNL     1       2.814   3.739  16.994  0.00  0.00    +0.000 HD
ENDBRANCH   6  13
BRANCH   1  15
ATOM     15  C   UNL     1       5.745   5.168  15.348  0.00  0.00    +0.000 C 
BRANCH  15  16
ATOM     16  C   UNL     1       6.730   4.807  14.238  0.00  0.00    +0.000 C 
ATOM     17  O   UNL     1       7.766   5.421  14.014  0.00  0.00    +0.000 OA
BRANCH  16  19
ATOM     18  C   UNL     1       6.793   3.684  12.179  0.00  0.00    +0.000 C 
ATOM     19  O   UNL     1       6.283   3.740  13.514  0.00  0.00    +0.000 OA
ENDBRANCH  16  19
ENDBRANCH  15  16
BRANCH  15  20
ATOM     20  O   UNL     1       5.852   6.548  15.723  0.00  0.00    +0.000 OA
ATOM     21  H   UNL     1       6.773   6.684  16.019  0.00  0.00    +0.000 HD
ENDBRANCH  15  20
ENDBRANCH   1  15
TORSDOF 6
ENDMDL
MODEL 7
REMARK VINA RESULT:      -7.0      1.115      1.611
REMARK  Name = 
REMARK  7 active torsions:
REMARK  status: ('A' for Active; 'I' for Inactive)
REMARK    1  A    between atoms: C_1  and  O_2
REMARK    2  A    between atoms: O_2  and  C_3
REMARK    3  A    between atoms: C_3  and  C_5
REMARK    4  A    between atoms: C_5  and  O_6
REMARK    5  A    between atoms: C_5  and  C_7
REMARK    6  A    between atoms: C_11  and  C_12
REMARK    7  A    between atoms: C_18  and  O_19
REMARK                            x       y       z     vdW  Elec       q    Type
REMARK                         _______ _______ _______ _____ _____    ______ ____
ROOT
ATOM      1  C   UNL     1       5.401   5.888  17.217  0.00  0.00    +0.000 C 
ATOM      2  O   UNL     1       4.484   6.974  17.380  0.00  0.00    +0.000 OA
ATOM      3  C   UNL     1       3.471   6.595  18.218  0.00  0.00    +0.000 C 
ATOM      4  O   UNL     1       2.589   7.346  18.596  0.00  0.00    +0.000 OA
ATOM      5  C   UNL     1       3.614   5.161  18.567  0.00  0.00    +0.000 C 
ATOM      6  C   UNL     1       4.724   4.777  17.924  0.00  0.00    +0.000 C 
ENDROOT
BRANCH   5   7
ATOM      7  C   UNL     1       2.713   4.367  19.412  0.00  0.00    +0.000 A 
ATOM      8  C   UNL     1       1.669   3.615  18.845  0.00  0.00    +0.000 A 
ATOM      9  C   UNL     1       0.791   2.874  19.641  0.00  0.00    +0.000 A 
ATOM     10  C   UNL     1       0.962   2.844  21.020  0.00  0.00    +0.000 A 
ATOM     11  C   UNL     1       2.013   3.550  21.599  0.00  0.00    +0.000 A 
ATOM     12  C   UNL     1       2.879   4.308  20.803  0.00  0.00    +0.000 A 
ENDBRANCH   5   7
BRANCH   6  13
ATOM     13  O   UNL     1       5.240   3.511  17.827  0.00  0.00    +0.000 OA
ATOM     14  H   UNL     1       4.766   2.937  18.460  0.00  0.00    +0.000 HD
ENDBRANCH   6  13
BRANCH   1  15
ATOM     15  C   UNL     1       5.662   5.598  15.733  0.00  0.00    +0.000 C 
BRANCH  15  16
ATOM     16  C   UNL     1       7.097   5.114  15.539  0.00  0.00    +0.000 C 
ATOM     17  O   UNL     1       7.755   4.555  16.408  0.00  0.00    +0.000 OA
BRANCH  16  19
ATOM     18  C   UNL     1       7.167   4.483  13.281  0.00  0.00    +0.000 C 
ATOM     19  O   UNL     1       7.553   5.421  14.290  0.00  0.00    +0.000 OA
ENDBRANCH  16  19
ENDBRANCH  15  16
BRANCH  15  20
ATOM     20  O   UNL     1       5.376   6.748  14.925  0.00  0.00    +0.000 OA
ATOM     21  H   UNL     1       6.219   7.008  14.506  0.00  0.00    +0.000 HD
ENDBRANCH  15  20
ENDBRANCH   1  15
TORSDOF 6
ENDMDL
MODEL 8
REMARK VINA RESULT:      -7.0      2.293      5.643
REMARK  Name = 
REMARK  7 active torsions:
REMARK  status: ('A' for Active; 'I' for Inactive)
REMARK    1  A    between atoms: C_1  and  O_2
REMARK    2  A    between atoms: O_2  and  C_3
REMARK    3  A    between atoms: C_3  and  C_5
REMARK    4  A    between atoms: C_5  and  O_6
REMARK    5  A    between atoms: C_5  and  C_7
REMARK    6  A    between atoms: C_11  and  C_12
REMARK    7  A    between atoms: C_18  and  O_19
REMARK                            x       y       z     vdW  Elec       q    Type
REMARK                         _______ _______ _______ _____ _____    ______ ____
ROOT
ATOM      1  C   UNL     1       2.405   3.863  17.434  0.00  0.00    +0.000 C 
ATOM      2  O   UNL     1       1.893   5.041  18.068  0.00  0.00    +0.000 OA
ATOM      3  C   UNL     1       2.921   5.909  18.317  0.00  0.00    +0.000 C 
ATOM      4  O   UNL     1       2.766   7.025  18.780  0.00  0.00    +0.000 OA
ATOM      5  C   UNL     1       4.214   5.279  17.954  0.00  0.00    +0.000 C 
ATOM      6  C   UNL     1       3.870   4.072  17.489  0.00  0.00    +0.000 C 
ENDROOT
BRANCH   5   7
ATOM      7  C   UNL     1       5.551   5.867  18.102  0.00  0.00    +0.000 A 
ATOM      8  C   UNL     1       6.446   5.384  19.073  0.00  0.00    +0.000 A 
ATOM      9  C   UNL     1       7.713   5.952  19.240  0.00  0.00    +0.000 A 
ATOM     10  C   UNL     1       8.121   6.991  18.413  0.00  0.00    +0.000 A 
ATOM     11  C   UNL     1       7.266   7.459  17.419  0.00  0.00    +0.000 A 
ATOM     12  C   UNL     1       5.990   6.904  17.267  0.00  0.00    +0.000 A 
ENDBRANCH   5   7
BRANCH   6  13
ATOM     13  O   UNL     1       4.704   3.048  17.121  0.00  0.00    +0.000 OA
ATOM     14  H   UNL     1       4.165   2.345  16.710  0.00  0.00    +0.000 HD
ENDBRANCH   6  13
BRANCH   1  15
ATOM     15  C   UNL     1       1.941   2.595  18.161  0.00  0.00    +0.000 C 
BRANCH  15  16
ATOM     16  C   UNL     1       2.304   2.677  19.642  0.00  0.00    +0.000 C 
ATOM     17  O   UNL     1       3.440   2.540  20.077  0.00  0.00    +0.000 OA
BRANCH  16  19
ATOM     18  C   UNL     1       1.424   2.767  21.815  0.00  0.00    +0.000 C 
ATOM     19  O   UNL     1       1.195   2.885  20.407  0.00  0.00    +0.000 OA
ENDBRANCH  16  19
ENDBRANCH  15  16
BRANCH  15  20
ATOM     20  O   UNL     1       2.485   1.419  17.546  0.00  0.00    +0.000 OA
ATOM     21  H   UNL     1       3.453   1.542  17.522  0.00  0.00    +0.000 HD
ENDBRANCH  15  20
ENDBRANCH   1  15
TORSDOF 6
ENDMDL
MODEL 9
REMARK VINA RESULT:      -7.0      2.268      5.585
REMARK  Name = 
REMARK  7 active torsions:
REMARK  status: ('A' for Active; 'I' for Inactive)
REMARK    1  A    between atoms: C_1  and  O_2
REMARK    2  A    between atoms: O_2  and  C_3
REMARK    3  A    between atoms: C_3  and  C_5
REMARK    4  A    between atoms: C_5  and  O_6
REMARK    5  A    between atoms: C_5  and  C_7
REMARK    6  A    between atoms: C_11  and  C_12
REMARK    7  A    between atoms: C_18  and  O_19
REMARK                            x       y       z     vdW  Elec       q    Type
REMARK                         _______ _______ _______ _____ _____    ______ ____
ROOT
ATOM      1  C   UNL     1       2.360   3.677  17.362  0.00  0.00    +0.000 C 
ATOM      2  O   UNL     1       1.818   4.921  17.818  0.00  0.00    +0.000 OA
ATOM      3  C   UNL     1       2.837   5.802  18.059  0.00  0.00    +0.000 C 
ATOM      4  O   UNL     1       2.665   6.963  18.384  0.00  0.00    +0.000 OA
ATOM      5  C   UNL     1       4.144   5.124  17.879  0.00  0.00    +0.000 C 
ATOM      6  C   UNL     1       3.818   3.876  17.520  0.00  0.00    +0.000 C 
ENDROOT
BRANCH   5   7
ATOM      7  C   UNL     1       5.475   5.713  18.077  0.00  0.00    +0.000 A 
ATOM      8  C   UNL     1       5.938   6.745  17.241  0.00  0.00    +0.000 A 
ATOM      9  C   UNL     1       7.212   7.297  17.405  0.00  0.00    +0.000 A 
ATOM     10  C   UNL     1       8.034   6.849  18.432  0.00  0.00    +0.000 A 
ATOM     11  C   UNL     1       7.581   5.856  19.296  0.00  0.00    +0.000 A 
ATOM     12  C   UNL     1       6.314   5.290  19.117  0.00  0.00    +0.000 A 
ENDBRANCH   5   7
BRANCH   6  13
ATOM     13  O   UNL     1       4.662   2.811  17.338  0.00  0.00    +0.000 OA
ATOM     14  H   UNL     1       4.409   2.357  16.511  0.00  0.00    +0.000 HD
ENDBRANCH   6  13
BRANCH   1  15
ATOM     15  C   UNL     1       1.813   2.500  18.179  0.00  0.00    +0.000 C 
BRANCH  15  16
ATOM     16  C   UNL     1       1.549   2.939  19.618  0.00  0.00    +0.000 C 
ATOM     17  O   UNL     1       0.501   3.447  19.997  0.00  0.00    +0.000 OA
BRANCH  16  19
ATOM     18  C   UNL     1       2.368   2.755  21.808  0.00  0.00    +0.000 C 
ATOM     19  O   UNL     1       2.642   2.723  20.404  0.00  0.00    +0.000 OA
ENDBRANCH  16  19
ENDBRANCH  15  16
BRANCH  15  20
ATOM     20  O   UNL     1       2.700   1.374  18.122  0.00  0.00    +0.000 OA
ATOM     21  H   UNL     1       3.586   1.731  17.917  0.00  0.00    +0.000 HD
ENDBRANCH  15  20
ENDBRANCH   1  15
TORSDOF 6
ENDMDL
