MODEL 1
REMARK VINA RESULT:      -8.2      0.000      0.000
REMARK  Name = 
REMARK  9 active torsions:
REMARK  status: ('A' for Active; 'I' for Inactive)
REMARK    1  A    between atoms: C_1  and  O_2
REMARK    2  A    between atoms: O_2  and  C_3
REMARK    3  A    between atoms: C_6  and  C_7
REMARK    4  A    between atoms: C_7  and  N_8
REMARK    5  A    between atoms: C_13  and  C_14
REMARK    6  A    between atoms: C_17  and  N_18
REMARK    7  A    between atoms: C_21  and  C_22
REMARK    8  A    between atoms: C_24  and  O_25
REMARK    9  A    between atoms: O_25  and  C_26
REMARK                            x       y       z     vdW  Elec       q    Type
REMARK                         _______ _______ _______ _____ _____    ______ ____
ROOT
ATOM      1  N   UNL     1      -1.020  12.475  21.527  0.00  0.00    +0.000 N 
ATOM      2  C   UNL     1      -1.745  12.780  20.304  0.00  0.00    +0.000 C 
ATOM      3  C   UNL     1      -0.891  12.409  19.098  0.00  0.00    +0.000 C 
ATOM      4  C   UNL     1      -0.494  10.945  19.193  0.00  0.00    +0.000 C 
ATOM      5  N   UNL     1      -0.011  10.591  20.509  0.00  0.00    +0.000 N 
ATOM      6  C   UNL     1       0.817   9.562  20.892  0.00  0.00    +0.000 A 
ATOM      7  N   UNL     1       1.021   9.684  22.193  0.00  0.00    +0.000 NA
ATOM      8  N   UNL     1       0.328  10.787  22.650  0.00  0.00    +0.000 NA
ATOM      9  C   UNL     1      -0.284  11.338  21.625  0.00  0.00    +0.000 A 
ENDROOT
BRANCH   6  10
ATOM     10  C   UNL     1       1.447   8.573  20.008  0.00  0.00    +0.000 A 
ATOM     11  C   UNL     1       1.769   8.864  18.681  0.00  0.00    +0.000 A 
ATOM     12  C   UNL     1       2.524   7.978  17.917  0.00  0.00    +0.000 A 
ATOM     13  C   UNL     1       2.909   6.737  18.444  0.00  0.00    +0.000 A 
ATOM     14  C   UNL     1       2.514   6.378  19.746  0.00  0.00    +0.000 A 
ATOM     15  C   UNL     1       1.791   7.306  20.514  0.00  0.00    +0.000 A 
BRANCH  13  16
ATOM     16  N   UNL     1       3.712   5.894  17.626  0.00  0.00    +0.000 N 
ATOM     17  C   UNL     1       3.531   4.563  17.330  0.00  0.00    +0.000 A 
ATOM     18  N   UNL     1       4.472   4.088  16.540  0.00  0.00    +0.000 NA
ATOM     19  C   UNL     1       5.315   5.141  16.310  0.00  0.00    +0.000 A 
ATOM     20  C   UNL     1       6.542   4.973  15.502  0.00  0.00    +0.000 C 
ATOM     21  C   UNL     1       4.851   6.272  16.943  0.00  0.00    +0.000 A 
ENDBRANCH  13  16
BRANCH  14  22
ATOM     22  O   UNL     1       2.941   5.168  20.227  0.00  0.00    +0.000 OA
ATOM     23  C   UNL     1       2.090   4.452  21.113  0.00  0.00    +0.000 C 
ENDBRANCH  14  22
ENDBRANCH   6  10
BRANCH   1  24
ATOM     24  C   UNL     1      -1.250  13.303  22.705  0.00  0.00    +0.000 C 
BRANCH  24  28
ATOM     25  C   UNL     1      -5.451  13.191  23.777  0.00  0.00    +0.000 A 
ATOM     26  C   UNL     1      -4.943  14.256  23.030  0.00  0.00    +0.000 A 
ATOM     27  C   UNL     1      -3.587  14.306  22.690  0.00  0.00    +0.000 A 
ATOM     28  C   UNL     1      -2.711  13.295  23.109  0.00  0.00    +0.000 A 
ATOM     29  C   UNL     1      -3.227  12.245  23.882  0.00  0.00    +0.000 A 
ATOM     30  C   UNL     1      -4.584  12.194  24.216  0.00  0.00    +0.000 A 
BRANCH  25  32
ATOM     31  C   UNL     1      -7.380  14.543  23.972  0.00  0.00    +0.000 C 
ATOM     32  O   UNL     1      -6.793  13.247  24.043  0.00  0.00    +0.000 OA
ENDBRANCH  25  32
ENDBRANCH  24  28
ENDBRANCH   1  24
TORSDOF 6
ENDMDL
MODEL 2
REMARK VINA RESULT:      -8.0      0.721      1.102
REMARK  Name = 
REMARK  9 active torsions:
REMARK  status: ('A' for Active; 'I' for Inactive)
REMARK    1  A    between atoms: C_1  and  O_2
REMARK    2  A    between atoms: O_2  and  C_3
REMARK    3  A    between atoms: C_6  and  C_7
REMARK    4  A    between atoms: C_7  and  N_8
REMARK    5  A    between atoms: C_13  and  C_14
REMARK    6  A    between atoms: C_17  and  N_18
REMARK    7  A    between atoms: C_21  and  C_22
REMARK    8  A    between atoms: C_24  and  O_25
REMARK    9  A    between atoms: O_25  and  C_26
REMARK                            x       y       z     vdW  Elec       q    Type
REMARK                         _______ _______ _______ _____ _____    ______ ____
ROOT
ATOM      1  N   UNL     1      -0.953  11.841  21.847  0.00  0.00    +0.000 N 
ATOM      2  C   UNL     1      -1.813  12.079  20.698  0.00  0.00    +0.000 C 
ATOM      3  C   UNL     1      -1.064  11.730  19.418  0.00  0.00    +0.000 C 
ATOM      4  C   UNL     1      -0.576  10.291  19.497  0.00  0.00    +0.000 C 
ATOM      5  N   UNL     1       0.054   9.994  20.763  0.00  0.00    +0.000 N 
ATOM      6  C   UNL     1       0.974   9.021  21.077  0.00  0.00    +0.000 A 
ATOM      7  N   UNL     1       1.299   9.182  22.349  0.00  0.00    +0.000 NA
ATOM      8  N   UNL     1       0.594  10.256  22.856  0.00  0.00    +0.000 NA
ATOM      9  C   UNL     1      -0.148  10.749  21.889  0.00  0.00    +0.000 A 
ENDROOT
BRANCH   6  10
ATOM     10  C   UNL     1       1.568   8.049  20.151  0.00  0.00    +0.000 A 
ATOM     11  C   UNL     1       2.164   8.438  18.950  0.00  0.00    +0.000 A 
ATOM     12  C   UNL     1       2.876   7.526  18.176  0.00  0.00    +0.000 A 
ATOM     13  C   UNL     1       2.940   6.176  18.550  0.00  0.00    +0.000 A 
ATOM     14  C   UNL     1       2.266   5.738  19.705  0.00  0.00    +0.000 A 
ATOM     15  C   UNL     1       1.591   6.684  20.495  0.00  0.00    +0.000 A 
BRANCH  13  16
ATOM     16  N   UNL     1       3.715   5.303  17.737  0.00  0.00    +0.000 N 
ATOM     17  C   UNL     1       3.777   3.929  17.770  0.00  0.00    +0.000 A 
ATOM     18  N   UNL     1       4.607   3.438  16.874  0.00  0.00    +0.000 NA
ATOM     19  C   UNL     1       5.125   4.527  16.226  0.00  0.00    +0.000 A 
ATOM     20  C   UNL     1       6.156   4.372  15.178  0.00  0.00    +0.000 C 
ATOM     21  C   UNL     1       4.568   5.686  16.720  0.00  0.00    +0.000 A 
ENDBRANCH  13  16
BRANCH  14  22
ATOM     22  O   UNL     1       2.385   4.417  20.044  0.00  0.00    +0.000 OA
ATOM     23  C   UNL     1       2.280   4.056  21.416  0.00  0.00    +0.000 C 
ENDBRANCH  14  22
ENDBRANCH   6  10
BRANCH   1  24
ATOM     24  C   UNL     1      -1.112  12.682  23.028  0.00  0.00    +0.000 C 
BRANCH  24  28
ATOM     25  C   UNL     1      -5.167  14.129  23.544  0.00  0.00    +0.000 A 
ATOM     26  C   UNL     1      -4.814  12.851  23.984  0.00  0.00    +0.000 A 
ATOM     27  C   UNL     1      -3.511  12.372  23.811  0.00  0.00    +0.000 A 
ATOM     28  C   UNL     1      -2.542  13.161  23.177  0.00  0.00    +0.000 A 
ATOM     29  C   UNL     1      -2.916  14.431  22.714  0.00  0.00    +0.000 A 
ATOM     30  C   UNL     1      -4.217  14.911  22.893  0.00  0.00    +0.000 A 
BRANCH  25  32
ATOM     31  C   UNL     1      -7.353  13.424  24.103  0.00  0.00    +0.000 C 
ATOM     32  O   UNL     1      -6.468  14.491  23.773  0.00  0.00    +0.000 OA
ENDBRANCH  25  32
ENDBRANCH  24  28
ENDBRANCH   1  24
TORSDOF 6
ENDMDL
MODEL 3
REMARK VINA RESULT:      -7.9      1.998      3.026
REMARK  Name = 
REMARK  9 active torsions:
REMARK  status: ('A' for Active; 'I' for Inactive)
REMARK    1  A    between atoms: C_1  and  O_2
REMARK    2  A    between atoms: O_2  and  C_3
REMARK    3  A    between atoms: C_6  and  C_7
REMARK    4  A    between atoms: C_7  and  N_8
REMARK    5  A    between atoms: C_13  and  C_14
REMARK    6  A    between atoms: C_17  and  N_18
REMARK    7  A    between atoms: C_21  and  C_22
REMARK    8  A    between atoms: C_24  and  O_25
REMARK    9  A    between atoms: O_25  and  C_26
REMARK                            x       y       z     vdW  Elec       q    Type
REMARK                         _______ _______ _______ _____ _____    ______ ____
ROOT
ATOM      1  N   UNL     1      -1.302  12.184  20.890  0.00  0.00    +0.000 N 
ATOM      2  C   UNL     1      -1.075  12.080  22.323  0.00  0.00    +0.000 C 
ATOM      3  C   UNL     1      -0.847  10.622  22.701  0.00  0.00    +0.000 C 
ATOM      4  C   UNL     1       0.308  10.065  21.882  0.00  0.00    +0.000 C 
ATOM      5  N   UNL     1       0.200  10.401  20.481  0.00  0.00    +0.000 N 
ATOM      6  C   UNL     1       0.742   9.772  19.384  0.00  0.00    +0.000 A 
ATOM      7  N   UNL     1       0.314  10.415  18.310  0.00  0.00    +0.000 NA
ATOM      8  N   UNL     1      -0.502  11.455  18.709  0.00  0.00    +0.000 NA
ATOM      9  C   UNL     1      -0.576  11.433  20.022  0.00  0.00    +0.000 A 
ENDROOT
BRANCH   6  10
ATOM     10  C   UNL     1       1.556   8.550  19.392  0.00  0.00    +0.000 A 
ATOM     11  C   UNL     1       1.523   7.644  20.453  0.00  0.00    +0.000 A 
ATOM     12  C   UNL     1       2.162   6.411  20.362  0.00  0.00    +0.000 A 
ATOM     13  C   UNL     1       2.920   6.088  19.228  0.00  0.00    +0.000 A 
ATOM     14  C   UNL     1       3.051   7.023  18.184  0.00  0.00    +0.000 A 
ATOM     15  C   UNL     1       2.361   8.243  18.279  0.00  0.00    +0.000 A 
BRANCH  13  16
ATOM     16  N   UNL     1       3.517   4.797  19.180  0.00  0.00    +0.000 N 
ATOM     17  C   UNL     1       4.800   4.432  19.518  0.00  0.00    +0.000 A 
ATOM     18  N   UNL     1       5.022   3.145  19.346  0.00  0.00    +0.000 NA
ATOM     19  C   UNL     1       3.845   2.637  18.867  0.00  0.00    +0.000 A 
ATOM     20  C   UNL     1       3.726   1.211  18.493  0.00  0.00    +0.000 C 
ATOM     21  C   UNL     1       2.894   3.629  18.785  0.00  0.00    +0.000 A 
ENDBRANCH  13  16
BRANCH  14  22
ATOM     22  O   UNL     1       3.777   6.648  17.085  0.00  0.00    +0.000 OA
ATOM     23  C   UNL     1       5.121   7.099  16.973  0.00  0.00    +0.000 C 
ENDBRANCH  14  22
ENDBRANCH   6  10
BRANCH   1  24
ATOM     24  C   UNL     1      -2.180  13.237  20.393  0.00  0.00    +0.000 C 
BRANCH  24  28
ATOM     25  C   UNL     1      -6.366  12.489  21.247  0.00  0.00    +0.000 A 
ATOM     26  C   UNL     1      -5.583  13.219  22.145  0.00  0.00    +0.000 A 
ATOM     27  C   UNL     1      -4.229  13.454  21.883  0.00  0.00    +0.000 A 
ATOM     28  C   UNL     1      -3.631  12.947  20.721  0.00  0.00    +0.000 A 
ATOM     29  C   UNL     1      -4.420  12.192  19.841  0.00  0.00    +0.000 A 
ATOM     30  C   UNL     1      -5.775  11.962  20.102  0.00  0.00    +0.000 A 
BRANCH  25  32
ATOM     31  C   UNL     1      -7.915  12.152  23.001  0.00  0.00    +0.000 C 
ATOM     32  O   UNL     1      -7.677  12.328  21.607  0.00  0.00    +0.000 OA
ENDBRANCH  25  32
ENDBRANCH  24  28
ENDBRANCH   1  24
TORSDOF 6
ENDMDL
MODEL 4
REMARK VINA RESULT:      -7.8      1.869      2.759
REMARK  Name = 
REMARK  9 active torsions:
REMARK  status: ('A' for Active; 'I' for Inactive)
REMARK    1  A    between atoms: C_1  and  O_2
REMARK    2  A    between atoms: O_2  and  C_3
REMARK    3  A    between atoms: C_6  and  C_7
REMARK    4  A    between atoms: C_7  and  N_8
REMARK    5  A    between atoms: C_13  and  C_14
REMARK    6  A    between atoms: C_17  and  N_18
REMARK    7  A    between atoms: C_21  and  C_22
REMARK    8  A    between atoms: C_24  and  O_25
REMARK    9  A    between atoms: O_25  and  C_26
REMARK                            x       y       z     vdW  Elec       q    Type
REMARK                         _______ _______ _______ _____ _____    ______ ____
ROOT
ATOM      1  N   UNL     1      -0.235  10.338  21.217  0.00  0.00    +0.000 N 
ATOM      2  C   UNL     1      -0.671  11.132  20.079  0.00  0.00    +0.000 C 
ATOM      3  C   UNL     1       0.442  11.190  19.039  0.00  0.00    +0.000 C 
ATOM      4  C   UNL     1       0.839   9.775  18.649  0.00  0.00    +0.000 C 
ATOM      5  N   UNL     1       1.019   8.918  19.798  0.00  0.00    +0.000 N 
ATOM      6  C   UNL     1       1.761   7.767  19.926  0.00  0.00    +0.000 A 
ATOM      7  N   UNL     1       1.663   7.372  21.185  0.00  0.00    +0.000 NA
ATOM      8  N   UNL     1       0.861   8.264  21.869  0.00  0.00    +0.000 NA
ATOM      9  C   UNL     1       0.485   9.202  21.028  0.00  0.00    +0.000 A 
ENDROOT
BRANCH   6  10
ATOM     10  C   UNL     1       2.596   7.147  18.890  0.00  0.00    +0.000 A 
ATOM     11  C   UNL     1       3.222   7.898  17.894  0.00  0.00    +0.000 A 
ATOM     12  C   UNL     1       4.149   7.316  17.034  0.00  0.00    +0.000 A 
ATOM     13  C   UNL     1       4.412   5.940  17.101  0.00  0.00    +0.000 A 
ATOM     14  C   UNL     1       3.722   5.141  18.031  0.00  0.00    +0.000 A 
ATOM     15  C   UNL     1       2.825   5.758  18.919  0.00  0.00    +0.000 A 
BRANCH  13  16
ATOM     16  N   UNL     1       5.398   5.414  16.219  0.00  0.00    +0.000 N 
ATOM     17  C   UNL     1       6.759   5.339  16.402  0.00  0.00    +0.000 A 
ATOM     18  N   UNL     1       7.378   4.795  15.375  0.00  0.00    +0.000 NA
ATOM     19  C   UNL     1       6.392   4.506  14.471  0.00  0.00    +0.000 A 
ATOM     20  C   UNL     1       6.715   3.932  13.147  0.00  0.00    +0.000 C 
ATOM     21  C   UNL     1       5.160   4.851  14.981  0.00  0.00    +0.000 A 
ENDBRANCH  13  16
BRANCH  14  22
ATOM     22  O   UNL     1       4.037   3.809  18.079  0.00  0.00    +0.000 OA
ATOM     23  C   UNL     1       4.568   3.279  19.287  0.00  0.00    +0.000 C 
ENDBRANCH  14  22
ENDBRANCH   6  10
BRANCH   1  24
ATOM     24  C   UNL     1      -0.743  10.672  22.542  0.00  0.00    +0.000 C 
BRANCH  24  28
ATOM     25  C   UNL     1      -2.295  14.716  22.759  0.00  0.00    +0.000 A 
ATOM     26  C   UNL     1      -3.151  13.624  22.919  0.00  0.00    +0.000 A 
ATOM     27  C   UNL     1      -2.660  12.316  22.839  0.00  0.00    +0.000 A 
ATOM     28  C   UNL     1      -1.304  12.080  22.579  0.00  0.00    +0.000 A 
ATOM     29  C   UNL     1      -0.459  13.184  22.392  0.00  0.00    +0.000 A 
ATOM     30  C   UNL     1      -0.950  14.491  22.478  0.00  0.00    +0.000 A 
BRANCH  25  32
ATOM     31  C   UNL     1      -4.019  16.158  22.026  0.00  0.00    +0.000 C 
ATOM     32  O   UNL     1      -2.886  15.947  22.864  0.00  0.00    +0.000 OA
ENDBRANCH  25  32
ENDBRANCH  24  28
ENDBRANCH   1  24
TORSDOF 6
ENDMDL
MODEL 5
REMARK VINA RESULT:      -7.8      2.014      2.807
REMARK  Name = 
REMARK  9 active torsions:
REMARK  status: ('A' for Active; 'I' for Inactive)
REMARK    1  A    between atoms: C_1  and  O_2
REMARK    2  A    between atoms: O_2  and  C_3
REMARK    3  A    between atoms: C_6  and  C_7
REMARK    4  A    between atoms: C_7  and  N_8
REMARK    5  A    between atoms: C_13  and  C_14
REMARK    6  A    between atoms: C_17  and  N_18
REMARK    7  A    between atoms: C_21  and  C_22
REMARK    8  A    between atoms: C_24  and  O_25
REMARK    9  A    between atoms: O_25  and  C_26
REMARK                            x       y       z     vdW  Elec       q    Type
REMARK                         _______ _______ _______ _____ _____    ______ ____
ROOT
ATOM      1  N   UNL     1      -1.335  11.684  21.834  0.00  0.00    +0.000 N 
ATOM      2  C   UNL     1      -0.989  11.112  23.126  0.00  0.00    +0.000 C 
ATOM      3  C   UNL     1      -0.701   9.625  22.966  0.00  0.00    +0.000 C 
ATOM      4  C   UNL     1       0.394   9.434  21.928  0.00  0.00    +0.000 C 
ATOM      5  N   UNL     1       0.166  10.219  20.737  0.00  0.00    +0.000 N 
ATOM      6  C   UNL     1       0.629  10.026  19.456  0.00  0.00    +0.000 A 
ATOM      7  N   UNL     1       0.102  10.973  18.699  0.00  0.00    +0.000 NA
ATOM      8  N   UNL     1      -0.700  11.777  19.485  0.00  0.00    +0.000 NA
ATOM      9  C   UNL     1      -0.666  11.308  20.714  0.00  0.00    +0.000 A 
ENDROOT
BRANCH   6  10
ATOM     10  C   UNL     1       1.466   8.914  18.990  0.00  0.00    +0.000 A 
ATOM     11  C   UNL     1       2.150   8.960  17.774  0.00  0.00    +0.000 A 
ATOM     12  C   UNL     1       3.076   7.977  17.435  0.00  0.00    +0.000 A 
ATOM     13  C   UNL     1       3.280   6.875  18.277  0.00  0.00    +0.000 A 
ATOM     14  C   UNL     1       2.532   6.753  19.463  0.00  0.00    +0.000 A 
ATOM     15  C   UNL     1       1.637   7.780  19.807  0.00  0.00    +0.000 A 
BRANCH  13  16
ATOM     16  N   UNL     1       4.267   5.925  17.892  0.00  0.00    +0.000 N 
ATOM     17  C   UNL     1       4.089   4.703  17.285  0.00  0.00    +0.000 A 
ATOM     18  N   UNL     1       5.227   4.073  17.074  0.00  0.00    +0.000 NA
ATOM     19  C   UNL     1       6.196   4.905  17.566  0.00  0.00    +0.000 A 
ATOM     20  C   UNL     1       7.619   4.504  17.560  0.00  0.00    +0.000 C 
ATOM     21  C   UNL     1       5.632   6.064  18.047  0.00  0.00    +0.000 A 
ENDBRANCH  13  16
BRANCH  14  22
ATOM     22  O   UNL     1       2.790   5.675  20.267  0.00  0.00    +0.000 OA
ATOM     23  C   UNL     1       1.806   4.652  20.368  0.00  0.00    +0.000 C 
ENDBRANCH  14  22
ENDBRANCH   6  10
BRANCH   1  24
ATOM     24  C   UNL     1      -2.272  12.801  21.789  0.00  0.00    +0.000 C 
BRANCH  24  28
ATOM     25  C   UNL     1      -1.894  15.467  25.188  0.00  0.00    +0.000 A 
ATOM     26  C   UNL     1      -0.898  15.428  24.210  0.00  0.00    +0.000 A 
ATOM     27  C   UNL     1      -1.007  14.562  23.117  0.00  0.00    +0.000 A 
ATOM     28  C   UNL     1      -2.110  13.707  22.993  0.00  0.00    +0.000 A 
ATOM     29  C   UNL     1      -3.090  13.735  23.996  0.00  0.00    +0.000 A 
ATOM     30  C   UNL     1      -2.983  14.605  25.086  0.00  0.00    +0.000 A 
BRANCH  25  32
ATOM     31  C   UNL     1      -0.407  16.279  26.836  0.00  0.00    +0.000 C 
ATOM     32  O   UNL     1      -1.683  16.357  26.207  0.00  0.00    +0.000 OA
ENDBRANCH  25  32
ENDBRANCH  24  28
ENDBRANCH   1  24
TORSDOF 6
ENDMDL
MODEL 6
REMARK VINA RESULT:      -7.8      1.037      1.096
REMARK  Name = 
REMARK  9 active torsions:
REMARK  status: ('A' for Active; 'I' for Inactive)
REMARK    1  A    between atoms: C_1  and  O_2
REMARK    2  A    between atoms: O_2  and  C_3
REMARK    3  A    between atoms: C_6  and  C_7
REMARK    4  A    between atoms: C_7  and  N_8
REMARK    5  A    between atoms: C_13  and  C_14
REMARK    6  A    between atoms: C_17  and  N_18
REMARK    7  A    between atoms: C_21  and  C_22
REMARK    8  A    between atoms: C_24  and  O_25
REMARK    9  A    between atoms: O_25  and  C_26
REMARK                            x       y       z     vdW  Elec       q    Type
REMARK                         _______ _______ _______ _____ _____    ______ ____
ROOT
ATOM      1  N   UNL     1      -0.054  12.866  21.179  0.00  0.00    +0.000 N 
ATOM      2  C   UNL     1       0.019  13.561  19.903  0.00  0.00    +0.000 C 
ATOM      3  C   UNL     1       1.189  13.017  19.092  0.00  0.00    +0.000 C 
ATOM      4  C   UNL     1       1.035  11.512  18.933  0.00  0.00    +0.000 C 
ATOM      5  N   UNL     1       0.702  10.859  20.178  0.00  0.00    +0.000 N 
ATOM      6  C   UNL     1       0.897   9.553  20.563  0.00  0.00    +0.000 A 
ATOM      7  N   UNL     1       0.483   9.445  21.814  0.00  0.00    +0.000 NA
ATOM      8  N   UNL     1       0.023  10.676  22.238  0.00  0.00    +0.000 NA
ATOM      9  C   UNL     1       0.169  11.529  21.248  0.00  0.00    +0.000 A 
ENDROOT
BRANCH   6  10
ATOM     10  C   UNL     1       1.544   8.498  19.773  0.00  0.00    +0.000 A 
ATOM     11  C   UNL     1       1.885   8.679  18.431  0.00  0.00    +0.000 A 
ATOM     12  C   UNL     1       2.654   7.737  17.755  0.00  0.00    +0.000 A 
ATOM     13  C   UNL     1       3.035   6.546  18.388  0.00  0.00    +0.000 A 
ATOM     14  C   UNL     1       2.622   6.293  19.709  0.00  0.00    +0.000 A 
ATOM     15  C   UNL     1       1.884   7.278  20.388  0.00  0.00    +0.000 A 
BRANCH  13  16
ATOM     16  N   UNL     1       3.853   5.641  17.654  0.00  0.00    +0.000 N 
ATOM     17  C   UNL     1       3.611   4.321  17.349  0.00  0.00    +0.000 A 
ATOM     18  N   UNL     1       4.588   3.776  16.655  0.00  0.00    +0.000 NA
ATOM     19  C   UNL     1       5.519   4.768  16.500  0.00  0.00    +0.000 A 
ATOM     20  C   UNL     1       6.803   4.509  15.815  0.00  0.00    +0.000 C 
ATOM     21  C   UNL     1       5.074   5.934  17.081  0.00  0.00    +0.000 A 
ENDBRANCH  13  16
BRANCH  14  22
ATOM     22  O   UNL     1       3.045   5.129  20.294  0.00  0.00    +0.000 OA
ATOM     23  C   UNL     1       2.089   4.321  20.968  0.00  0.00    +0.000 C 
ENDBRANCH  14  22
ENDBRANCH   6  10
BRANCH   1  24
ATOM     24  C   UNL     1      -0.557  13.587  22.343  0.00  0.00    +0.000 C 
BRANCH  24  28
ATOM     25  C   UNL     1      -4.842  13.022  22.706  0.00  0.00    +0.000 A 
ATOM     26  C   UNL     1      -4.317  13.762  21.645  0.00  0.00    +0.000 A 
ATOM     27  C   UNL     1      -2.937  13.960  21.526  0.00  0.00    +0.000 A 
ATOM     28  C   UNL     1      -2.059  13.431  22.482  0.00  0.00    +0.000 A 
ATOM     29  C   UNL     1      -2.599  12.713  23.559  0.00  0.00    +0.000 A 
ATOM     30  C   UNL     1      -3.979  12.512  23.672  0.00  0.00    +0.000 A 
BRANCH  25  32
ATOM     31  C   UNL     1      -6.774  12.329  21.535  0.00  0.00    +0.000 C 
ATOM     32  O   UNL     1      -6.205  12.891  22.714  0.00  0.00    +0.000 OA
ENDBRANCH  25  32
ENDBRANCH  24  28
ENDBRANCH   1  24
TORSDOF 6
ENDMDL
MODEL 7
REMARK VINA RESULT:      -7.7      2.449      3.248
REMARK  Name = 
REMARK  9 active torsions:
REMARK  status: ('A' for Active; 'I' for Inactive)
REMARK    1  A    between atoms: C_1  and  O_2
REMARK    2  A    between atoms: O_2  and  C_3
REMARK    3  A    between atoms: C_6  and  C_7
REMARK    4  A    between atoms: C_7  and  N_8
REMARK    5  A    between atoms: C_13  and  C_14
REMARK    6  A    between atoms: C_17  and  N_18
REMARK    7  A    between atoms: C_21  and  C_22
REMARK    8  A    between atoms: C_24  and  O_25
REMARK    9  A    between atoms: O_25  and  C_26
REMARK                            x       y       z     vdW  Elec       q    Type
REMARK                         _______ _______ _______ _____ _____    ______ ____
ROOT
ATOM      1  N   UNL     1      -0.668  10.742  20.963  0.00  0.00    +0.000 N 
ATOM      2  C   UNL     1      -1.210  11.295  19.731  0.00  0.00    +0.000 C 
ATOM      3  C   UNL     1      -0.131  11.300  18.656  0.00  0.00    +0.000 C 
ATOM      4  C   UNL     1       0.409   9.890  18.477  0.00  0.00    +0.000 C 
ATOM      5  N   UNL     1       0.703   9.250  19.739  0.00  0.00    +0.000 N 
ATOM      6  C   UNL     1       1.568   8.218  20.018  0.00  0.00    +0.000 A 
ATOM      7  N   UNL     1       1.538   8.021  21.326  0.00  0.00    +0.000 NA
ATOM      8  N   UNL     1       0.658   8.923  21.891  0.00  0.00    +0.000 NA
ATOM      9  C   UNL     1       0.166   9.671  20.928  0.00  0.00    +0.000 A 
ENDROOT
BRANCH   6  10
ATOM     10  C   UNL     1       2.444   7.530  19.062  0.00  0.00    +0.000 A 
ATOM     11  C   UNL     1       2.865   8.133  17.875  0.00  0.00    +0.000 A 
ATOM     12  C   UNL     1       3.834   7.536  17.073  0.00  0.00    +0.000 A 
ATOM     13  C   UNL     1       4.348   6.274  17.403  0.00  0.00    +0.000 A 
ATOM     14  C   UNL     1       3.869   5.600  18.541  0.00  0.00    +0.000 A 
ATOM     15  C   UNL     1       2.925   6.241  19.361  0.00  0.00    +0.000 A 
BRANCH  13  16
ATOM     16  N   UNL     1       5.363   5.736  16.563  0.00  0.00    +0.000 N 
ATOM     17  C   UNL     1       6.729   5.814  16.711  0.00  0.00    +0.000 A 
ATOM     18  N   UNL     1       7.378   5.205  15.741  0.00  0.00    +0.000 NA
ATOM     19  C   UNL     1       6.407   4.712  14.911  0.00  0.00    +0.000 A 
ATOM     20  C   UNL     1       6.759   4.008  13.659  0.00  0.00    +0.000 C 
ATOM     21  C   UNL     1       5.158   5.000  15.413  0.00  0.00    +0.000 A 
ENDBRANCH  13  16
BRANCH  14  22
ATOM     22  O   UNL     1       4.425   4.384  18.838  0.00  0.00    +0.000 OA
ATOM     23  C   UNL     1       3.671   3.208  18.569  0.00  0.00    +0.000 C 
ENDBRANCH  14  22
ENDBRANCH   6  10
BRANCH   1  24
ATOM     24  C   UNL     1      -1.182  11.229  22.238  0.00  0.00    +0.000 C 
BRANCH  24  28
ATOM     25  C   UNL     1      -0.228  15.421  22.812  0.00  0.00    +0.000 A 
ATOM     26  C   UNL     1       0.540  14.636  21.949  0.00  0.00    +0.000 A 
ATOM     27  C   UNL     1       0.246  13.280  21.768  0.00  0.00    +0.000 A 
ATOM     28  C   UNL     1      -0.814  12.682  22.462  0.00  0.00    +0.000 A 
ATOM     29  C   UNL     1      -1.562  13.474  23.346  0.00  0.00    +0.000 A 
ATOM     30  C   UNL     1      -1.270  14.831  23.522  0.00  0.00    +0.000 A 
BRANCH  25  32
ATOM     31  C   UNL     1      -0.392  17.600  21.910  0.00  0.00    +0.000 C 
ATOM     32  O   UNL     1       0.149  16.734  22.904  0.00  0.00    +0.000 OA
ENDBRANCH  25  32
ENDBRANCH  24  28
ENDBRANCH   1  24
TORSDOF 6
ENDMDL
MODEL 8
REMARK VINA RESULT:      -7.7      3.371      4.776
REMARK  Name = 
REMARK  9 active torsions:
REMARK  status: ('A' for Active; 'I' for Inactive)
REMARK    1  A    between atoms: C_1  and  O_2
REMARK    2  A    between atoms: O_2  and  C_3
REMARK    3  A    between atoms: C_6  and  C_7
REMARK    4  A    between atoms: C_7  and  N_8
REMARK    5  A    between atoms: C_13  and  C_14
REMARK    6  A    between atoms: C_17  and  N_18
REMARK    7  A    between atoms: C_21  and  C_22
REMARK    8  A    between atoms: C_24  and  O_25
REMARK    9  A    between atoms: O_25  and  C_26
REMARK                            x       y       z     vdW  Elec       q    Type
REMARK                         _______ _______ _______ _____ _____    ______ ____
ROOT
ATOM      1  N   UNL     1      -0.956  12.636  20.105  0.00  0.00    +0.000 N 
ATOM      2  C   UNL     1      -1.904  12.325  19.045  0.00  0.00    +0.000 C 
ATOM      3  C   UNL     1      -1.259  11.375  18.044  0.00  0.00    +0.000 C 
ATOM      4  C   UNL     1      -0.767  10.134  18.773  0.00  0.00    +0.000 C 
ATOM      5  N   UNL     1      -0.039  10.458  19.978  0.00  0.00    +0.000 N 
ATOM      6  C   UNL     1       0.902   9.720  20.659  0.00  0.00    +0.000 A 
ATOM      7  N   UNL     1       1.327  10.460  21.670  0.00  0.00    +0.000 NA
ATOM      8  N   UNL     1       0.665  11.672  21.643  0.00  0.00    +0.000 NA
ATOM      9  C   UNL     1      -0.151  11.668  20.612  0.00  0.00    +0.000 A 
ENDROOT
BRANCH   6  10
ATOM     10  C   UNL     1       1.420   8.401  20.277  0.00  0.00    +0.000 A 
ATOM     11  C   UNL     1       1.195   7.263  21.053  0.00  0.00    +0.000 A 
ATOM     12  C   UNL     1       1.539   5.997  20.585  0.00  0.00    +0.000 A 
ATOM     13  C   UNL     1       2.194   5.851  19.354  0.00  0.00    +0.000 A 
ATOM     14  C   UNL     1       2.522   6.990  18.596  0.00  0.00    +0.000 A 
ATOM     15  C   UNL     1       2.124   8.253  19.066  0.00  0.00    +0.000 A 
BRANCH  13  16
ATOM     16  N   UNL     1       2.484   4.528  18.916  0.00  0.00    +0.000 N 
ATOM     17  C   UNL     1       1.859   3.794  17.934  0.00  0.00    +0.000 A 
ATOM     18  N   UNL     1       2.383   2.594  17.789  0.00  0.00    +0.000 NA
ATOM     19  C   UNL     1       3.389   2.525  18.716  0.00  0.00    +0.000 A 
ATOM     20  C   UNL     1       4.176   1.287  18.895  0.00  0.00    +0.000 C 
ATOM     21  C   UNL     1       3.490   3.715  19.400  0.00  0.00    +0.000 A 
ENDBRANCH  13  16
BRANCH  14  22
ATOM     22  O   UNL     1       3.133   6.792  17.387  0.00  0.00    +0.000 OA
ATOM     23  C   UNL     1       4.554   6.746  17.344  0.00  0.00    +0.000 C 
ENDBRANCH  14  22
ENDBRANCH   6  10
BRANCH   1  24
ATOM     24  C   UNL     1      -1.020  13.946  20.742  0.00  0.00    +0.000 C 
BRANCH  24  28
ATOM     25  C   UNL     1       1.079  16.979  18.461  0.00  0.00    +0.000 A 
ATOM     26  C   UNL     1      -0.199  17.234  18.962  0.00  0.00    +0.000 A 
ATOM     27  C   UNL     1      -0.888  16.257  19.689  0.00  0.00    +0.000 A 
ATOM     28  C   UNL     1      -0.313  14.998  19.911  0.00  0.00    +0.000 A 
ATOM     29  C   UNL     1       0.960  14.744  19.379  0.00  0.00    +0.000 A 
ATOM     30  C   UNL     1       1.650  15.724  18.658  0.00  0.00    +0.000 A 
BRANCH  25  32
ATOM     31  C   UNL     1       1.010  18.378  16.557  0.00  0.00    +0.000 C 
ATOM     32  O   UNL     1       1.658  18.011  17.772  0.00  0.00    +0.000 OA
ENDBRANCH  25  32
ENDBRANCH  24  28
ENDBRANCH   1  24
TORSDOF 6
ENDMDL
MODEL 9
REMARK VINA RESULT:      -7.7      2.808      3.942
REMARK  Name = 
REMARK  9 active torsions:
REMARK  status: ('A' for Active; 'I' for Inactive)
REMARK    1  A    between atoms: C_1  and  O_2
REMARK    2  A    between atoms: O_2  and  C_3
REMARK    3  A    between atoms: C_6  and  C_7
REMARK    4  A    between atoms: C_7  and  N_8
REMARK    5  A    between atoms: C_13  and  C_14
REMARK    6  A    between atoms: C_17  and  N_18
REMARK    7  A    between atoms: C_21  and  C_22
REMARK    8  A    between atoms: C_24  and  O_25
REMARK    9  A    between atoms: O_25  and  C_26
REMARK                            x       y       z     vdW  Elec       q    Type
REMARK                         _______ _______ _______ _____ _____    ______ ____
ROOT
ATOM      1  N   UNL     1      -1.693  12.498  20.142  0.00  0.00    +0.000 N 
ATOM      2  C   UNL     1      -2.642  12.168  19.090  0.00  0.00    +0.000 C 
ATOM      3  C   UNL     1      -1.903  11.542  17.914  0.00  0.00    +0.000 C 
ATOM      4  C   UNL     1      -1.120  10.332  18.398  0.00  0.00    +0.000 C 
ATOM      5  N   UNL     1      -0.376  10.606  19.606  0.00  0.00    +0.000 N 
ATOM      6  C   UNL     1       0.743   9.983  20.107  0.00  0.00    +0.000 A 
ATOM      7  N   UNL     1       1.093  10.627  21.209  0.00  0.00    +0.000 NA
ATOM      8  N   UNL     1       0.204  11.663  21.419  0.00  0.00    +0.000 NA
ATOM      9  C   UNL     1      -0.674  11.652  20.440  0.00  0.00    +0.000 A 
ENDROOT
BRANCH   6  10
ATOM     10  C   UNL     1       1.480   8.877  19.484  0.00  0.00    +0.000 A 
ATOM     11  C   UNL     1       2.046   8.987  18.213  0.00  0.00    +0.000 A 
ATOM     12  C   UNL     1       2.889   7.996  17.716  0.00  0.00    +0.000 A 
ATOM     13  C   UNL     1       3.121   6.827  18.455  0.00  0.00    +0.000 A 
ATOM     14  C   UNL     1       2.484   6.646  19.697  0.00  0.00    +0.000 A 
ATOM     15  C   UNL     1       1.674   7.679  20.198  0.00  0.00    +0.000 A 
BRANCH  13  16
ATOM     16  N   UNL     1       4.021   5.870  17.909  0.00  0.00    +0.000 N 
ATOM     17  C   UNL     1       3.739   4.635  17.372  0.00  0.00    +0.000 A 
ATOM     18  N   UNL     1       4.818   4.003  16.961  0.00  0.00    +0.000 NA
ATOM     19  C   UNL     1       5.860   4.845  17.244  0.00  0.00    +0.000 A 
ATOM     20  C   UNL     1       7.258   4.446  16.977  0.00  0.00    +0.000 C 
ATOM     21  C   UNL     1       5.390   6.014  17.800  0.00  0.00    +0.000 A 
ENDBRANCH  13  16
BRANCH  14  22
ATOM     22  O   UNL     1       2.766   5.502  20.394  0.00  0.00    +0.000 OA
ATOM     23  C   UNL     1       1.717   4.569  20.621  0.00  0.00    +0.000 C 
ENDBRANCH  14  22
ENDBRANCH   6  10
BRANCH   1  24
ATOM     24  C   UNL     1      -1.963  13.650  20.995  0.00  0.00    +0.000 C 
BRANCH  24  28
ATOM     25  C   UNL     1       0.978  16.751  20.260  0.00  0.00    +0.000 A 
ATOM     26  C   UNL     1       0.671  16.368  21.567  0.00  0.00    +0.000 A 
ATOM     27  C   UNL     1      -0.286  15.377  21.813  0.00  0.00    +0.000 A 
ATOM     28  C   UNL     1      -0.964  14.763  20.752  0.00  0.00    +0.000 A 
ATOM     29  C   UNL     1      -0.666  15.176  19.445  0.00  0.00    +0.000 A 
ATOM     30  C   UNL     1       0.294  16.162  19.200  0.00  0.00    +0.000 A 
BRANCH  25  32
ATOM     31  C   UNL     1       3.167  17.459  20.805  0.00  0.00    +0.000 C 
ATOM     32  O   UNL     1       1.934  17.725  20.142  0.00  0.00    +0.000 OA
ENDBRANCH  25  32
ENDBRANCH  24  28
ENDBRANCH   1  24
TORSDOF 6
ENDMDL
