MODEL 1
REMARK VINA RESULT:      -7.1      0.000      0.000
REMARK  Name = 
REMARK  3 active torsions:
REMARK  status: ('A' for Active; 'I' for Inactive)
REMARK    1  A    between atoms: C_1  and  C_2
REMARK    2  A    between atoms: C_3  and  C_4
REMARK    3  A    between atoms: N_12  and  C_13
REMARK                            x       y       z     vdW  Elec       q    Type
REMARK                         _______ _______ _______ _____ _____    ______ ____
ROOT
ATOM      1  C   UNL     1       3.434   3.692  16.314  0.00  0.00    +0.000 C 
ATOM      2  C   UNL     1       4.757   3.937  16.941  0.00  0.00    +0.000 A 
ATOM      3  C   UNL     1       6.001   4.238  16.403  0.00  0.00    +0.000 A 
ATOM      4  N   UNL     1       6.889   4.491  17.409  0.00  0.00    +0.000 NA
ATOM      5  N   UNL     1       6.237   4.431  18.559  0.00  0.00    +0.000 NA
ATOM      6  N   UNL     1       4.969   4.015  18.316  0.00  0.00    +0.000 N 
ENDROOT
BRANCH   6   7
ATOM      7  C   UNL     1       4.080   3.766  19.402  0.00  0.00    +0.000 A 
ATOM      8  C   UNL     1       3.250   4.808  19.850  0.00  0.00    +0.000 A 
ATOM      9  C   UNL     1       2.337   4.576  20.882  0.00  0.00    +0.000 A 
ATOM     10  C   UNL     1       2.280   3.325  21.481  0.00  0.00    +0.000 A 
ATOM     11  F   UNL     1       1.406   3.105  22.473  0.00  0.00    +0.000 F 
ATOM     12  C   UNL     1       3.126   2.301  21.076  0.00  0.00    +0.000 A 
ATOM     13  C   UNL     1       4.028   2.520  20.037  0.00  0.00    +0.000 A 
ENDBRANCH   6   7
BRANCH   3  14
ATOM     14  C   UNL     1       6.379   4.311  15.001  0.00  0.00    +0.000 A 
ATOM     15  C   UNL     1       5.724   3.553  14.022  0.00  0.00    +0.000 A 
ATOM     16  C   UNL     1       6.135   3.598  12.688  0.00  0.00    +0.000 A 
ATOM     17  C   UNL     1       7.178   4.440  12.311  0.00  0.00    +0.000 A 
ATOM     18  C   UNL     1       7.802   5.242  13.263  0.00  0.00    +0.000 A 
ATOM     19  C   UNL     1       7.406   5.178  14.603  0.00  0.00    +0.000 A 
ENDBRANCH   3  14
TORSDOF 2
ENDMDL
MODEL 2
REMARK VINA RESULT:      -7.0      4.746      6.014
REMARK  Name = 
REMARK  3 active torsions:
REMARK  status: ('A' for Active; 'I' for Inactive)
REMARK    1  A    between atoms: C_1  and  C_2
REMARK    2  A    between atoms: C_3  and  C_4
REMARK    3  A    between atoms: N_12  and  C_13
REMARK                            x       y       z     vdW  Elec       q    Type
REMARK                         _______ _______ _______ _____ _____    ______ ____
ROOT
ATOM      1  C   UNL     1       1.993   6.330  20.479  0.00  0.00    +0.000 C 
ATOM      2  C   UNL     1       2.159   7.378  19.441  0.00  0.00    +0.000 A 
ATOM      3  C   UNL     1       2.772   7.366  18.195  0.00  0.00    +0.000 A 
ATOM      4  N   UNL     1       2.551   8.555  17.561  0.00  0.00    +0.000 NA
ATOM      5  N   UNL     1       1.762   9.291  18.328  0.00  0.00    +0.000 NA
ATOM      6  N   UNL     1       1.578   8.643  19.506  0.00  0.00    +0.000 N 
ENDROOT
BRANCH   6   7
ATOM      7  C   UNL     1       0.846   9.269  20.557  0.00  0.00    +0.000 A 
ATOM      8  C   UNL     1      -0.036  10.315  20.238  0.00  0.00    +0.000 A 
ATOM      9  C   UNL     1      -0.799  10.914  21.244  0.00  0.00    +0.000 A 
ATOM     10  C   UNL     1      -0.654  10.493  22.559  0.00  0.00    +0.000 A 
ATOM     11  F   UNL     1      -1.384  11.070  23.523  0.00  0.00    +0.000 F 
ATOM     12  C   UNL     1       0.247   9.490  22.892  0.00  0.00    +0.000 A 
ATOM     13  C   UNL     1       1.000   8.877  21.892  0.00  0.00    +0.000 A 
ENDBRANCH   6   7
BRANCH   3  14
ATOM     14  C   UNL     1       3.534   6.292  17.580  0.00  0.00    +0.000 A 
ATOM     15  C   UNL     1       3.115   4.957  17.653  0.00  0.00    +0.000 A 
ATOM     16  C   UNL     1       3.887   3.933  17.100  0.00  0.00    +0.000 A 
ATOM     17  C   UNL     1       5.066   4.239  16.426  0.00  0.00    +0.000 A 
ATOM     18  C   UNL     1       5.468   5.566  16.296  0.00  0.00    +0.000 A 
ATOM     19  C   UNL     1       4.707   6.589  16.872  0.00  0.00    +0.000 A 
ENDBRANCH   3  14
TORSDOF 2
ENDMDL
MODEL 3
REMARK VINA RESULT:      -7.0      0.059      1.107
REMARK  Name = 
REMARK  3 active torsions:
REMARK  status: ('A' for Active; 'I' for Inactive)
REMARK    1  A    between atoms: C_1  and  C_2
REMARK    2  A    between atoms: C_3  and  C_4
REMARK    3  A    between atoms: N_12  and  C_13
REMARK                            x       y       z     vdW  Elec       q    Type
REMARK                         _______ _______ _______ _____ _____    ______ ____
ROOT
ATOM      1  C   UNL     1       3.486   3.665  16.321  0.00  0.00    +0.000 C 
ATOM      2  C   UNL     1       4.792   3.951  16.967  0.00  0.00    +0.000 A 
ATOM      3  C   UNL     1       6.037   4.278  16.446  0.00  0.00    +0.000 A 
ATOM      4  N   UNL     1       6.901   4.566  17.464  0.00  0.00    +0.000 NA
ATOM      5  N   UNL     1       6.232   4.501  18.603  0.00  0.00    +0.000 NA
ATOM      6  N   UNL     1       4.978   4.050  18.344  0.00  0.00    +0.000 N 
ENDROOT
BRANCH   6   7
ATOM      7  C   UNL     1       4.078   3.791  19.419  0.00  0.00    +0.000 A 
ATOM      8  C   UNL     1       3.238   4.826  19.862  0.00  0.00    +0.000 A 
ATOM      9  C   UNL     1       2.314   4.584  20.882  0.00  0.00    +0.000 A 
ATOM     10  C   UNL     1       2.256   3.329  21.474  0.00  0.00    +0.000 A 
ATOM     11  F   UNL     1       1.372   3.099  22.454  0.00  0.00    +0.000 F 
ATOM     12  C   UNL     1       3.112   2.312  21.073  0.00  0.00    +0.000 A 
ATOM     13  C   UNL     1       4.026   2.541  20.046  0.00  0.00    +0.000 A 
ENDBRANCH   6   7
BRANCH   3  14
ATOM     14  C   UNL     1       6.436   4.345  15.050  0.00  0.00    +0.000 A 
ATOM     15  C   UNL     1       7.470   5.186  14.619  0.00  0.00    +0.000 A 
ATOM     16  C   UNL     1       7.804   5.274  13.266  0.00  0.00    +0.000 A 
ATOM     17  C   UNL     1       7.138   4.484  12.333  0.00  0.00    +0.000 A 
ATOM     18  C   UNL     1       6.146   3.602  12.752  0.00  0.00    +0.000 A 
ATOM     19  C   UNL     1       5.794   3.532  14.105  0.00  0.00    +0.000 A 
ENDBRANCH   3  14
TORSDOF 2
ENDMDL
MODEL 4
REMARK VINA RESULT:      -7.0      4.667      6.012
REMARK  Name = 
REMARK  3 active torsions:
REMARK  status: ('A' for Active; 'I' for Inactive)
REMARK    1  A    between atoms: C_1  and  C_2
REMARK    2  A    between atoms: C_3  and  C_4
REMARK    3  A    between atoms: N_12  and  C_13
REMARK                            x       y       z     vdW  Elec       q    Type
REMARK                         _______ _______ _______ _____ _____    ______ ____
ROOT
ATOM      1  C   UNL     1       2.026   6.246  20.428  0.00  0.00    +0.000 C 
ATOM      2  C   UNL     1       2.207   7.303  19.402  0.00  0.00    +0.000 A 
ATOM      3  C   UNL     1       2.827   7.299  18.160  0.00  0.00    +0.000 A 
ATOM      4  N   UNL     1       2.619   8.497  17.537  0.00  0.00    +0.000 NA
ATOM      5  N   UNL     1       1.834   9.231  18.308  0.00  0.00    +0.000 NA
ATOM      6  N   UNL     1       1.637   8.573  19.478  0.00  0.00    +0.000 N 
ENDROOT
BRANCH   6   7
ATOM      7  C   UNL     1       0.905   9.194  20.532  0.00  0.00    +0.000 A 
ATOM      8  C   UNL     1      -0.016  10.205  20.212  0.00  0.00    +0.000 A 
ATOM      9  C   UNL     1      -0.779  10.797  21.221  0.00  0.00    +0.000 A 
ATOM     10  C   UNL     1      -0.596  10.405  22.541  0.00  0.00    +0.000 A 
ATOM     11  F   UNL     1      -1.326  10.976  23.509  0.00  0.00    +0.000 F 
ATOM     12  C   UNL     1       0.343   9.437  22.873  0.00  0.00    +0.000 A 
ATOM     13  C   UNL     1       1.097   8.831  21.870  0.00  0.00    +0.000 A 
ENDBRANCH   6   7
BRANCH   3  14
ATOM     14  C   UNL     1       3.583   6.225  17.537  0.00  0.00    +0.000 A 
ATOM     15  C   UNL     1       4.769   6.470  16.834  0.00  0.00    +0.000 A 
ATOM     16  C   UNL     1       5.453   5.431  16.200  0.00  0.00    +0.000 A 
ATOM     17  C   UNL     1       4.982   4.125  16.302  0.00  0.00    +0.000 A 
ATOM     18  C   UNL     1       3.835   3.856  17.045  0.00  0.00    +0.000 A 
ATOM     19  C   UNL     1       3.137   4.901  17.659  0.00  0.00    +0.000 A 
ENDBRANCH   3  14
TORSDOF 2
ENDMDL
MODEL 5
REMARK VINA RESULT:      -7.0      0.115      1.116
REMARK  Name = 
REMARK  3 active torsions:
REMARK  status: ('A' for Active; 'I' for Inactive)
REMARK    1  A    between atoms: C_1  and  C_2
REMARK    2  A    between atoms: C_3  and  C_4
REMARK    3  A    between atoms: N_12  and  C_13
REMARK                            x       y       z     vdW  Elec       q    Type
REMARK                         _______ _______ _______ _____ _____    ______ ____
ROOT
ATOM      1  C   UNL     1       3.462   3.778  16.207  0.00  0.00    +0.000 C 
ATOM      2  C   UNL     1       4.786   3.991  16.844  0.00  0.00    +0.000 A 
ATOM      3  C   UNL     1       6.041   4.263  16.316  0.00  0.00    +0.000 A 
ATOM      4  N   UNL     1       6.928   4.494  17.329  0.00  0.00    +0.000 NA
ATOM      5  N   UNL     1       6.266   4.447  18.474  0.00  0.00    +0.000 NA
ATOM      6  N   UNL     1       4.990   4.061  18.221  0.00  0.00    +0.000 N 
ENDROOT
BRANCH   6   7
ATOM      7  C   UNL     1       4.088   3.831  19.300  0.00  0.00    +0.000 A 
ATOM      8  C   UNL     1       4.060   2.561  19.901  0.00  0.00    +0.000 A 
ATOM      9  C   UNL     1       3.218   2.325  20.990  0.00  0.00    +0.000 A 
ATOM     10  C   UNL     1       2.388   3.338  21.451  0.00  0.00    +0.000 A 
ATOM     11  F   UNL     1       1.578   3.108  22.493  0.00  0.00    +0.000 F 
ATOM     12  C   UNL     1       2.375   4.583  20.836  0.00  0.00    +0.000 A 
ATOM     13  C   UNL     1       3.224   4.832  19.759  0.00  0.00    +0.000 A 
ENDBRANCH   6   7
BRANCH   3  14
ATOM     14  C   UNL     1       6.430   4.330  14.917  0.00  0.00    +0.000 A 
ATOM     15  C   UNL     1       5.810   3.538  13.941  0.00  0.00    +0.000 A 
ATOM     16  C   UNL     1       6.233   3.579  12.611  0.00  0.00    +0.000 A 
ATOM     17  C   UNL     1       7.252   4.450  12.232  0.00  0.00    +0.000 A 
ATOM     18  C   UNL     1       7.840   5.284  13.180  0.00  0.00    +0.000 A 
ATOM     19  C   UNL     1       7.433   5.225  14.517  0.00  0.00    +0.000 A 
ENDBRANCH   3  14
TORSDOF 2
ENDMDL
MODEL 6
REMARK VINA RESULT:      -6.9      2.962      7.114
REMARK  Name = 
REMARK  3 active torsions:
REMARK  status: ('A' for Active; 'I' for Inactive)
REMARK    1  A    between atoms: C_1  and  C_2
REMARK    2  A    between atoms: C_3  and  C_4
REMARK    3  A    between atoms: N_12  and  C_13
REMARK                            x       y       z     vdW  Elec       q    Type
REMARK                         _______ _______ _______ _____ _____    ______ ____
ROOT
ATOM      1  C   UNL     1       3.465   3.541  16.424  0.00  0.00    +0.000 C 
ATOM      2  C   UNL     1       4.637   3.957  17.236  0.00  0.00    +0.000 A 
ATOM      3  C   UNL     1       4.831   4.060  18.607  0.00  0.00    +0.000 A 
ATOM      4  N   UNL     1       6.134   4.375  18.865  0.00  0.00    +0.000 NA
ATOM      5  N   UNL     1       6.787   4.405  17.714  0.00  0.00    +0.000 NA
ATOM      6  N   UNL     1       5.894   4.241  16.706  0.00  0.00    +0.000 N 
ENDROOT
BRANCH   6   7
ATOM      7  C   UNL     1       6.324   4.336  15.350  0.00  0.00    +0.000 A 
ATOM      8  C   UNL     1       5.703   3.526  14.385  0.00  0.00    +0.000 A 
ATOM      9  C   UNL     1       6.074   3.635  13.042  0.00  0.00    +0.000 A 
ATOM     10  C   UNL     1       7.080   4.520  12.676  0.00  0.00    +0.000 A 
ATOM     11  F   UNL     1       7.437   4.620  11.388  0.00  0.00    +0.000 F 
ATOM     12  C   UNL     1       7.730   5.294  13.629  0.00  0.00    +0.000 A 
ATOM     13  C   UNL     1       7.355   5.203  14.968  0.00  0.00    +0.000 A 
ENDBRANCH   6   7
BRANCH   3  14
ATOM     14  C   UNL     1       3.857   3.862  19.668  0.00  0.00    +0.000 A 
ATOM     15  C   UNL     1       3.738   2.638  20.339  0.00  0.00    +0.000 A 
ATOM     16  C   UNL     1       2.762   2.452  21.321  0.00  0.00    +0.000 A 
ATOM     17  C   UNL     1       1.924   3.506  21.676  0.00  0.00    +0.000 A 
ATOM     18  C   UNL     1       2.067   4.746  21.057  0.00  0.00    +0.000 A 
ATOM     19  C   UNL     1       3.028   4.924  20.057  0.00  0.00    +0.000 A 
ENDBRANCH   3  14
TORSDOF 2
ENDMDL
MODEL 7
REMARK VINA RESULT:      -6.9      2.962      7.091
REMARK  Name = 
REMARK  3 active torsions:
REMARK  status: ('A' for Active; 'I' for Inactive)
REMARK    1  A    between atoms: C_1  and  C_2
REMARK    2  A    between atoms: C_3  and  C_4
REMARK    3  A    between atoms: N_12  and  C_13
REMARK                            x       y       z     vdW  Elec       q    Type
REMARK                         _______ _______ _______ _____ _____    ______ ____
ROOT
ATOM      1  C   UNL     1       3.343   3.514  16.457  0.00  0.00    +0.000 C 
ATOM      2  C   UNL     1       4.534   3.922  17.243  0.00  0.00    +0.000 A 
ATOM      3  C   UNL     1       4.759   4.021  18.610  0.00  0.00    +0.000 A 
ATOM      4  N   UNL     1       6.070   4.329  18.840  0.00  0.00    +0.000 NA
ATOM      5  N   UNL     1       6.697   4.359  17.675  0.00  0.00    +0.000 NA
ATOM      6  N   UNL     1       5.781   4.201  16.687  0.00  0.00    +0.000 N 
ENDROOT
BRANCH   6   7
ATOM      7  C   UNL     1       6.181   4.298  15.322  0.00  0.00    +0.000 A 
ATOM      8  C   UNL     1       7.237   5.161  14.985  0.00  0.00    +0.000 A 
ATOM      9  C   UNL     1       7.678   5.239  13.662  0.00  0.00    +0.000 A 
ATOM     10  C   UNL     1       7.046   4.485  12.681  0.00  0.00    +0.000 A 
ATOM     11  F   UNL     1       7.469   4.564  11.412  0.00  0.00    +0.000 F 
ATOM     12  C   UNL     1       5.973   3.662  12.995  0.00  0.00    +0.000 A 
ATOM     13  C   UNL     1       5.537   3.568  14.316  0.00  0.00    +0.000 A 
ENDBRANCH   6   7
BRANCH   3  14
ATOM     14  C   UNL     1       3.809   3.826  19.692  0.00  0.00    +0.000 A 
ATOM     15  C   UNL     1       3.758   2.631  20.421  0.00  0.00    +0.000 A 
ATOM     16  C   UNL     1       2.804   2.443  21.423  0.00  0.00    +0.000 A 
ATOM     17  C   UNL     1       1.918   3.470  21.740  0.00  0.00    +0.000 A 
ATOM     18  C   UNL     1       1.992   4.684  21.063  0.00  0.00    +0.000 A 
ATOM     19  C   UNL     1       2.932   4.863  20.043  0.00  0.00    +0.000 A 
ENDBRANCH   3  14
TORSDOF 2
ENDMDL
MODEL 8
REMARK VINA RESULT:      -6.9      4.701      6.008
REMARK  Name = 
REMARK  3 active torsions:
REMARK  status: ('A' for Active; 'I' for Inactive)
REMARK    1  A    between atoms: C_1  and  C_2
REMARK    2  A    between atoms: C_3  and  C_4
REMARK    3  A    between atoms: N_12  and  C_13
REMARK                            x       y       z     vdW  Elec       q    Type
REMARK                         _______ _______ _______ _____ _____    ______ ____
ROOT
ATOM      1  C   UNL     1       2.052   6.321  20.374  0.00  0.00    +0.000 C 
ATOM      2  C   UNL     1       2.219   7.376  19.344  0.00  0.00    +0.000 A 
ATOM      3  C   UNL     1       2.851   7.379  18.107  0.00  0.00    +0.000 A 
ATOM      4  N   UNL     1       2.623   8.569  17.476  0.00  0.00    +0.000 NA
ATOM      5  N   UNL     1       1.814   9.290  18.236  0.00  0.00    +0.000 NA
ATOM      6  N   UNL     1       1.621   8.633  19.407  0.00  0.00    +0.000 N 
ENDROOT
BRANCH   6   7
ATOM      7  C   UNL     1       0.866   9.244  20.451  0.00  0.00    +0.000 A 
ATOM      8  C   UNL     1       1.048   8.795  21.770  0.00  0.00    +0.000 A 
ATOM      9  C   UNL     1       0.354   9.409  22.816  0.00  0.00    +0.000 A 
ATOM     10  C   UNL     1      -0.536  10.438  22.540  0.00  0.00    +0.000 A 
ATOM     11  F   UNL     1      -1.203  11.023  23.545  0.00  0.00    +0.000 F 
ATOM     12  C   UNL     1      -0.756  10.860  21.236  0.00  0.00    +0.000 A 
ATOM     13  C   UNL     1      -0.057  10.264  20.188  0.00  0.00    +0.000 A 
ENDBRANCH   6   7
BRANCH   3  14
ATOM     14  C   UNL     1       3.635   6.318  17.498  0.00  0.00    +0.000 A 
ATOM     15  C   UNL     1       3.248   4.975  17.582  0.00  0.00    +0.000 A 
ATOM     16  C   UNL     1       4.042   3.965  17.034  0.00  0.00    +0.000 A 
ATOM     17  C   UNL     1       5.211   4.293  16.353  0.00  0.00    +0.000 A 
ATOM     18  C   UNL     1       5.581   5.628  16.212  0.00  0.00    +0.000 A 
ATOM     19  C   UNL     1       4.798   6.637  16.782  0.00  0.00    +0.000 A 
ENDBRANCH   3  14
TORSDOF 2
ENDMDL
MODEL 9
REMARK VINA RESULT:      -6.9      4.675      6.082
REMARK  Name = 
REMARK  3 active torsions:
REMARK  status: ('A' for Active; 'I' for Inactive)
REMARK    1  A    between atoms: C_1  and  C_2
REMARK    2  A    between atoms: C_3  and  C_4
REMARK    3  A    between atoms: N_12  and  C_13
REMARK                            x       y       z     vdW  Elec       q    Type
REMARK                         _______ _______ _______ _____ _____    ______ ____
ROOT
ATOM      1  C   UNL     1       2.004   6.274  20.374  0.00  0.00    +0.000 C 
ATOM      2  C   UNL     1       2.206   7.331  19.352  0.00  0.00    +0.000 A 
ATOM      3  C   UNL     1       2.855   7.327  18.124  0.00  0.00    +0.000 A 
ATOM      4  N   UNL     1       2.659   8.524  17.496  0.00  0.00    +0.000 NA
ATOM      5  N   UNL     1       1.853   9.257  18.247  0.00  0.00    +0.000 NA
ATOM      6  N   UNL     1       1.630   8.598  19.412  0.00  0.00    +0.000 N 
ENDROOT
BRANCH   6   7
ATOM      7  C   UNL     1       0.872   9.219  20.448  0.00  0.00    +0.000 A 
ATOM      8  C   UNL     1       1.073   8.804  21.775  0.00  0.00    +0.000 A 
ATOM      9  C   UNL     1       0.376   9.429  22.813  0.00  0.00    +0.000 A 
ATOM     10  C   UNL     1      -0.537  10.433  22.521  0.00  0.00    +0.000 A 
ATOM     11  F   UNL     1      -1.207  11.029  23.517  0.00  0.00    +0.000 F 
ATOM     12  C   UNL     1      -0.776  10.820  21.209  0.00  0.00    +0.000 A 
ATOM     13  C   UNL     1      -0.073  10.213  20.170  0.00  0.00    +0.000 A 
ENDBRANCH   6   7
BRANCH   3  14
ATOM     14  C   UNL     1       3.628   6.254  17.521  0.00  0.00    +0.000 A 
ATOM     15  C   UNL     1       4.834   6.502  16.852  0.00  0.00    +0.000 A 
ATOM     16  C   UNL     1       5.536   5.464  16.235  0.00  0.00    +0.000 A 
ATOM     17  C   UNL     1       5.063   4.158  16.321  0.00  0.00    +0.000 A 
ATOM     18  C   UNL     1       3.896   3.887  17.032  0.00  0.00    +0.000 A 
ATOM     19  C   UNL     1       3.180   4.930  17.628  0.00  0.00    +0.000 A 
ENDBRANCH   3  14
TORSDOF 2
ENDMDL
