MODEL 1
REMARK VINA RESULT:      -7.2      0.000      0.000
REMARK  Name = 
REMARK  9 active torsions:
REMARK  status: ('A' for Active; 'I' for Inactive)
REMARK    1  A    between atoms: C_1  and  S_2
REMARK    2  A    between atoms: S_2  and  N_5
REMARK    3  A    between atoms: N_5  and  C_6
REMARK    4  A    between atoms: N_8  and  C_9
REMARK    5  A    between atoms: C_9  and  C_10
REMARK    6  A    between atoms: C_10  and  O_11
REMARK    7  A    between atoms: O_11  and  C_12
REMARK    8  A    between atoms: C_12  and  C_13
REMARK    9  A    between atoms: C_20  and  C_21
REMARK                            x       y       z     vdW  Elec       q    Type
REMARK                         _______ _______ _______ _____ _____    ______ ____
ROOT
ATOM      1  C   UNL     1       5.187   4.268  15.514  0.00  0.00    +0.000 C 
ATOM      2  C   UNL     1       5.362   5.769  15.780  0.00  0.00    +0.000 C 
ATOM      3  N   UNL     1       6.802   6.078  15.736  0.00  0.00    +0.000 NA
ATOM      4  C   UNL     1       7.451   4.992  14.992  0.00  0.00    +0.000 C 
ATOM      5  C   UNL     1       6.378   3.972  14.577  0.00  0.00    +0.000 C 
ENDROOT
BRANCH   5   6
ATOM      6  C   UNL     1       6.014   4.088  13.112  0.00  0.00    +0.000 C 
ATOM      7  C   UNL     1       6.137   2.885  12.206  0.00  0.00    +0.000 C 
ATOM      8  C   UNL     1       4.778   3.395  12.587  0.00  0.00    +0.000 C 
ENDBRANCH   5   6
BRANCH   1   9
ATOM      9  N   UNL     1       5.311   3.392  16.706  0.00  0.00    +0.000 NA
ATOM     10  H   UNL     1       5.606   2.431  16.529  0.00  0.00    +0.000 HD
BRANCH   9  12
ATOM     11  C   UNL     1       2.887   4.354  17.507  0.00  0.00    +0.000 C 
ATOM     12  S   UNL     1       4.346   3.493  18.064  0.00  0.00    +0.000 S 
ATOM     13  O   UNL     1       5.008   4.303  19.056  0.00  0.00    +0.000 OA
ATOM     14  O   UNL     1       3.959   2.130  18.349  0.00  0.00    +0.000 OA
ENDBRANCH   9  12
ENDBRANCH   1   9
BRANCH   3  15
ATOM     15  C   UNL     1       7.361   6.277  17.089  0.00  0.00    +0.000 C 
BRANCH  15  16
ATOM     16  C   UNL     1       7.074   7.650  17.740  0.00  0.00    +0.000 C 
BRANCH  16  17
ATOM     17  O   UNL     1       8.277   8.329  18.115  0.00  0.00    +0.000 OA
BRANCH  17  18
ATOM     18  C   UNL     1       8.132   9.745  17.980  0.00  0.00    +0.000 C 
BRANCH  18  19
ATOM     19  C   UNL     1       9.281  10.520  18.586  0.00  0.00    +0.000 A 
ATOM     20  C   UNL     1      10.329  11.039  17.816  0.00  0.00    +0.000 A 
ATOM     21  C   UNL     1      11.371  11.752  18.417  0.00  0.00    +0.000 A 
ATOM     22  C   UNL     1      11.379  11.955  19.795  0.00  0.00    +0.000 A 
ATOM     23  C   UNL     1      10.346  11.444  20.576  0.00  0.00    +0.000 A 
ATOM     24  C   UNL     1       9.304  10.732  19.977  0.00  0.00    +0.000 A 
ENDBRANCH  18  19
ENDBRANCH  17  18
ENDBRANCH  16  17
ENDBRANCH  15  16
ENDBRANCH   3  15
TORSDOF 8
ENDMDL
MODEL 2
REMARK VINA RESULT:      -7.0      5.022      7.254
REMARK  Name = 
REMARK  9 active torsions:
REMARK  status: ('A' for Active; 'I' for Inactive)
REMARK    1  A    between atoms: C_1  and  S_2
REMARK    2  A    between atoms: S_2  and  N_5
REMARK    3  A    between atoms: N_5  and  C_6
REMARK    4  A    between atoms: N_8  and  C_9
REMARK    5  A    between atoms: C_9  and  C_10
REMARK    6  A    between atoms: C_10  and  O_11
REMARK    7  A    between atoms: O_11  and  C_12
REMARK    8  A    between atoms: C_12  and  C_13
REMARK    9  A    between atoms: C_20  and  C_21
REMARK                            x       y       z     vdW  Elec       q    Type
REMARK                         _______ _______ _______ _____ _____    ______ ____
ROOT
ATOM      1  C   UNL     1       4.735   4.463  17.897  0.00  0.00    +0.000 C 
ATOM      2  C   UNL     1       4.645   5.679  18.828  0.00  0.00    +0.000 C 
ATOM      3  N   UNL     1       3.331   6.313  18.629  0.00  0.00    +0.000 NA
ATOM      4  C   UNL     1       2.455   5.304  18.022  0.00  0.00    +0.000 C 
ATOM      5  C   UNL     1       3.261   4.009  17.826  0.00  0.00    +0.000 C 
ENDROOT
BRANCH   5   6
ATOM      6  C   UNL     1       2.920   2.959  18.862  0.00  0.00    +0.000 C 
ATOM      7  C   UNL     1       1.870   1.916  18.562  0.00  0.00    +0.000 C 
ATOM      8  C   UNL     1       3.315   1.520  18.633  0.00  0.00    +0.000 C 
ENDBRANCH   5   6
BRANCH   1   9
ATOM      9  N   UNL     1       5.195   4.752  16.515  0.00  0.00    +0.000 NA
ATOM     10  H   UNL     1       4.790   4.176  15.776  0.00  0.00    +0.000 HD
BRANCH   9  12
ATOM     11  C   UNL     1       6.881   4.899  14.375  0.00  0.00    +0.000 C 
ATOM     12  S   UNL     1       6.730   5.269  16.113  0.00  0.00    +0.000 S 
ATOM     13  O   UNL     1       7.699   4.483  16.836  0.00  0.00    +0.000 OA
ATOM     14  O   UNL     1       6.686   6.708  16.245  0.00  0.00    +0.000 OA
ENDBRANCH   9  12
ENDBRANCH   1   9
BRANCH   3  15
ATOM     15  C   UNL     1       3.437   7.553  17.833  0.00  0.00    +0.000 C 
BRANCH  15  16
ATOM     16  C   UNL     1       2.172   8.442  17.801  0.00  0.00    +0.000 C 
BRANCH  16  17
ATOM     17  O   UNL     1       1.595   8.604  19.101  0.00  0.00    +0.000 OA
BRANCH  17  18
ATOM     18  C   UNL     1       1.011   9.901  19.248  0.00  0.00    +0.000 C 
BRANCH  18  19
ATOM     19  C   UNL     1       0.347  10.104  20.591  0.00  0.00    +0.000 A 
ATOM     20  C   UNL     1       0.263   9.087  21.551  0.00  0.00    +0.000 A 
ATOM     21  C   UNL     1      -0.357   9.319  22.783  0.00  0.00    +0.000 A 
ATOM     22  C   UNL     1      -0.902  10.569  23.071  0.00  0.00    +0.000 A 
ATOM     23  C   UNL     1      -0.829  11.589  22.127  0.00  0.00    +0.000 A 
ATOM     24  C   UNL     1      -0.208  11.360  20.897  0.00  0.00    +0.000 A 
ENDBRANCH  18  19
ENDBRANCH  17  18
ENDBRANCH  16  17
ENDBRANCH  15  16
ENDBRANCH   3  15
TORSDOF 8
ENDMDL
MODEL 3
REMARK VINA RESULT:      -7.0      4.703      6.739
REMARK  Name = 
REMARK  9 active torsions:
REMARK  status: ('A' for Active; 'I' for Inactive)
REMARK    1  A    between atoms: C_1  and  S_2
REMARK    2  A    between atoms: S_2  and  N_5
REMARK    3  A    between atoms: N_5  and  C_6
REMARK    4  A    between atoms: N_8  and  C_9
REMARK    5  A    between atoms: C_9  and  C_10
REMARK    6  A    between atoms: C_10  and  O_11
REMARK    7  A    between atoms: O_11  and  C_12
REMARK    8  A    between atoms: C_12  and  C_13
REMARK    9  A    between atoms: C_20  and  C_21
REMARK                            x       y       z     vdW  Elec       q    Type
REMARK                         _______ _______ _______ _____ _____    ______ ____
ROOT
ATOM      1  C   UNL     1       4.471   3.892  17.567  0.00  0.00    +0.000 C 
ATOM      2  C   UNL     1       3.075   4.524  17.484  0.00  0.00    +0.000 C 
ATOM      3  N   UNL     1       3.204   5.961  17.780  0.00  0.00    +0.000 NA
ATOM      4  C   UNL     1       4.608   6.322  17.554  0.00  0.00    +0.000 C 
ATOM      5  C   UNL     1       5.374   5.062  17.118  0.00  0.00    +0.000 C 
ENDROOT
BRANCH   5   6
ATOM      6  C   UNL     1       5.657   5.047  15.631  0.00  0.00    +0.000 C 
ATOM      7  C   UNL     1       7.063   4.808  15.133  0.00  0.00    +0.000 C 
ATOM      8  C   UNL     1       6.016   3.749  14.946  0.00  0.00    +0.000 C 
ENDBRANCH   5   6
BRANCH   1   9
ATOM      9  N   UNL     1       4.900   3.473  18.925  0.00  0.00    +0.000 NA
ATOM     10  H   UNL     1       5.886   3.614  19.149  0.00  0.00    +0.000 HD
BRANCH   9  12
ATOM     11  C   UNL     1       2.943   2.888  20.734  0.00  0.00    +0.000 C 
ATOM     12  S   UNL     1       4.264   2.180  19.766  0.00  0.00    +0.000 S 
ATOM     13  O   UNL     1       5.264   1.659  20.664  0.00  0.00    +0.000 OA
ATOM     14  O   UNL     1       3.656   1.342  18.757  0.00  0.00    +0.000 OA
ENDBRANCH   9  12
ENDBRANCH   1   9
BRANCH   3  15
ATOM     15  C   UNL     1       2.727   6.285  19.140  0.00  0.00    +0.000 C 
BRANCH  15  16
ATOM     16  C   UNL     1       2.119   7.695  19.323  0.00  0.00    +0.000 C 
BRANCH  16  17
ATOM     17  O   UNL     1       1.723   8.275  18.076  0.00  0.00    +0.000 OA
BRANCH  17  18
ATOM     18  C   UNL     1       1.744   9.704  18.143  0.00  0.00    +0.000 C 
BRANCH  18  19
ATOM     19  C   UNL     1       0.394  10.302  18.468  0.00  0.00    +0.000 A 
ATOM     20  C   UNL     1       0.220  11.270  19.466  0.00  0.00    +0.000 A 
ATOM     21  C   UNL     1      -1.047  11.800  19.733  0.00  0.00    +0.000 A 
ATOM     22  C   UNL     1      -2.155  11.368  19.007  0.00  0.00    +0.000 A 
ATOM     23  C   UNL     1      -2.000  10.406  18.013  0.00  0.00    +0.000 A 
ATOM     24  C   UNL     1      -0.735   9.877  17.745  0.00  0.00    +0.000 A 
ENDBRANCH  18  19
ENDBRANCH  17  18
ENDBRANCH  16  17
ENDBRANCH  15  16
ENDBRANCH   3  15
TORSDOF 8
ENDMDL
MODEL 4
REMARK VINA RESULT:      -7.0      4.722      6.608
REMARK  Name = 
REMARK  9 active torsions:
REMARK  status: ('A' for Active; 'I' for Inactive)
REMARK    1  A    between atoms: C_1  and  S_2
REMARK    2  A    between atoms: S_2  and  N_5
REMARK    3  A    between atoms: N_5  and  C_6
REMARK    4  A    between atoms: N_8  and  C_9
REMARK    5  A    between atoms: C_9  and  C_10
REMARK    6  A    between atoms: C_10  and  O_11
REMARK    7  A    between atoms: O_11  and  C_12
REMARK    8  A    between atoms: C_12  and  C_13
REMARK    9  A    between atoms: C_20  and  C_21
REMARK                            x       y       z     vdW  Elec       q    Type
REMARK                         _______ _______ _______ _____ _____    ______ ____
ROOT
ATOM      1  C   UNL     1       4.543   3.981  17.540  0.00  0.00    +0.000 C 
ATOM      2  C   UNL     1       3.252   4.806  17.627  0.00  0.00    +0.000 C 
ATOM      3  N   UNL     1       3.619   6.200  17.935  0.00  0.00    +0.000 NA
ATOM      4  C   UNL     1       5.028   6.366  17.560  0.00  0.00    +0.000 C 
ATOM      5  C   UNL     1       5.552   5.027  17.016  0.00  0.00    +0.000 C 
ENDROOT
BRANCH   5   6
ATOM      6  C   UNL     1       5.667   5.025  15.507  0.00  0.00    +0.000 C 
ATOM      7  C   UNL     1       7.022   4.886  14.853  0.00  0.00    +0.000 C 
ATOM      8  C   UNL     1       6.040   3.754  14.781  0.00  0.00    +0.000 C 
ENDBRANCH   5   6
BRANCH   1   9
ATOM      9  N   UNL     1       5.052   3.457  18.833  0.00  0.00    +0.000 NA
ATOM     10  H   UNL     1       6.063   3.336  18.902  0.00  0.00    +0.000 HD
BRANCH   9  12
ATOM     11  C   UNL     1       3.480   1.234  18.655  0.00  0.00    +0.000 C 
ATOM     12  S   UNL     1       4.239   2.370  19.803  0.00  0.00    +0.000 S 
ATOM     13  O   UNL     1       3.198   3.061  20.522  0.00  0.00    +0.000 OA
ATOM     14  O   UNL     1       5.277   1.646  20.502  0.00  0.00    +0.000 OA
ENDBRANCH   9  12
ENDBRANCH   1   9
BRANCH   3  15
ATOM     15  C   UNL     1       3.344   6.538  19.346  0.00  0.00    +0.000 C 
BRANCH  15  16
ATOM     16  C   UNL     1       1.952   6.127  19.878  0.00  0.00    +0.000 C 
BRANCH  16  17
ATOM     17  O   UNL     1       1.458   7.044  20.861  0.00  0.00    +0.000 OA
BRANCH  17  18
ATOM     18  C   UNL     1       1.522   8.391  20.385  0.00  0.00    +0.000 C 
BRANCH  18  19
ATOM     19  C   UNL     1       0.616   9.332  21.147  0.00  0.00    +0.000 A 
ATOM     20  C   UNL     1       0.017  10.448  20.550  0.00  0.00    +0.000 A 
ATOM     21  C   UNL     1      -0.818  11.292  21.290  0.00  0.00    +0.000 A 
ATOM     22  C   UNL     1      -1.063  11.031  22.637  0.00  0.00    +0.000 A 
ATOM     23  C   UNL     1      -0.474   9.926  23.246  0.00  0.00    +0.000 A 
ATOM     24  C   UNL     1       0.359   9.082  22.507  0.00  0.00    +0.000 A 
ENDBRANCH  18  19
ENDBRANCH  17  18
ENDBRANCH  16  17
ENDBRANCH  15  16
ENDBRANCH   3  15
TORSDOF 8
ENDMDL
MODEL 5
REMARK VINA RESULT:      -7.0      0.430      1.092
REMARK  Name = 
REMARK  9 active torsions:
REMARK  status: ('A' for Active; 'I' for Inactive)
REMARK    1  A    between atoms: C_1  and  S_2
REMARK    2  A    between atoms: S_2  and  N_5
REMARK    3  A    between atoms: N_5  and  C_6
REMARK    4  A    between atoms: N_8  and  C_9
REMARK    5  A    between atoms: C_9  and  C_10
REMARK    6  A    between atoms: C_10  and  O_11
REMARK    7  A    between atoms: O_11  and  C_12
REMARK    8  A    between atoms: C_12  and  C_13
REMARK    9  A    between atoms: C_20  and  C_21
REMARK                            x       y       z     vdW  Elec       q    Type
REMARK                         _______ _______ _______ _____ _____    ______ ____
ROOT
ATOM      1  C   UNL     1       4.991   4.384  15.661  0.00  0.00    +0.000 C 
ATOM      2  C   UNL     1       5.358   5.843  15.962  0.00  0.00    +0.000 C 
ATOM      3  N   UNL     1       6.825   5.967  15.911  0.00  0.00    +0.000 NA
ATOM      4  C   UNL     1       7.325   4.828  15.133  0.00  0.00    +0.000 C 
ATOM      5  C   UNL     1       6.128   3.964  14.704  0.00  0.00    +0.000 C 
ENDROOT
BRANCH   5   6
ATOM      6  C   UNL     1       5.770   4.163  13.246  0.00  0.00    +0.000 C 
ATOM      7  C   UNL     1       6.318   3.221  12.199  0.00  0.00    +0.000 C 
ATOM      8  C   UNL     1       4.861   3.175  12.553  0.00  0.00    +0.000 C 
ENDBRANCH   5   6
BRANCH   1   9
ATOM      9  N   UNL     1       5.011   3.468  16.830  0.00  0.00    +0.000 NA
ATOM     10  H   UNL     1       5.257   2.497  16.636  0.00  0.00    +0.000 HD
BRANCH   9  12
ATOM     11  C   UNL     1       2.355   3.467  17.454  0.00  0.00    +0.000 C 
ATOM     12  S   UNL     1       3.994   3.588  18.147  0.00  0.00    +0.000 S 
ATOM     13  O   UNL     1       4.145   4.891  18.746  0.00  0.00    +0.000 OA
ATOM     14  O   UNL     1       4.229   2.383  18.910  0.00  0.00    +0.000 OA
ENDBRANCH   9  12
ENDBRANCH   1   9
BRANCH   3  15
ATOM     15  C   UNL     1       7.414   6.059  17.262  0.00  0.00    +0.000 C 
BRANCH  15  16
ATOM     16  C   UNL     1       7.292   7.434  17.958  0.00  0.00    +0.000 C 
BRANCH  16  17
ATOM     17  O   UNL     1       8.368   8.311  17.610  0.00  0.00    +0.000 OA
BRANCH  17  18
ATOM     18  C   UNL     1       8.028   9.675  17.876  0.00  0.00    +0.000 C 
BRANCH  18  19
ATOM     19  C   UNL     1       9.140  10.441  18.556  0.00  0.00    +0.000 A 
ATOM     20  C   UNL     1       9.226  10.568  19.949  0.00  0.00    +0.000 A 
ATOM     21  C   UNL     1      10.273  11.284  20.537  0.00  0.00    +0.000 A 
ATOM     22  C   UNL     1      11.247  11.883  19.741  0.00  0.00    +0.000 A 
ATOM     23  C   UNL     1      11.176  11.769  18.356  0.00  0.00    +0.000 A 
ATOM     24  C   UNL     1      10.131  11.053  17.767  0.00  0.00    +0.000 A 
ENDBRANCH  18  19
ENDBRANCH  17  18
ENDBRANCH  16  17
ENDBRANCH  15  16
ENDBRANCH   3  15
TORSDOF 8
ENDMDL
MODEL 6
REMARK VINA RESULT:      -6.9      4.901      6.737
REMARK  Name = 
REMARK  9 active torsions:
REMARK  status: ('A' for Active; 'I' for Inactive)
REMARK    1  A    between atoms: C_1  and  S_2
REMARK    2  A    between atoms: S_2  and  N_5
REMARK    3  A    between atoms: N_5  and  C_6
REMARK    4  A    between atoms: N_8  and  C_9
REMARK    5  A    between atoms: C_9  and  C_10
REMARK    6  A    between atoms: C_10  and  O_11
REMARK    7  A    between atoms: O_11  and  C_12
REMARK    8  A    between atoms: C_12  and  C_13
REMARK    9  A    between atoms: C_20  and  C_21
REMARK                            x       y       z     vdW  Elec       q    Type
REMARK                         _______ _______ _______ _____ _____    ______ ____
ROOT
ATOM      1  C   UNL     1       4.435   3.798  17.501  0.00  0.00    +0.000 C 
ATOM      2  C   UNL     1       3.136   4.603  17.636  0.00  0.00    +0.000 C 
ATOM      3  N   UNL     1       3.490   5.993  17.972  0.00  0.00    +0.000 NA
ATOM      4  C   UNL     1       4.889   6.188  17.573  0.00  0.00    +0.000 C 
ATOM      5  C   UNL     1       5.419   4.870  16.985  0.00  0.00    +0.000 C 
ENDROOT
BRANCH   5   6
ATOM      6  C   UNL     1       5.504   4.909  15.474  0.00  0.00    +0.000 C 
ATOM      7  C   UNL     1       6.853   4.949  14.794  0.00  0.00    +0.000 C 
ATOM      8  C   UNL     1       6.015   3.706  14.717  0.00  0.00    +0.000 C 
ENDBRANCH   5   6
BRANCH   1   9
ATOM      9  N   UNL     1       4.977   3.248  18.770  0.00  0.00    +0.000 NA
ATOM     10  H   UNL     1       5.993   3.250  18.863  0.00  0.00    +0.000 HD
BRANCH   9  12
ATOM     11  C   UNL     1       3.040   2.785  20.635  0.00  0.00    +0.000 C 
ATOM     12  S   UNL     1       4.288   1.997  19.633  0.00  0.00    +0.000 S 
ATOM     13  O   UNL     1       5.280   1.420  20.505  0.00  0.00    +0.000 OA
ATOM     14  O   UNL     1       3.604   1.194  18.645  0.00  0.00    +0.000 OA
ENDBRANCH   9  12
ENDBRANCH   1   9
BRANCH   3  15
ATOM     15  C   UNL     1       3.240   6.291  19.397  0.00  0.00    +0.000 C 
BRANCH  15  16
ATOM     16  C   UNL     1       1.876   6.946  19.718  0.00  0.00    +0.000 C 
BRANCH  16  17
ATOM     17  O   UNL     1       2.027   8.227  20.340  0.00  0.00    +0.000 OA
BRANCH  17  18
ATOM     18  C   UNL     1       1.046   9.150  19.863  0.00  0.00    +0.000 C 
BRANCH  18  19
ATOM     19  C   UNL     1       0.255   9.803  20.975  0.00  0.00    +0.000 A 
ATOM     20  C   UNL     1       0.167   9.252  22.260  0.00  0.00    +0.000 A 
ATOM     21  C   UNL     1      -0.572   9.891  23.261  0.00  0.00    +0.000 A 
ATOM     22  C   UNL     1      -1.234  11.087  22.989  0.00  0.00    +0.000 A 
ATOM     23  C   UNL     1      -1.158  11.647  21.717  0.00  0.00    +0.000 A 
ATOM     24  C   UNL     1      -0.419  11.011  20.717  0.00  0.00    +0.000 A 
ENDBRANCH  18  19
ENDBRANCH  17  18
ENDBRANCH  16  17
ENDBRANCH  15  16
ENDBRANCH   3  15
TORSDOF 8
ENDMDL
MODEL 7
REMARK VINA RESULT:      -6.8      5.137      7.418
REMARK  Name = 
REMARK  9 active torsions:
REMARK  status: ('A' for Active; 'I' for Inactive)
REMARK    1  A    between atoms: C_1  and  S_2
REMARK    2  A    between atoms: S_2  and  N_5
REMARK    3  A    between atoms: N_5  and  C_6
REMARK    4  A    between atoms: N_8  and  C_9
REMARK    5  A    between atoms: C_9  and  C_10
REMARK    6  A    between atoms: C_10  and  O_11
REMARK    7  A    between atoms: O_11  and  C_12
REMARK    8  A    between atoms: C_12  and  C_13
REMARK    9  A    between atoms: C_20  and  C_21
REMARK                            x       y       z     vdW  Elec       q    Type
REMARK                         _______ _______ _______ _____ _____    ______ ____
ROOT
ATOM      1  C   UNL     1       4.600   4.776  18.489  0.00  0.00    +0.000 C 
ATOM      2  C   UNL     1       4.185   6.075  19.191  0.00  0.00    +0.000 C 
ATOM      3  N   UNL     1       2.926   6.542  18.584  0.00  0.00    +0.000 NA
ATOM      4  C   UNL     1       2.313   5.384  17.922  0.00  0.00    +0.000 C 
ATOM      5  C   UNL     1       3.232   4.166  18.115  0.00  0.00    +0.000 C 
ENDROOT
BRANCH   5   6
ATOM      6  C   UNL     1       2.708   3.213  19.167  0.00  0.00    +0.000 C 
ATOM      7  C   UNL     1       2.014   1.937  18.752  0.00  0.00    +0.000 C 
ATOM      8  C   UNL     1       3.378   1.875  19.372  0.00  0.00    +0.000 C 
ENDBRANCH   5   6
BRANCH   1   9
ATOM      9  N   UNL     1       5.384   4.950  17.239  0.00  0.00    +0.000 NA
ATOM     10  H   UNL     1       5.008   4.497  16.406  0.00  0.00    +0.000 HD
BRANCH   9  12
ATOM     11  C   UNL     1       7.370   6.819  17.329  0.00  0.00    +0.000 C 
ATOM     12  S   UNL     1       7.046   5.071  17.170  0.00  0.00    +0.000 S 
ATOM     13  O   UNL     1       7.500   4.636  15.873  0.00  0.00    +0.000 OA
ATOM     14  O   UNL     1       7.518   4.435  18.379  0.00  0.00    +0.000 OA
ENDBRANCH   9  12
ENDBRANCH   1   9
BRANCH   3  15
ATOM     15  C   UNL     1       3.148   7.686  17.677  0.00  0.00    +0.000 C 
BRANCH  15  16
ATOM     16  C   UNL     1       2.356   8.972  18.009  0.00  0.00    +0.000 C 
BRANCH  16  17
ATOM     17  O   UNL     1       1.543   8.817  19.177  0.00  0.00    +0.000 OA
BRANCH  17  18
ATOM     18  C   UNL     1       0.525   9.819  19.233  0.00  0.00    +0.000 C 
BRANCH  18  19
ATOM     19  C   UNL     1       0.000  10.055  20.631  0.00  0.00    +0.000 A 
ATOM     20  C   UNL     1       0.129   9.106  21.654  0.00  0.00    +0.000 A 
ATOM     21  C   UNL     1      -0.368   9.366  22.935  0.00  0.00    +0.000 A 
ATOM     22  C   UNL     1      -1.001  10.577  23.210  0.00  0.00    +0.000 A 
ATOM     23  C   UNL     1      -1.139  11.529  22.205  0.00  0.00    +0.000 A 
ATOM     24  C   UNL     1      -0.642  11.271  20.925  0.00  0.00    +0.000 A 
ENDBRANCH  18  19
ENDBRANCH  17  18
ENDBRANCH  16  17
ENDBRANCH  15  16
ENDBRANCH   3  15
TORSDOF 8
ENDMDL
MODEL 8
REMARK VINA RESULT:      -6.8      0.879      1.426
REMARK  Name = 
REMARK  9 active torsions:
REMARK  status: ('A' for Active; 'I' for Inactive)
REMARK    1  A    between atoms: C_1  and  S_2
REMARK    2  A    between atoms: S_2  and  N_5
REMARK    3  A    between atoms: N_5  and  C_6
REMARK    4  A    between atoms: N_8  and  C_9
REMARK    5  A    between atoms: C_9  and  C_10
REMARK    6  A    between atoms: C_10  and  O_11
REMARK    7  A    between atoms: O_11  and  C_12
REMARK    8  A    between atoms: C_12  and  C_13
REMARK    9  A    between atoms: C_20  and  C_21
REMARK                            x       y       z     vdW  Elec       q    Type
REMARK                         _______ _______ _______ _____ _____    ______ ____
ROOT
ATOM      1  C   UNL     1       4.859   4.465  15.776  0.00  0.00    +0.000 C 
ATOM      2  C   UNL     1       4.976   5.954  16.125  0.00  0.00    +0.000 C 
ATOM      3  N   UNL     1       6.406   6.284  16.254  0.00  0.00    +0.000 NA
ATOM      4  C   UNL     1       7.153   5.242  15.539  0.00  0.00    +0.000 C 
ATOM      5  C   UNL     1       6.151   4.228  14.963  0.00  0.00    +0.000 C 
ENDROOT
BRANCH   5   6
ATOM      6  C   UNL     1       5.947   4.405  13.474  0.00  0.00    +0.000 C 
ATOM      7  C   UNL     1       6.424   3.339  12.515  0.00  0.00    +0.000 C 
ATOM      8  C   UNL     1       4.953   3.535  12.742  0.00  0.00    +0.000 C 
ENDBRANCH   5   6
BRANCH   1   9
ATOM      9  N   UNL     1       4.868   3.536  16.935  0.00  0.00    +0.000 NA
ATOM     10  H   UNL     1       5.548   2.776  16.897  0.00  0.00    +0.000 HD
BRANCH   9  12
ATOM     11  C   UNL     1       3.420   4.329  19.108  0.00  0.00    +0.000 C 
ATOM     12  S   UNL     1       3.518   3.103  17.815  0.00  0.00    +0.000 S 
ATOM     13  O   UNL     1       3.739   1.814  18.419  0.00  0.00    +0.000 OA
ATOM     14  O   UNL     1       2.403   3.330  16.923  0.00  0.00    +0.000 OA
ENDBRANCH   9  12
ENDBRANCH   1   9
BRANCH   3  15
ATOM     15  C   UNL     1       6.809   6.429  17.668  0.00  0.00    +0.000 C 
BRANCH  15  16
ATOM     16  C   UNL     1       8.186   7.089  17.911  0.00  0.00    +0.000 C 
BRANCH  16  17
ATOM     17  O   UNL     1       8.087   8.249  18.745  0.00  0.00    +0.000 OA
BRANCH  17  18
ATOM     18  C   UNL     1       8.280   9.446  17.988  0.00  0.00    +0.000 C 
BRANCH  18  19
ATOM     19  C   UNL     1       9.279  10.391  18.616  0.00  0.00    +0.000 A 
ATOM     20  C   UNL     1       9.297  10.663  19.990  0.00  0.00    +0.000 A 
ATOM     21  C   UNL     1      10.241  11.542  20.531  0.00  0.00    +0.000 A 
ATOM     22  C   UNL     1      11.178  12.160  19.706  0.00  0.00    +0.000 A 
ATOM     23  C   UNL     1      11.173  11.902  18.338  0.00  0.00    +0.000 A 
ATOM     24  C   UNL     1      10.231  11.024  17.797  0.00  0.00    +0.000 A 
ENDBRANCH  18  19
ENDBRANCH  17  18
ENDBRANCH  16  17
ENDBRANCH  15  16
ENDBRANCH   3  15
TORSDOF 8
ENDMDL
MODEL 9
REMARK VINA RESULT:      -6.8      4.823      7.090
REMARK  Name = 
REMARK  9 active torsions:
REMARK  status: ('A' for Active; 'I' for Inactive)
REMARK    1  A    between atoms: C_1  and  S_2
REMARK    2  A    between atoms: S_2  and  N_5
REMARK    3  A    between atoms: N_5  and  C_6
REMARK    4  A    between atoms: N_8  and  C_9
REMARK    5  A    between atoms: C_9  and  C_10
REMARK    6  A    between atoms: C_10  and  O_11
REMARK    7  A    between atoms: O_11  and  C_12
REMARK    8  A    between atoms: C_12  and  C_13
REMARK    9  A    between atoms: C_20  and  C_21
REMARK                            x       y       z     vdW  Elec       q    Type
REMARK                         _______ _______ _______ _____ _____    ______ ____
ROOT
ATOM      1  C   UNL     1       4.083   4.313  17.699  0.00  0.00    +0.000 C 
ATOM      2  C   UNL     1       2.730   5.034  17.751  0.00  0.00    +0.000 C 
ATOM      3  N   UNL     1       2.973   6.439  18.122  0.00  0.00    +0.000 NA
ATOM      4  C   UNL     1       4.381   6.725  17.822  0.00  0.00    +0.000 C 
ATOM      5  C   UNL     1       5.031   5.449  17.261  0.00  0.00    +0.000 C 
ENDROOT
BRANCH   5   6
ATOM      6  C   UNL     1       5.215   5.512  15.759  0.00  0.00    +0.000 C 
ATOM      7  C   UNL     1       6.556   5.178  15.149  0.00  0.00    +0.000 C 
ATOM      8  C   UNL     1       5.400   4.238  14.970  0.00  0.00    +0.000 C 
ENDBRANCH   5   6
BRANCH   1   9
ATOM      9  N   UNL     1       4.570   3.781  18.997  0.00  0.00    +0.000 NA
ATOM     10  H   UNL     1       5.548   3.968  19.221  0.00  0.00    +0.000 HD
BRANCH   9  12
ATOM     11  C   UNL     1       2.727   2.871  20.791  0.00  0.00    +0.000 C 
ATOM     12  S   UNL     1       4.044   2.362  19.701  0.00  0.00    +0.000 S 
ATOM     13  O   UNL     1       5.109   1.803  20.495  0.00  0.00    +0.000 OA
ATOM     14  O   UNL     1       3.443   1.612  18.621  0.00  0.00    +0.000 OA
ENDBRANCH   9  12
ENDBRANCH   1   9
BRANCH   3  15
ATOM     15  C   UNL     1       2.608   6.704  19.529  0.00  0.00    +0.000 C 
BRANCH  15  16
ATOM     16  C   UNL     1       1.756   7.970  19.776  0.00  0.00    +0.000 C 
BRANCH  16  17
ATOM     17  O   UNL     1       1.632   8.774  18.598  0.00  0.00    +0.000 OA
BRANCH  17  18
ATOM     18  C   UNL     1       1.255  10.114  18.926  0.00  0.00    +0.000 C 
BRANCH  18  19
ATOM     19  C   UNL     1      -0.148  10.461  18.479  0.00  0.00    +0.000 A 
ATOM     20  C   UNL     1      -0.891   9.639  17.622  0.00  0.00    +0.000 A 
ATOM     21  C   UNL     1      -2.186   9.997  17.236  0.00  0.00    +0.000 A 
ATOM     22  C   UNL     1      -2.755  11.181  17.701  0.00  0.00    +0.000 A 
ATOM     23  C   UNL     1      -2.030  12.011  18.551  0.00  0.00    +0.000 A 
ATOM     24  C   UNL     1      -0.736  11.654  18.939  0.00  0.00    +0.000 A 
ENDBRANCH  18  19
ENDBRANCH  17  18
ENDBRANCH  16  17
ENDBRANCH  15  16
ENDBRANCH   3  15
TORSDOF 8
ENDMDL
