MODEL 1
REMARK VINA RESULT:      -6.0      0.000      0.000
REMARK  Name = 
REMARK  5 active torsions:
REMARK  status: ('A' for Active; 'I' for Inactive)
REMARK    1  A    between atoms: C_1  and  O_2
REMARK    2  A    between atoms: O_2  and  C_3
REMARK    3  A    between atoms: C_3  and  C_6
REMARK    4  A    between atoms: C_6  and  C_8
REMARK    5  A    between atoms: C_6  and  C_12
REMARK                            x       y       z     vdW  Elec       q    Type
REMARK                         _______ _______ _______ _____ _____    ______ ____
ROOT
ATOM      1  C   UNL     1       2.215   3.548  19.351  0.00  0.00    +0.000 C 
ATOM      2  F   UNL     1       3.533   3.316  19.697  0.00  0.00    +0.000 F 
ENDROOT
BRANCH   1   3
ATOM      3  C   UNL     1       1.459   3.972  20.583  0.00  0.00    +0.000 C 
ATOM      4  F   UNL     1       0.330   4.665  20.320  0.00  0.00    +0.000 F 
ATOM      5  F   UNL     1       1.101   2.977  21.418  0.00  0.00    +0.000 F 
ATOM      6  F   UNL     1       2.233   4.804  21.334  0.00  0.00    +0.000 F 
ENDBRANCH   1   3
BRANCH   1   7
ATOM      7  C   UNL     1       1.652   2.317  18.704  0.00  0.00    +0.000 C 
ATOM      8  F   UNL     1       2.138   2.073  17.463  0.00  0.00    +0.000 F 
ATOM      9  F   UNL     1       1.970   1.216  19.442  0.00  0.00    +0.000 F 
ATOM     10  F   UNL     1       0.312   2.282  18.584  0.00  0.00    +0.000 F 
ENDBRANCH   1   7
BRANCH   1  11
ATOM     11  C   UNL     1       2.177   4.678  18.366  0.00  0.00    +0.000 C 
ATOM     12  F   UNL     1       2.095   5.874  19.002  0.00  0.00    +0.000 F 
ATOM     13  F   UNL     1       1.087   4.580  17.564  0.00  0.00    +0.000 F 
BRANCH  11  15
ATOM     14  C   UNL     1       4.012   5.979  17.649  0.00  0.00    +0.000 C 
ATOM     15  O   UNL     1       3.336   4.732  17.538  0.00  0.00    +0.000 OA
ENDBRANCH  11  15
ENDBRANCH   1  11
TORSDOF 4
ENDMDL
MODEL 2
REMARK VINA RESULT:      -6.0      1.131      1.683
REMARK  Name = 
REMARK  5 active torsions:
REMARK  status: ('A' for Active; 'I' for Inactive)
REMARK    1  A    between atoms: C_1  and  O_2
REMARK    2  A    between atoms: O_2  and  C_3
REMARK    3  A    between atoms: C_3  and  C_6
REMARK    4  A    between atoms: C_6  and  C_8
REMARK    5  A    between atoms: C_6  and  C_12
REMARK                            x       y       z     vdW  Elec       q    Type
REMARK                         _______ _______ _______ _____ _____    ______ ____
ROOT
ATOM      1  C   UNL     1       2.400   3.623  19.400  0.00  0.00    +0.000 C 
ATOM      2  F   UNL     1       3.356   2.667  19.687  0.00  0.00    +0.000 F 
ENDROOT
BRANCH   1   3
ATOM      3  C   UNL     1       1.608   3.906  20.650  0.00  0.00    +0.000 C 
ATOM      4  F   UNL     1       2.272   4.648  21.561  0.00  0.00    +0.000 F 
ATOM      5  F   UNL     1       0.422   4.519  20.462  0.00  0.00    +0.000 F 
ATOM      6  F   UNL     1       1.308   2.736  21.278  0.00  0.00    +0.000 F 
ENDBRANCH   1   3
BRANCH   1   7
ATOM      7  C   UNL     1       1.554   3.144  18.257  0.00  0.00    +0.000 C 
ATOM      8  F   UNL     1       2.225   2.401  17.345  0.00  0.00    +0.000 F 
ATOM      9  F   UNL     1       0.557   2.338  18.721  0.00  0.00    +0.000 F 
ATOM     10  F   UNL     1       0.926   4.105  17.553  0.00  0.00    +0.000 F 
ENDBRANCH   1   7
BRANCH   1  11
ATOM     11  C   UNL     1       3.100   4.885  18.992  0.00  0.00    +0.000 C 
ATOM     12  F   UNL     1       2.261   5.951  19.067  0.00  0.00    +0.000 F 
ATOM     13  F   UNL     1       3.525   4.806  17.707  0.00  0.00    +0.000 F 
BRANCH  11  15
ATOM     14  C   UNL     1       5.437   5.202  19.075  0.00  0.00    +0.000 C 
ATOM     15  O   UNL     1       4.223   5.188  19.816  0.00  0.00    +0.000 OA
ENDBRANCH  11  15
ENDBRANCH   1  11
TORSDOF 4
ENDMDL
MODEL 3
REMARK VINA RESULT:      -6.0      1.144      3.229
REMARK  Name = 
REMARK  5 active torsions:
REMARK  status: ('A' for Active; 'I' for Inactive)
REMARK    1  A    between atoms: C_1  and  O_2
REMARK    2  A    between atoms: O_2  and  C_3
REMARK    3  A    between atoms: C_3  and  C_6
REMARK    4  A    between atoms: C_6  and  C_8
REMARK    5  A    between atoms: C_6  and  C_12
REMARK                            x       y       z     vdW  Elec       q    Type
REMARK                         _______ _______ _______ _____ _____    ______ ____
ROOT
ATOM      1  C   UNL     1       2.251   3.772  19.214  0.00  0.00    +0.000 C 
ATOM      2  F   UNL     1       1.899   4.872  18.454  0.00  0.00    +0.000 F 
ENDROOT
BRANCH   1   3
ATOM      3  C   UNL     1       1.862   2.524  18.465  0.00  0.00    +0.000 C 
ATOM      4  F   UNL     1       2.169   2.557  17.150  0.00  0.00    +0.000 F 
ATOM      5  F   UNL     1       2.382   1.374  18.941  0.00  0.00    +0.000 F 
ATOM      6  F   UNL     1       0.513   2.355  18.523  0.00  0.00    +0.000 F 
ENDBRANCH   1   3
BRANCH   1   7
ATOM      7  C   UNL     1       1.606   3.880  20.564  0.00  0.00    +0.000 C 
ATOM      8  F   UNL     1       2.256   4.699  21.424  0.00  0.00    +0.000 F 
ATOM      9  F   UNL     1       0.352   4.401  20.440  0.00  0.00    +0.000 F 
ATOM     10  F   UNL     1       1.437   2.719  21.224  0.00  0.00    +0.000 F 
ENDBRANCH   1   7
BRANCH   1  11
ATOM     11  C   UNL     1       3.741   3.772  19.384  0.00  0.00    +0.000 C 
ATOM     12  F   UNL     1       4.357   3.305  18.268  0.00  0.00    +0.000 F 
ATOM     13  F   UNL     1       4.108   2.961  20.407  0.00  0.00    +0.000 F 
BRANCH  11  15
ATOM     14  C   UNL     1       5.608   5.199  19.161  0.00  0.00    +0.000 C 
ATOM     15  O   UNL     1       4.272   5.071  19.632  0.00  0.00    +0.000 OA
ENDBRANCH  11  15
ENDBRANCH   1  11
TORSDOF 4
ENDMDL
MODEL 4
REMARK VINA RESULT:      -6.0      1.105      1.880
REMARK  Name = 
REMARK  5 active torsions:
REMARK  status: ('A' for Active; 'I' for Inactive)
REMARK    1  A    between atoms: C_1  and  O_2
REMARK    2  A    between atoms: O_2  and  C_3
REMARK    3  A    between atoms: C_3  and  C_6
REMARK    4  A    between atoms: C_6  and  C_8
REMARK    5  A    between atoms: C_6  and  C_12
REMARK                            x       y       z     vdW  Elec       q    Type
REMARK                         _______ _______ _______ _____ _____    ______ ____
ROOT
ATOM      1  C   UNL     1       2.402   3.472  19.469  0.00  0.00    +0.000 C 
ATOM      2  F   UNL     1       3.395   2.565  19.788  0.00  0.00    +0.000 F 
ENDROOT
BRANCH   1   3
ATOM      3  C   UNL     1       1.617   3.787  20.716  0.00  0.00    +0.000 C 
ATOM      4  F   UNL     1       1.284   2.698  21.443  0.00  0.00    +0.000 F 
ATOM      5  F   UNL     1       2.206   4.643  21.575  0.00  0.00    +0.000 F 
ATOM      6  F   UNL     1       0.437   4.377  20.379  0.00  0.00    +0.000 F 
ENDBRANCH   1   3
BRANCH   1   7
ATOM      7  C   UNL     1       1.558   2.910  18.363  0.00  0.00    +0.000 C 
ATOM      8  F   UNL     1       0.522   2.150  18.789  0.00  0.00    +0.000 F 
ATOM      9  F   UNL     1       0.996   3.925  17.645  0.00  0.00    +0.000 F 
ATOM     10  F   UNL     1       2.211   2.160  17.455  0.00  0.00    +0.000 F 
ENDBRANCH   1   7
BRANCH   1  11
ATOM     11  C   UNL     1       3.052   4.736  18.993  0.00  0.00    +0.000 C 
ATOM     12  F   UNL     1       2.196   5.787  19.087  0.00  0.00    +0.000 F 
ATOM     13  F   UNL     1       3.407   4.632  17.688  0.00  0.00    +0.000 F 
BRANCH  11  15
ATOM     14  C   UNL     1       5.384   5.099  18.938  0.00  0.00    +0.000 C 
ATOM     15  O   UNL     1       4.212   5.082  19.744  0.00  0.00    +0.000 OA
ENDBRANCH  11  15
ENDBRANCH   1  11
TORSDOF 4
ENDMDL
MODEL 5
REMARK VINA RESULT:      -5.9      1.605      3.207
REMARK  Name = 
REMARK  5 active torsions:
REMARK  status: ('A' for Active; 'I' for Inactive)
REMARK    1  A    between atoms: C_1  and  O_2
REMARK    2  A    between atoms: O_2  and  C_3
REMARK    3  A    between atoms: C_3  and  C_6
REMARK    4  A    between atoms: C_6  and  C_8
REMARK    5  A    between atoms: C_6  and  C_12
REMARK                            x       y       z     vdW  Elec       q    Type
REMARK                         _______ _______ _______ _____ _____    ______ ____
ROOT
ATOM      1  C   UNL     1       1.966   3.989  18.398  0.00  0.00    +0.000 C 
ATOM      2  F   UNL     1       1.098   4.495  17.449  0.00  0.00    +0.000 F 
ENDROOT
BRANCH   1   3
ATOM      3  C   UNL     1       2.662   5.139  19.080  0.00  0.00    +0.000 C 
ATOM      4  F   UNL     1       1.819   6.070  19.575  0.00  0.00    +0.000 F 
ATOM      5  F   UNL     1       3.486   4.803  20.092  0.00  0.00    +0.000 F 
ATOM      6  F   UNL     1       3.449   5.796  18.183  0.00  0.00    +0.000 F 
ENDBRANCH   1   3
BRANCH   1   7
ATOM      7  C   UNL     1       2.912   3.030  17.737  0.00  0.00    +0.000 C 
ATOM      8  F   UNL     1       2.355   1.840  17.410  0.00  0.00    +0.000 F 
ATOM      9  F   UNL     1       3.364   3.556  16.563  0.00  0.00    +0.000 F 
ATOM     10  F   UNL     1       4.024   2.732  18.436  0.00  0.00    +0.000 F 
ENDBRANCH   1   7
BRANCH   1  11
ATOM     11  C   UNL     1       1.164   3.250  19.427  0.00  0.00    +0.000 C 
ATOM     12  F   UNL     1       0.264   2.421  18.838  0.00  0.00    +0.000 F 
ATOM     13  F   UNL     1       0.459   4.114  20.199  0.00  0.00    +0.000 F 
BRANCH  11  15
ATOM     14  C   UNL     1       1.614   2.601  21.652  0.00  0.00    +0.000 C 
ATOM     15  O   UNL     1       1.967   2.442  20.283  0.00  0.00    +0.000 OA
ENDBRANCH  11  15
ENDBRANCH   1  11
TORSDOF 4
ENDMDL
MODEL 6
REMARK VINA RESULT:      -5.9      0.934      1.783
REMARK  Name = 
REMARK  5 active torsions:
REMARK  status: ('A' for Active; 'I' for Inactive)
REMARK    1  A    between atoms: C_1  and  O_2
REMARK    2  A    between atoms: O_2  and  C_3
REMARK    3  A    between atoms: C_3  and  C_6
REMARK    4  A    between atoms: C_6  and  C_8
REMARK    5  A    between atoms: C_6  and  C_12
REMARK                            x       y       z     vdW  Elec       q    Type
REMARK                         _______ _______ _______ _____ _____    ______ ____
ROOT
ATOM      1  C   UNL     1       2.463   3.491  19.070  0.00  0.00    +0.000 C 
ATOM      2  F   UNL     1       3.358   3.805  20.075  0.00  0.00    +0.000 F 
ENDROOT
BRANCH   1   3
ATOM      3  C   UNL     1       1.163   3.059  19.697  0.00  0.00    +0.000 C 
ATOM      4  F   UNL     1       0.438   4.078  20.206  0.00  0.00    +0.000 F 
ATOM      5  F   UNL     1       0.328   2.371  18.893  0.00  0.00    +0.000 F 
ATOM      6  F   UNL     1       1.413   2.228  20.746  0.00  0.00    +0.000 F 
ENDBRANCH   1   3
BRANCH   1   7
ATOM      7  C   UNL     1       3.069   2.445  18.180  0.00  0.00    +0.000 C 
ATOM      8  F   UNL     1       3.092   1.204  18.722  0.00  0.00    +0.000 F 
ATOM      9  F   UNL     1       2.338   2.328  17.035  0.00  0.00    +0.000 F 
ATOM     10  F   UNL     1       4.328   2.687  17.768  0.00  0.00    +0.000 F 
ENDBRANCH   1   7
BRANCH   1  11
ATOM     11  C   UNL     1       2.206   4.727  18.261  0.00  0.00    +0.000 C 
ATOM     12  F   UNL     1       1.954   5.790  19.068  0.00  0.00    +0.000 F 
ATOM     13  F   UNL     1       1.118   4.566  17.468  0.00  0.00    +0.000 F 
BRANCH  11  15
ATOM     14  C   UNL     1       3.875   6.338  17.822  0.00  0.00    +0.000 C 
ATOM     15  O   UNL     1       3.309   5.091  17.436  0.00  0.00    +0.000 OA
ENDBRANCH  11  15
ENDBRANCH   1  11
TORSDOF 4
ENDMDL
MODEL 7
REMARK VINA RESULT:      -5.9      1.312      2.745
REMARK  Name = 
REMARK  5 active torsions:
REMARK  status: ('A' for Active; 'I' for Inactive)
REMARK    1  A    between atoms: C_1  and  O_2
REMARK    2  A    between atoms: O_2  and  C_3
REMARK    3  A    between atoms: C_3  and  C_6
REMARK    4  A    between atoms: C_6  and  C_8
REMARK    5  A    between atoms: C_6  and  C_12
REMARK                            x       y       z     vdW  Elec       q    Type
REMARK                         _______ _______ _______ _____ _____    ______ ____
ROOT
ATOM      1  C   UNL     1       2.302   3.226  18.954  0.00  0.00    +0.000 C 
ATOM      2  F   UNL     1       2.469   1.967  18.408  0.00  0.00    +0.000 F 
ENDROOT
BRANCH   1   3
ATOM      3  C   UNL     1       1.144   3.186  19.917  0.00  0.00    +0.000 C 
ATOM      4  F   UNL     1       1.415   2.541  21.072  0.00  0.00    +0.000 F 
ATOM      5  F   UNL     1       0.637   4.385  20.267  0.00  0.00    +0.000 F 
ATOM      6  F   UNL     1       0.103   2.510  19.355  0.00  0.00    +0.000 F 
ENDBRANCH   1   3
BRANCH   1   7
ATOM      7  C   UNL     1       2.121   4.222  17.847  0.00  0.00    +0.000 C 
ATOM      8  F   UNL     1       2.432   5.494  18.191  0.00  0.00    +0.000 F 
ATOM      9  F   UNL     1       2.944   3.914  16.804  0.00  0.00    +0.000 F 
ATOM     10  F   UNL     1       0.887   4.281  17.311  0.00  0.00    +0.000 F 
ENDBRANCH   1   7
BRANCH   1  11
ATOM     11  C   UNL     1       3.540   3.574  19.725  0.00  0.00    +0.000 C 
ATOM     12  F   UNL     1       3.853   2.594  20.610  0.00  0.00    +0.000 F 
ATOM     13  F   UNL     1       3.356   4.710  20.442  0.00  0.00    +0.000 F 
BRANCH  11  15
ATOM     14  C   UNL     1       5.464   4.872  19.292  0.00  0.00    +0.000 C 
ATOM     15  O   UNL     1       4.682   3.754  18.891  0.00  0.00    +0.000 OA
ENDBRANCH  11  15
ENDBRANCH   1  11
TORSDOF 4
ENDMDL
MODEL 8
REMARK VINA RESULT:      -5.9      0.909      1.697
REMARK  Name = 
REMARK  5 active torsions:
REMARK  status: ('A' for Active; 'I' for Inactive)
REMARK    1  A    between atoms: C_1  and  O_2
REMARK    2  A    between atoms: O_2  and  C_3
REMARK    3  A    between atoms: C_3  and  C_6
REMARK    4  A    between atoms: C_6  and  C_8
REMARK    5  A    between atoms: C_6  and  C_12
REMARK                            x       y       z     vdW  Elec       q    Type
REMARK                         _______ _______ _______ _____ _____    ______ ____
ROOT
ATOM      1  C   UNL     1       2.476   3.478  19.063  0.00  0.00    +0.000 C 
ATOM      2  F   UNL     1       3.415   3.791  20.027  0.00  0.00    +0.000 F 
ENDROOT
BRANCH   1   3
ATOM      3  C   UNL     1       1.193   3.083  19.748  0.00  0.00    +0.000 C 
ATOM      4  F   UNL     1       1.369   2.262  20.806  0.00  0.00    +0.000 F 
ATOM      5  F   UNL     1       0.430   4.103  20.189  0.00  0.00    +0.000 F 
ATOM      6  F   UNL     1       0.401   2.396  18.879  0.00  0.00    +0.000 F 
ENDBRANCH   1   3
BRANCH   1   7
ATOM      7  C   UNL     1       3.026   2.405  18.170  0.00  0.00    +0.000 C 
ATOM      8  F   UNL     1       4.306   2.614  17.778  0.00  0.00    +0.000 F 
ATOM      9  F   UNL     1       3.036   1.211  18.828  0.00  0.00    +0.000 F 
ATOM     10  F   UNL     1       2.332   2.174  17.039  0.00  0.00    +0.000 F 
ENDBRANCH   1   7
BRANCH   1  11
ATOM     11  C   UNL     1       2.211   4.705  18.244  0.00  0.00    +0.000 C 
ATOM     12  F   UNL     1       1.951   5.774  19.041  0.00  0.00    +0.000 F 
ATOM     13  F   UNL     1       1.124   4.530  17.452  0.00  0.00    +0.000 F 
BRANCH  11  15
ATOM     14  C   UNL     1       3.837   6.346  17.759  0.00  0.00    +0.000 C 
ATOM     15  O   UNL     1       3.312   5.069  17.416  0.00  0.00    +0.000 OA
ENDBRANCH  11  15
ENDBRANCH   1  11
TORSDOF 4
ENDMDL
MODEL 9
REMARK VINA RESULT:      -5.9      1.181      2.325
REMARK  Name = 
REMARK  5 active torsions:
REMARK  status: ('A' for Active; 'I' for Inactive)
REMARK    1  A    between atoms: C_1  and  O_2
REMARK    2  A    between atoms: O_2  and  C_3
REMARK    3  A    between atoms: C_3  and  C_6
REMARK    4  A    between atoms: C_6  and  C_8
REMARK    5  A    between atoms: C_6  and  C_12
REMARK                            x       y       z     vdW  Elec       q    Type
REMARK                         _______ _______ _______ _____ _____    ______ ____
ROOT
ATOM      1  C   UNL     1       2.384   2.908  19.709  0.00  0.00    +0.000 C 
ATOM      2  F   UNL     1       2.608   1.657  19.167  0.00  0.00    +0.000 F 
ENDROOT
BRANCH   1   3
ATOM      3  C   UNL     1       2.509   2.816  21.208  0.00  0.00    +0.000 C 
ATOM      4  F   UNL     1       3.589   2.120  21.624  0.00  0.00    +0.000 F 
ATOM      5  F   UNL     1       2.549   3.994  21.862  0.00  0.00    +0.000 F 
ATOM      6  F   UNL     1       1.431   2.161  21.719  0.00  0.00    +0.000 F 
ENDBRANCH   1   3
BRANCH   1   7
ATOM      7  C   UNL     1       1.045   3.408  19.255  0.00  0.00    +0.000 C 
ATOM      8  F   UNL     1       1.073   4.070  18.073  0.00  0.00    +0.000 F 
ATOM      9  F   UNL     1       0.196   2.358  19.064  0.00  0.00    +0.000 F 
ATOM     10  F   UNL     1       0.404   4.223  20.114  0.00  0.00    +0.000 F 
ENDBRANCH   1   7
BRANCH   1  11
ATOM     11  C   UNL     1       3.447   3.838  19.206  0.00  0.00    +0.000 C 
ATOM     12  F   UNL     1       4.627   3.615  19.840  0.00  0.00    +0.000 F 
ATOM     13  F   UNL     1       3.109   5.130  19.445  0.00  0.00    +0.000 F 
BRANCH  11  15
ATOM     14  C   UNL     1       4.192   4.895  17.231  0.00  0.00    +0.000 C 
ATOM     15  O   UNL     1       3.698   3.694  17.811  0.00  0.00    +0.000 OA
ENDBRANCH  11  15
ENDBRANCH   1  11
TORSDOF 4
ENDMDL
