MODEL 1
REMARK VINA RESULT:      -7.5      0.000      0.000
REMARK  Name = 
REMARK  5 active torsions:
REMARK  status: ('A' for Active; 'I' for Inactive)
REMARK    1  A    between atoms: C_1  and  O_2
REMARK    2  A    between atoms: O_2  and  C_3
REMARK    3  A    between atoms: C_7  and  C_8
REMARK    4  A    between atoms: N_12  and  N_13
REMARK    5  A    between atoms: C_14  and  C_15
REMARK                            x       y       z     vdW  Elec       q    Type
REMARK                         _______ _______ _______ _____ _____    ______ ____
ROOT
ATOM      1  C   UNL     1       6.782   5.238  15.891  0.00  0.00    +0.000 A 
ATOM      2  C   UNL     1       6.010   4.588  16.837  0.00  0.00    +0.000 A 
ATOM      3  S   UNL     1       6.271   5.297  18.377  0.00  0.00    +0.000 S 
ATOM      4  C   UNL     1       7.374   6.422  17.673  0.00  0.00    +0.000 A 
ATOM      5  N   UNL     1       7.959   7.382  18.435  0.00  0.00    +0.000 N 
ATOM      6  N   UNL     1       7.558   6.269  16.379  0.00  0.00    +0.000 NA
ATOM      7  H   UNL     1       8.014   7.220  19.436  0.00  0.00    +0.000 HD
ENDROOT
BRANCH   1  12
ATOM      8  C   UNL     1       6.067   3.474  12.657  0.00  0.00    +0.000 A 
ATOM      9  C   UNL     1       6.996   4.090  11.813  0.00  0.00    +0.000 A 
ATOM     10  C   UNL     1       7.833   5.096  12.292  0.00  0.00    +0.000 A 
ATOM     11  C   UNL     1       7.748   5.494  13.627  0.00  0.00    +0.000 A 
ATOM     12  C   UNL     1       6.820   4.885  14.483  0.00  0.00    +0.000 A 
ATOM     13  C   UNL     1       5.982   3.879  13.987  0.00  0.00    +0.000 A 
BRANCH   8  15
ATOM     14  C   UNL     1       6.054   1.540  11.279  0.00  0.00    +0.000 C 
ATOM     15  O   UNL     1       5.338   2.469  12.086  0.00  0.00    +0.000 OA
ENDBRANCH   8  15
ENDBRANCH   1  12
BRANCH   5  16
ATOM     16  N   UNL     1       8.337   8.578  17.911  0.00  0.00    +0.000 NA
ATOM     17  C   UNL     1       8.773   9.470  18.720  0.00  0.00    +0.000 C 
BRANCH  17  18
ATOM     18  C   UNL     1       9.240  10.772  18.207  0.00  0.00    +0.000 A 
ATOM     19  C   UNL     1      10.607  11.002  18.046  0.00  0.00    +0.000 A 
ATOM     20  C   UNL     1      10.999  12.254  17.616  0.00  0.00    +0.000 A 
ATOM     21  N   UNL     1      10.136  13.258  17.353  0.00  0.00    +0.000 NA
ATOM     22  C   UNL     1       8.819  13.001  17.525  0.00  0.00    +0.000 A 
ATOM     23  C   UNL     1       8.322  11.779  17.940  0.00  0.00    +0.000 A 
ENDBRANCH  17  18
ENDBRANCH   5  16
TORSDOF 4
ENDMDL
MODEL 2
REMARK VINA RESULT:      -7.5      5.794      7.054
REMARK  Name = 
REMARK  5 active torsions:
REMARK  status: ('A' for Active; 'I' for Inactive)
REMARK    1  A    between atoms: C_1  and  O_2
REMARK    2  A    between atoms: O_2  and  C_3
REMARK    3  A    between atoms: C_7  and  C_8
REMARK    4  A    between atoms: N_12  and  N_13
REMARK    5  A    between atoms: C_14  and  C_15
REMARK                            x       y       z     vdW  Elec       q    Type
REMARK                         _______ _______ _______ _____ _____    ______ ____
ROOT
ATOM      1  C   UNL     1       3.925   4.623  18.622  0.00  0.00    +0.000 A 
ATOM      2  C   UNL     1       3.351   3.433  19.031  0.00  0.00    +0.000 A 
ATOM      3  S   UNL     1       2.208   3.744  20.272  0.00  0.00    +0.000 S 
ATOM      4  C   UNL     1       2.547   5.433  20.162  0.00  0.00    +0.000 A 
ATOM      5  N   UNL     1       1.871   6.323  20.934  0.00  0.00    +0.000 N 
ATOM      6  N   UNL     1       3.468   5.748  19.277  0.00  0.00    +0.000 NA
ATOM      7  H   UNL     1       1.439   5.975  21.785  0.00  0.00    +0.000 HD
ENDROOT
BRANCH   1  12
ATOM      8  C   UNL     1       6.823   5.922  16.623  0.00  0.00    +0.000 A 
ATOM      9  C   UNL     1       6.820   5.028  15.548  0.00  0.00    +0.000 A 
ATOM     10  C   UNL     1       5.892   3.989  15.491  0.00  0.00    +0.000 A 
ATOM     11  C   UNL     1       4.955   3.837  16.513  0.00  0.00    +0.000 A 
ATOM     12  C   UNL     1       4.949   4.727  17.597  0.00  0.00    +0.000 A 
ATOM     13  C   UNL     1       5.889   5.763  17.644  0.00  0.00    +0.000 A 
BRANCH   8  15
ATOM     14  C   UNL     1       7.721   7.901  17.580  0.00  0.00    +0.000 C 
ATOM     15  O   UNL     1       7.746   6.927  16.542  0.00  0.00    +0.000 OA
ENDBRANCH   8  15
ENDBRANCH   1  12
BRANCH   5  16
ATOM     16  N   UNL     1       1.655   7.602  20.527  0.00  0.00    +0.000 NA
ATOM     17  C   UNL     1       0.867   8.324  21.231  0.00  0.00    +0.000 C 
BRANCH  17  18
ATOM     18  C   UNL     1       0.628   9.734  20.866  0.00  0.00    +0.000 A 
ATOM     19  C   UNL     1       0.091  10.611  21.809  0.00  0.00    +0.000 A 
ATOM     20  C   UNL     1      -0.167  11.906  21.405  0.00  0.00    +0.000 A 
ATOM     21  N   UNL     1       0.067  12.359  20.154  0.00  0.00    +0.000 NA
ATOM     22  C   UNL     1       0.583  11.480  19.266  0.00  0.00    +0.000 A 
ATOM     23  C   UNL     1       0.887  10.165  19.573  0.00  0.00    +0.000 A 
ENDBRANCH  17  18
ENDBRANCH   5  16
TORSDOF 4
ENDMDL
MODEL 3
REMARK VINA RESULT:      -7.5      5.782      7.024
REMARK  Name = 
REMARK  5 active torsions:
REMARK  status: ('A' for Active; 'I' for Inactive)
REMARK    1  A    between atoms: C_1  and  O_2
REMARK    2  A    between atoms: O_2  and  C_3
REMARK    3  A    between atoms: C_7  and  C_8
REMARK    4  A    between atoms: N_12  and  N_13
REMARK    5  A    between atoms: C_14  and  C_15
REMARK                            x       y       z     vdW  Elec       q    Type
REMARK                         _______ _______ _______ _____ _____    ______ ____
ROOT
ATOM      1  C   UNL     1       3.958   4.618  18.672  0.00  0.00    +0.000 A 
ATOM      2  C   UNL     1       3.415   3.423  19.108  0.00  0.00    +0.000 A 
ATOM      3  S   UNL     1       2.279   3.730  20.356  0.00  0.00    +0.000 S 
ATOM      4  C   UNL     1       2.579   5.424  20.213  0.00  0.00    +0.000 A 
ATOM      5  N   UNL     1       1.893   6.312  20.978  0.00  0.00    +0.000 N 
ATOM      6  N   UNL     1       3.483   5.744  19.312  0.00  0.00    +0.000 NA
ATOM      7  H   UNL     1       1.478   5.970  21.840  0.00  0.00    +0.000 HD
ENDROOT
BRANCH   1  12
ATOM      8  C   UNL     1       6.832   5.924  16.642  0.00  0.00    +0.000 A 
ATOM      9  C   UNL     1       6.811   5.039  15.560  0.00  0.00    +0.000 A 
ATOM     10  C   UNL     1       5.878   4.003  15.508  0.00  0.00    +0.000 A 
ATOM     11  C   UNL     1       4.956   3.846  16.542  0.00  0.00    +0.000 A 
ATOM     12  C   UNL     1       4.967   4.727  17.633  0.00  0.00    +0.000 A 
ATOM     13  C   UNL     1       5.912   5.760  17.675  0.00  0.00    +0.000 A 
BRANCH   8  15
ATOM     14  C   UNL     1       7.722   7.916  17.579  0.00  0.00    +0.000 C 
ATOM     15  O   UNL     1       7.757   6.927  16.557  0.00  0.00    +0.000 OA
ENDBRANCH   8  15
ENDBRANCH   1  12
BRANCH   5  16
ATOM     16  N   UNL     1       1.643   7.579  20.551  0.00  0.00    +0.000 NA
ATOM     17  C   UNL     1       0.857   8.300  21.260  0.00  0.00    +0.000 C 
BRANCH  17  18
ATOM     18  C   UNL     1       0.584   9.698  20.874  0.00  0.00    +0.000 A 
ATOM     19  C   UNL     1       0.887  10.130  19.583  0.00  0.00    +0.000 A 
ATOM     20  C   UNL     1       0.666  11.461  19.284  0.00  0.00    +0.000 A 
ATOM     21  N   UNL     1       0.182  12.354  20.173  0.00  0.00    +0.000 NA
ATOM     22  C   UNL     1      -0.096  11.901  21.416  0.00  0.00    +0.000 A 
ATOM     23  C   UNL     1       0.078  10.587  21.812  0.00  0.00    +0.000 A 
ENDBRANCH  17  18
ENDBRANCH   5  16
TORSDOF 4
ENDMDL
MODEL 4
REMARK VINA RESULT:      -7.4      0.543      1.135
REMARK  Name = 
REMARK  5 active torsions:
REMARK  status: ('A' for Active; 'I' for Inactive)
REMARK    1  A    between atoms: C_1  and  O_2
REMARK    2  A    between atoms: O_2  and  C_3
REMARK    3  A    between atoms: C_7  and  C_8
REMARK    4  A    between atoms: N_12  and  N_13
REMARK    5  A    between atoms: C_14  and  C_15
REMARK                            x       y       z     vdW  Elec       q    Type
REMARK                         _______ _______ _______ _____ _____    ______ ____
ROOT
ATOM      1  C   UNL     1       6.899   5.304  16.124  0.00  0.00    +0.000 A 
ATOM      2  C   UNL     1       6.193   4.604  17.086  0.00  0.00    +0.000 A 
ATOM      3  S   UNL     1       6.489   5.292  18.629  0.00  0.00    +0.000 S 
ATOM      4  C   UNL     1       7.517   6.475  17.906  0.00  0.00    +0.000 A 
ATOM      5  N   UNL     1       8.094   7.442  18.664  0.00  0.00    +0.000 N 
ATOM      6  N   UNL     1       7.652   6.356  16.602  0.00  0.00    +0.000 NA
ATOM      7  H   UNL     1       8.197   7.263  19.658  0.00  0.00    +0.000 HD
ENDROOT
BRANCH   1  12
ATOM      8  C   UNL     1       6.072   3.619  12.874  0.00  0.00    +0.000 A 
ATOM      9  C   UNL     1       6.982   4.244  12.017  0.00  0.00    +0.000 A 
ATOM     10  C   UNL     1       7.843   5.232  12.493  0.00  0.00    +0.000 A 
ATOM     11  C   UNL     1       7.800   5.602  13.838  0.00  0.00    +0.000 A 
ATOM     12  C   UNL     1       6.892   4.982  14.708  0.00  0.00    +0.000 A 
ATOM     13  C   UNL     1       6.030   3.995  14.215  0.00  0.00    +0.000 A 
BRANCH   8  15
ATOM     14  C   UNL     1       4.391   3.037  11.301  0.00  0.00    +0.000 C 
ATOM     15  O   UNL     1       5.317   2.633  12.304  0.00  0.00    +0.000 OA
ENDBRANCH   8  15
ENDBRANCH   1  12
BRANCH   5  16
ATOM     16  N   UNL     1       8.401   8.664  18.152  0.00  0.00    +0.000 NA
ATOM     17  C   UNL     1       8.974   9.507  18.927  0.00  0.00    +0.000 C 
BRANCH  17  18
ATOM     18  C   UNL     1       9.373  10.832  18.417  0.00  0.00    +0.000 A 
ATOM     19  C   UNL     1       8.405  11.695  17.902  0.00  0.00    +0.000 A 
ATOM     20  C   UNL     1       8.833  12.902  17.384  0.00  0.00    +0.000 A 
ATOM     21  N   UNL     1      10.129  13.280  17.346  0.00  0.00    +0.000 NA
ATOM     22  C   UNL     1      11.040  12.416  17.849  0.00  0.00    +0.000 A 
ATOM     23  C   UNL     1      10.714  11.190  18.400  0.00  0.00    +0.000 A 
ENDBRANCH  17  18
ENDBRANCH   5  16
TORSDOF 4
ENDMDL
MODEL 5
REMARK VINA RESULT:      -7.2      5.460      6.476
REMARK  Name = 
REMARK  5 active torsions:
REMARK  status: ('A' for Active; 'I' for Inactive)
REMARK    1  A    between atoms: C_1  and  O_2
REMARK    2  A    between atoms: O_2  and  C_3
REMARK    3  A    between atoms: C_7  and  C_8
REMARK    4  A    between atoms: N_12  and  N_13
REMARK    5  A    between atoms: C_14  and  C_15
REMARK                            x       y       z     vdW  Elec       q    Type
REMARK                         _______ _______ _______ _____ _____    ______ ____
ROOT
ATOM      1  C   UNL     1       4.200   4.374  18.536  0.00  0.00    +0.000 A 
ATOM      2  C   UNL     1       3.730   3.181  19.056  0.00  0.00    +0.000 A 
ATOM      3  S   UNL     1       2.640   3.504  20.340  0.00  0.00    +0.000 S 
ATOM      4  C   UNL     1       2.859   5.200  20.100  0.00  0.00    +0.000 A 
ATOM      5  N   UNL     1       2.170   6.096  20.852  0.00  0.00    +0.000 N 
ATOM      6  N   UNL     1       3.706   5.510  19.142  0.00  0.00    +0.000 NA
ATOM      7  H   UNL     1       1.809   5.782  21.748  0.00  0.00    +0.000 HD
ENDROOT
BRANCH   1  12
ATOM      8  C   UNL     1       5.642   4.357  15.072  0.00  0.00    +0.000 A 
ATOM      9  C   UNL     1       7.004   4.498  15.355  0.00  0.00    +0.000 A 
ATOM     10  C   UNL     1       7.446   4.625  16.672  0.00  0.00    +0.000 A 
ATOM     11  C   UNL     1       6.524   4.610  17.718  0.00  0.00    +0.000 A 
ATOM     12  C   UNL     1       5.156   4.471  17.447  0.00  0.00    +0.000 A 
ATOM     13  C   UNL     1       4.726   4.349  16.120  0.00  0.00    +0.000 A 
BRANCH   8  15
ATOM     14  C   UNL     1       6.376   3.700  12.911  0.00  0.00    +0.000 C 
ATOM     15  O   UNL     1       5.337   4.191  13.750  0.00  0.00    +0.000 OA
ENDBRANCH   8  15
ENDBRANCH   1  12
BRANCH   5  16
ATOM     16  N   UNL     1       1.846   7.328  20.375  0.00  0.00    +0.000 NA
ATOM     17  C   UNL     1       1.143   8.090  21.127  0.00  0.00    +0.000 C 
BRANCH  17  18
ATOM     18  C   UNL     1       0.798   9.455  20.685  0.00  0.00    +0.000 A 
ATOM     19  C   UNL     1       0.266  10.364  21.599  0.00  0.00    +0.000 A 
ATOM     20  C   UNL     1      -0.093  11.611  21.127  0.00  0.00    +0.000 A 
ATOM     21  N   UNL     1       0.038  11.988  19.837  0.00  0.00    +0.000 NA
ATOM     22  C   UNL     1       0.553  11.079  18.978  0.00  0.00    +0.000 A 
ATOM     23  C   UNL     1       0.954   9.808  19.351  0.00  0.00    +0.000 A 
ENDBRANCH  17  18
ENDBRANCH   5  16
TORSDOF 4
ENDMDL
MODEL 6
REMARK VINA RESULT:      -7.2      5.512      6.547
REMARK  Name = 
REMARK  5 active torsions:
REMARK  status: ('A' for Active; 'I' for Inactive)
REMARK    1  A    between atoms: C_1  and  O_2
REMARK    2  A    between atoms: O_2  and  C_3
REMARK    3  A    between atoms: C_7  and  C_8
REMARK    4  A    between atoms: N_12  and  N_13
REMARK    5  A    between atoms: C_14  and  C_15
REMARK                            x       y       z     vdW  Elec       q    Type
REMARK                         _______ _______ _______ _____ _____    ______ ____
ROOT
ATOM      1  C   UNL     1       4.216   4.276  18.759  0.00  0.00    +0.000 A 
ATOM      2  C   UNL     1       3.854   3.071  19.335  0.00  0.00    +0.000 A 
ATOM      3  S   UNL     1       2.734   3.355  20.602  0.00  0.00    +0.000 S 
ATOM      4  C   UNL     1       2.799   5.050  20.282  0.00  0.00    +0.000 A 
ATOM      5  N   UNL     1       2.029   5.914  20.991  0.00  0.00    +0.000 N 
ATOM      6  N   UNL     1       3.618   5.390  19.311  0.00  0.00    +0.000 NA
ATOM      7  H   UNL     1       1.695   5.612  21.901  0.00  0.00    +0.000 HD
ENDROOT
BRANCH   1  12
ATOM      8  C   UNL     1       5.636   4.345  15.286  0.00  0.00    +0.000 A 
ATOM      9  C   UNL     1       6.997   4.503  15.563  0.00  0.00    +0.000 A 
ATOM     10  C   UNL     1       7.445   4.614  16.879  0.00  0.00    +0.000 A 
ATOM     11  C   UNL     1       6.531   4.566  17.931  0.00  0.00    +0.000 A 
ATOM     12  C   UNL     1       5.163   4.408  17.665  0.00  0.00    +0.000 A 
ATOM     13  C   UNL     1       4.726   4.304  16.339  0.00  0.00    +0.000 A 
BRANCH   8  15
ATOM     14  C   UNL     1       6.356   3.705  13.115  0.00  0.00    +0.000 C 
ATOM     15  O   UNL     1       5.324   4.198  13.963  0.00  0.00    +0.000 OA
ENDBRANCH   8  15
ENDBRANCH   1  12
BRANCH   5  16
ATOM     16  N   UNL     1       1.596   7.088  20.457  0.00  0.00    +0.000 NA
ATOM     17  C   UNL     1       1.207   8.001  21.266  0.00  0.00    +0.000 C 
BRANCH  17  18
ATOM     18  C   UNL     1       0.770   9.312  20.750  0.00  0.00    +0.000 A 
ATOM     19  C   UNL     1       1.002   9.642  19.414  0.00  0.00    +0.000 A 
ATOM     20  C   UNL     1       0.626  10.901  18.991  0.00  0.00    +0.000 A 
ATOM     21  N   UNL     1       0.057  11.822  19.798  0.00  0.00    +0.000 NA
ATOM     22  C   UNL     1      -0.148  11.469  21.088  0.00  0.00    +0.000 A 
ATOM     23  C   UNL     1       0.181  10.231  21.608  0.00  0.00    +0.000 A 
ENDBRANCH  17  18
ENDBRANCH   5  16
TORSDOF 4
ENDMDL
MODEL 7
REMARK VINA RESULT:      -7.2      3.677      5.480
REMARK  Name = 
REMARK  5 active torsions:
REMARK  status: ('A' for Active; 'I' for Inactive)
REMARK    1  A    between atoms: C_1  and  O_2
REMARK    2  A    between atoms: O_2  and  C_3
REMARK    3  A    between atoms: C_7  and  C_8
REMARK    4  A    between atoms: N_12  and  N_13
REMARK    5  A    between atoms: C_14  and  C_15
REMARK                            x       y       z     vdW  Elec       q    Type
REMARK                         _______ _______ _______ _____ _____    ______ ____
ROOT
ATOM      1  C   UNL     1       5.156   5.357  18.071  0.00  0.00    +0.000 A 
ATOM      2  C   UNL     1       5.629   4.393  17.198  0.00  0.00    +0.000 A 
ATOM      3  S   UNL     1       6.933   5.034  16.286  0.00  0.00    +0.000 S 
ATOM      4  C   UNL     1       6.785   6.534  17.127  0.00  0.00    +0.000 A 
ATOM      5  N   UNL     1       7.643   7.555  16.871  0.00  0.00    +0.000 N 
ATOM      6  N   UNL     1       5.814   6.569  18.014  0.00  0.00    +0.000 NA
ATOM      7  H   UNL     1       8.125   7.553  15.977  0.00  0.00    +0.000 HD
ENDROOT
BRANCH   1  12
ATOM      8  C   UNL     1       2.651   3.667  20.295  0.00  0.00    +0.000 A 
ATOM      9  C   UNL     1       1.815   4.741  20.610  0.00  0.00    +0.000 A 
ATOM     10  C   UNL     1       2.084   6.019  20.120  0.00  0.00    +0.000 A 
ATOM     11  C   UNL     1       3.197   6.230  19.305  0.00  0.00    +0.000 A 
ATOM     12  C   UNL     1       4.044   5.160  18.983  0.00  0.00    +0.000 A 
ATOM     13  C   UNL     1       3.764   3.884  19.486  0.00  0.00    +0.000 A 
BRANCH   8  15
ATOM     14  C   UNL     1       1.331   2.481  21.873  0.00  0.00    +0.000 C 
ATOM     15  O   UNL     1       2.257   2.456  20.792  0.00  0.00    +0.000 OA
ENDBRANCH   8  15
ENDBRANCH   1  12
BRANCH   5  16
ATOM     16  N   UNL     1       7.962   8.475  17.820  0.00  0.00    +0.000 NA
ATOM     17  C   UNL     1       8.600   9.520  17.444  0.00  0.00    +0.000 C 
BRANCH  17  18
ATOM     18  C   UNL     1       8.933  10.576  18.419  0.00  0.00    +0.000 A 
ATOM     19  C   UNL     1       9.250  10.229  19.732  0.00  0.00    +0.000 A 
ATOM     20  C   UNL     1       9.501  11.255  20.623  0.00  0.00    +0.000 A 
ATOM     21  N   UNL     1       9.448  12.563  20.290  0.00  0.00    +0.000 NA
ATOM     22  C   UNL     1       9.133  12.861  19.009  0.00  0.00    +0.000 A 
ATOM     23  C   UNL     1       8.876  11.910  18.038  0.00  0.00    +0.000 A 
ENDBRANCH  17  18
ENDBRANCH   5  16
TORSDOF 4
ENDMDL
MODEL 8
REMARK VINA RESULT:      -7.2      3.683      5.508
REMARK  Name = 
REMARK  5 active torsions:
REMARK  status: ('A' for Active; 'I' for Inactive)
REMARK    1  A    between atoms: C_1  and  O_2
REMARK    2  A    between atoms: O_2  and  C_3
REMARK    3  A    between atoms: C_7  and  C_8
REMARK    4  A    between atoms: N_12  and  N_13
REMARK    5  A    between atoms: C_14  and  C_15
REMARK                            x       y       z     vdW  Elec       q    Type
REMARK                         _______ _______ _______ _____ _____    ______ ____
ROOT
ATOM      1  C   UNL     1       5.047   5.380  18.136  0.00  0.00    +0.000 A 
ATOM      2  C   UNL     1       5.592   4.361  17.374  0.00  0.00    +0.000 A 
ATOM      3  S   UNL     1       6.946   4.955  16.506  0.00  0.00    +0.000 S 
ATOM      4  C   UNL     1       6.720   6.512  17.216  0.00  0.00    +0.000 A 
ATOM      5  N   UNL     1       7.579   7.526  16.939  0.00  0.00    +0.000 N 
ATOM      6  N   UNL     1       5.690   6.596  18.030  0.00  0.00    +0.000 NA
ATOM      7  H   UNL     1       8.121   7.465  16.083  0.00  0.00    +0.000 HD
ENDROOT
BRANCH   1  12
ATOM      8  C   UNL     1       2.264   3.798  20.094  0.00  0.00    +0.000 A 
ATOM      9  C   UNL     1       1.540   4.929  20.480  0.00  0.00    +0.000 A 
ATOM     10  C   UNL     1       1.975   6.206  20.124  0.00  0.00    +0.000 A 
ATOM     11  C   UNL     1       3.142   6.359  19.375  0.00  0.00    +0.000 A 
ATOM     12  C   UNL     1       3.877   5.231  18.983  0.00  0.00    +0.000 A 
ATOM     13  C   UNL     1       3.431   3.956  19.351  0.00  0.00    +0.000 A 
BRANCH   8  15
ATOM     14  C   UNL     1       1.547   2.373  21.854  0.00  0.00    +0.000 C 
ATOM     15  O   UNL     1       1.713   2.601  20.458  0.00  0.00    +0.000 OA
ENDBRANCH   8  15
ENDBRANCH   1  12
BRANCH   5  16
ATOM     16  N   UNL     1       7.819   8.523  17.833  0.00  0.00    +0.000 NA
ATOM     17  C   UNL     1       8.660   9.430  17.501  0.00  0.00    +0.000 C 
BRANCH  17  18
ATOM     18  C   UNL     1       8.927  10.562  18.409  0.00  0.00    +0.000 A 
ATOM     19  C   UNL     1       8.808  11.869  17.938  0.00  0.00    +0.000 A 
ATOM     20  C   UNL     1       9.123  12.894  18.808  0.00  0.00    +0.000 A 
ATOM     21  N   UNL     1       9.542  12.696  20.076  0.00  0.00    +0.000 NA
ATOM     22  C   UNL     1       9.651  11.415  20.496  0.00  0.00    +0.000 A 
ATOM     23  C   UNL     1       9.350  10.318  19.709  0.00  0.00    +0.000 A 
ENDBRANCH  17  18
ENDBRANCH   5  16
TORSDOF 4
ENDMDL
MODEL 9
REMARK VINA RESULT:      -7.0      5.719      6.715
REMARK  Name = 
REMARK  5 active torsions:
REMARK  status: ('A' for Active; 'I' for Inactive)
REMARK    1  A    between atoms: C_1  and  O_2
REMARK    2  A    between atoms: O_2  and  C_3
REMARK    3  A    between atoms: C_7  and  C_8
REMARK    4  A    between atoms: N_12  and  N_13
REMARK    5  A    between atoms: C_14  and  C_15
REMARK                            x       y       z     vdW  Elec       q    Type
REMARK                         _______ _______ _______ _____ _____    ______ ____
ROOT
ATOM      1  C   UNL     1       3.897   4.925  19.061  0.00  0.00    +0.000 A 
ATOM      2  C   UNL     1       3.359   3.841  19.731  0.00  0.00    +0.000 A 
ATOM      3  S   UNL     1       2.194   4.387  20.864  0.00  0.00    +0.000 S 
ATOM      4  C   UNL     1       2.475   6.017  20.371  0.00  0.00    +0.000 A 
ATOM      5  N   UNL     1       1.762   7.035  20.917  0.00  0.00    +0.000 N 
ATOM      6  N   UNL     1       3.394   6.153  19.439  0.00  0.00    +0.000 NA
ATOM      7  H   UNL     1       1.333   6.877  21.823  0.00  0.00    +0.000 HD
ENDROOT
BRANCH   1  12
ATOM      8  C   UNL     1       5.551   4.484  15.721  0.00  0.00    +0.000 A 
ATOM      9  C   UNL     1       6.898   4.482  16.095  0.00  0.00    +0.000 A 
ATOM     10  C   UNL     1       7.264   4.652  17.430  0.00  0.00    +0.000 A 
ATOM     11  C   UNL     1       6.281   4.824  18.404  0.00  0.00    +0.000 A 
ATOM     12  C   UNL     1       4.927   4.828  18.041  0.00  0.00    +0.000 A 
ATOM     13  C   UNL     1       4.573   4.662  16.697  0.00  0.00    +0.000 A 
BRANCH   8  15
ATOM     14  C   UNL     1       6.450   3.986  13.580  0.00  0.00    +0.000 C 
ATOM     15  O   UNL     1       5.314   4.260  14.394  0.00  0.00    +0.000 OA
ENDBRANCH   8  15
ENDBRANCH   1  12
BRANCH   5  16
ATOM     16  N   UNL     1       1.506   8.178  20.226  0.00  0.00    +0.000 NA
ATOM     17  C   UNL     1       0.659   8.997  20.727  0.00  0.00    +0.000 C 
BRANCH  17  18
ATOM     18  C   UNL     1       0.373  10.276  20.048  0.00  0.00    +0.000 A 
ATOM     19  C   UNL     1       1.012  11.441  20.471  0.00  0.00    +0.000 A 
ATOM     20  C   UNL     1       0.671  12.623  19.842  0.00  0.00    +0.000 A 
ATOM     21  N   UNL     1      -0.245  12.706  18.854  0.00  0.00    +0.000 NA
ATOM     22  C   UNL     1      -0.848  11.557  18.473  0.00  0.00    +0.000 A 
ATOM     23  C   UNL     1      -0.570  10.321  19.030  0.00  0.00    +0.000 A 
ENDBRANCH  17  18
ENDBRANCH   5  16
TORSDOF 4
ENDMDL
