MODEL 1
REMARK VINA RESULT:      -7.8      0.000      0.000
REMARK  Name = 
REMARK  6 active torsions:
REMARK  status: ('A' for Active; 'I' for Inactive)
REMARK    1  A    between atoms: C_2  and  C_3
REMARK    2  A    between atoms: C_3  and  S_4
REMARK    3  A    between atoms: S_4  and  C_5
REMARK    4  A    between atoms: N_10  and  C_11
REMARK    5  A    between atoms: C_16  and  S_17
REMARK    6  A    between atoms: S_17  and  C_18
REMARK                            x       y       z     vdW  Elec       q    Type
REMARK                         _______ _______ _______ _____ _____    ______ ____
ROOT
ATOM      1  C   UNL     1       3.925   4.455  18.988  0.00  0.00    +0.000 A 
ATOM      2  C   UNL     1       3.609   3.112  19.232  0.00  0.00    +0.000 A 
ATOM      3  C   UNL     1       2.422   2.564  18.741  0.00  0.00    +0.000 A 
ATOM      4  C   UNL     1       1.528   3.364  18.037  0.00  0.00    +0.000 A 
ATOM      5  C   UNL     1       1.834   4.704  17.792  0.00  0.00    +0.000 A 
ATOM      6  C   UNL     1       3.044   5.253  18.237  0.00  0.00    +0.000 A 
ENDROOT
BRANCH   1   9
ATOM      7  O   UNL     1       7.198   5.488  19.995  0.00  0.00    +0.000 OA
ATOM      8  C   UNL     1       6.360   4.997  19.236  0.00  0.00    +0.000 C 
ATOM      9  N   UNL     1       5.041   5.038  19.612  0.00  0.00    +0.000 N 
ATOM     10  H   UNL     1       4.861   5.698  20.360  0.00  0.00    +0.000 HD
BRANCH   8  11
ATOM     11  C   UNL     1       6.676   4.547  17.810  0.00  0.00    +0.000 C 
BRANCH  11  12
ATOM     12  S   UNL     1       6.978   5.926  16.681  0.00  0.00    +0.000 S 
BRANCH  12  13
ATOM     13  C   UNL     1       6.778   5.130  15.149  0.00  0.00    +0.000 A 
ATOM     14  N   UNL     1       5.813   4.197  14.890  0.00  0.00    +0.000 NA
ATOM     15  C   UNL     1       6.085   3.817  13.666  0.00  0.00    +0.000 A 
ATOM     16  N   UNL     1       7.142   4.536  13.195  0.00  0.00    +0.000 N 
ATOM     17  N   UNL     1       7.583   5.399  14.118  0.00  0.00    +0.000 NA
ATOM     18  H   UNL     1       7.602   4.489  12.295  0.00  0.00    +0.000 HD
ENDBRANCH  12  13
ENDBRANCH  11  12
ENDBRANCH   8  11
ENDBRANCH   1   9
BRANCH   6  19
ATOM     19  S   UNL     1       3.445   6.939  17.782  0.00  0.00    +0.000 S 
BRANCH  19  20
ATOM     20  C   UNL     1       2.241   7.903  18.702  0.00  0.00    +0.000 A 
ATOM     21  C   UNL     1       1.974   7.678  20.058  0.00  0.00    +0.000 A 
ATOM     22  C   UNL     1       1.125   8.533  20.772  0.00  0.00    +0.000 A 
ATOM     23  C   UNL     1       0.536   9.626  20.138  0.00  0.00    +0.000 A 
ATOM     24  C   UNL     1       0.784   9.852  18.788  0.00  0.00    +0.000 A 
ATOM     25  C   UNL     1       1.631   8.995  18.072  0.00  0.00    +0.000 A 
ENDBRANCH  19  20
ENDBRANCH   6  19
TORSDOF 6
ENDMDL
MODEL 2
REMARK VINA RESULT:      -7.8      0.446      1.285
REMARK  Name = 
REMARK  6 active torsions:
REMARK  status: ('A' for Active; 'I' for Inactive)
REMARK    1  A    between atoms: C_2  and  C_3
REMARK    2  A    between atoms: C_3  and  S_4
REMARK    3  A    between atoms: S_4  and  C_5
REMARK    4  A    between atoms: N_10  and  C_11
REMARK    5  A    between atoms: C_16  and  S_17
REMARK    6  A    between atoms: S_17  and  C_18
REMARK                            x       y       z     vdW  Elec       q    Type
REMARK                         _______ _______ _______ _____ _____    ______ ____
ROOT
ATOM      1  C   UNL     1       3.795   4.582  19.008  0.00  0.00    +0.000 A 
ATOM      2  C   UNL     1       3.417   3.271  19.328  0.00  0.00    +0.000 A 
ATOM      3  C   UNL     1       2.209   2.750  18.861  0.00  0.00    +0.000 A 
ATOM      4  C   UNL     1       1.356   3.546  18.103  0.00  0.00    +0.000 A 
ATOM      5  C   UNL     1       1.724   4.853  17.782  0.00  0.00    +0.000 A 
ATOM      6  C   UNL     1       2.956   5.372  18.203  0.00  0.00    +0.000 A 
ENDROOT
BRANCH   1   9
ATOM      7  O   UNL     1       7.107   5.532  19.969  0.00  0.00    +0.000 OA
ATOM      8  C   UNL     1       6.250   5.038  19.234  0.00  0.00    +0.000 C 
ATOM      9  N   UNL     1       4.934   5.149  19.605  0.00  0.00    +0.000 N 
ATOM     10  H   UNL     1       4.780   5.852  20.319  0.00  0.00    +0.000 HD
BRANCH   8  11
ATOM     11  C   UNL     1       6.548   4.508  17.831  0.00  0.00    +0.000 C 
BRANCH  11  12
ATOM     12  S   UNL     1       6.997   5.810  16.660  0.00  0.00    +0.000 S 
BRANCH  12  13
ATOM     13  C   UNL     1       6.879   4.941  15.160  0.00  0.00    +0.000 A 
ATOM     14  N   UNL     1       7.525   5.304  14.011  0.00  0.00    +0.000 NA
ATOM     15  C   UNL     1       7.089   4.432  13.135  0.00  0.00    +0.000 A 
ATOM     16  N   UNL     1       6.256   3.550  13.753  0.00  0.00    +0.000 N 
ATOM     17  N   UNL     1       6.128   3.842  15.053  0.00  0.00    +0.000 NA
ATOM     18  H   UNL     1       5.753   2.761  13.366  0.00  0.00    +0.000 HD
ENDBRANCH  12  13
ENDBRANCH  11  12
ENDBRANCH   8  11
ENDBRANCH   1   9
BRANCH   6  19
ATOM     19  S   UNL     1       3.437   7.008  17.652  0.00  0.00    +0.000 S 
BRANCH  19  20
ATOM     20  C   UNL     1       2.321   8.084  18.558  0.00  0.00    +0.000 A 
ATOM     21  C   UNL     1       1.615   9.126  17.944  0.00  0.00    +0.000 A 
ATOM     22  C   UNL     1       0.658   9.860  18.656  0.00  0.00    +0.000 A 
ATOM     23  C   UNL     1       0.393   9.557  19.990  0.00  0.00    +0.000 A 
ATOM     24  C   UNL     1       1.097   8.533  20.616  0.00  0.00    +0.000 A 
ATOM     25  C   UNL     1       2.057   7.800  19.905  0.00  0.00    +0.000 A 
ENDBRANCH  19  20
ENDBRANCH   6  19
TORSDOF 6
ENDMDL
MODEL 3
REMARK VINA RESULT:      -7.5      1.223      1.758
REMARK  Name = 
REMARK  6 active torsions:
REMARK  status: ('A' for Active; 'I' for Inactive)
REMARK    1  A    between atoms: C_2  and  C_3
REMARK    2  A    between atoms: C_3  and  S_4
REMARK    3  A    between atoms: S_4  and  C_5
REMARK    4  A    between atoms: N_10  and  C_11
REMARK    5  A    between atoms: C_16  and  S_17
REMARK    6  A    between atoms: S_17  and  C_18
REMARK                            x       y       z     vdW  Elec       q    Type
REMARK                         _______ _______ _______ _____ _____    ______ ____
ROOT
ATOM      1  C   UNL     1       3.810   3.782  19.114  0.00  0.00    +0.000 A 
ATOM      2  C   UNL     1       3.842   2.834  18.083  0.00  0.00    +0.000 A 
ATOM      3  C   UNL     1       2.656   2.307  17.570  0.00  0.00    +0.000 A 
ATOM      4  C   UNL     1       1.434   2.697  18.107  0.00  0.00    +0.000 A 
ATOM      5  C   UNL     1       1.393   3.639  19.136  0.00  0.00    +0.000 A 
ATOM      6  C   UNL     1       2.574   4.212  19.627  0.00  0.00    +0.000 A 
ENDROOT
BRANCH   1   9
ATOM      7  O   UNL     1       6.999   5.189  19.919  0.00  0.00    +0.000 OA
ATOM      8  C   UNL     1       5.966   5.054  19.261  0.00  0.00    +0.000 C 
ATOM      9  N   UNL     1       5.006   4.192  19.728  0.00  0.00    +0.000 N 
ATOM     10  H   UNL     1       5.134   3.946  20.703  0.00  0.00    +0.000 HD
BRANCH   8  11
ATOM     11  C   UNL     1       5.598   5.950  18.079  0.00  0.00    +0.000 C 
BRANCH  11  12
ATOM     12  S   UNL     1       7.015   6.370  17.037  0.00  0.00    +0.000 S 
BRANCH  12  13
ATOM     13  C   UNL     1       6.680   5.393  15.639  0.00  0.00    +0.000 A 
ATOM     14  N   UNL     1       7.535   5.253  14.580  0.00  0.00    +0.000 NA
ATOM     15  C   UNL     1       6.852   4.512  13.742  0.00  0.00    +0.000 A 
ATOM     16  N   UNL     1       5.656   4.181  14.304  0.00  0.00    +0.000 N 
ATOM     17  N   UNL     1       5.537   4.713  15.527  0.00  0.00    +0.000 NA
ATOM     18  H   UNL     1       4.900   3.625  13.926  0.00  0.00    +0.000 HD
ENDBRANCH  12  13
ENDBRANCH  11  12
ENDBRANCH   8  11
ENDBRANCH   1   9
BRANCH   6  19
ATOM     19  S   UNL     1       2.457   5.512  20.854  0.00  0.00    +0.000 S 
BRANCH  19  20
ATOM     20  C   UNL     1       2.190   6.984  19.860  0.00  0.00    +0.000 A 
ATOM     21  C   UNL     1       2.489   7.033  18.493  0.00  0.00    +0.000 A 
ATOM     22  C   UNL     1       2.147   8.153  17.724  0.00  0.00    +0.000 A 
ATOM     23  C   UNL     1       1.498   9.236  18.315  0.00  0.00    +0.000 A 
ATOM     24  C   UNL     1       1.207   9.205  19.675  0.00  0.00    +0.000 A 
ATOM     25  C   UNL     1       1.552   8.085  20.445  0.00  0.00    +0.000 A 
ENDBRANCH  19  20
ENDBRANCH   6  19
TORSDOF 6
ENDMDL
MODEL 4
REMARK VINA RESULT:      -7.4      3.057      5.572
REMARK  Name = 
REMARK  6 active torsions:
REMARK  status: ('A' for Active; 'I' for Inactive)
REMARK    1  A    between atoms: C_2  and  C_3
REMARK    2  A    between atoms: C_3  and  S_4
REMARK    3  A    between atoms: S_4  and  C_5
REMARK    4  A    between atoms: N_10  and  C_11
REMARK    5  A    between atoms: C_16  and  S_17
REMARK    6  A    between atoms: S_17  and  C_18
REMARK                            x       y       z     vdW  Elec       q    Type
REMARK                         _______ _______ _______ _____ _____    ______ ____
ROOT
ATOM      1  C   UNL     1       2.257   6.953  19.803  0.00  0.00    +0.000 A 
ATOM      2  C   UNL     1       1.471   8.001  20.301  0.00  0.00    +0.000 A 
ATOM      3  C   UNL     1       1.195   9.116  19.508  0.00  0.00    +0.000 A 
ATOM      4  C   UNL     1       1.733   9.208  18.228  0.00  0.00    +0.000 A 
ATOM      5  C   UNL     1       2.519   8.170  17.726  0.00  0.00    +0.000 A 
ATOM      6  C   UNL     1       2.763   7.023  18.494  0.00  0.00    +0.000 A 
ENDROOT
BRANCH   1   9
ATOM      7  O   UNL     1       2.489   4.001  21.810  0.00  0.00    +0.000 OA
ATOM      8  C   UNL     1       2.010   4.733  20.942  0.00  0.00    +0.000 C 
ATOM      9  N   UNL     1       2.656   5.909  20.656  0.00  0.00    +0.000 N 
ATOM     10  H   UNL     1       3.606   5.937  21.008  0.00  0.00    +0.000 HD
BRANCH   8  11
ATOM     11  C   UNL     1       0.871   4.307  20.016  0.00  0.00    +0.000 C 
BRANCH  11  12
ATOM     12  S   UNL     1       0.783   2.517  19.776  0.00  0.00    +0.000 S 
BRANCH  12  13
ATOM     13  C   UNL     1       2.223   2.252  18.840  0.00  0.00    +0.000 A 
ATOM     14  N   UNL     1       2.278   2.345  17.477  0.00  0.00    +0.000 NA
ATOM     15  C   UNL     1       3.510   1.991  17.203  0.00  0.00    +0.000 A 
ATOM     16  N   UNL     1       4.177   1.747  18.366  0.00  0.00    +0.000 N 
ATOM     17  N   UNL     1       3.380   1.933  19.425  0.00  0.00    +0.000 NA
ATOM     18  H   UNL     1       5.136   1.455  18.508  0.00  0.00    +0.000 HD
ENDBRANCH  12  13
ENDBRANCH  11  12
ENDBRANCH   8  11
ENDBRANCH   1   9
BRANCH   6  19
ATOM     19  S   UNL     1       3.667   5.665  17.753  0.00  0.00    +0.000 S 
BRANCH  19  20
ATOM     20  C   UNL     1       5.373   6.041  18.167  0.00  0.00    +0.000 A 
ATOM     21  C   UNL     1       6.057   5.393  19.203  0.00  0.00    +0.000 A 
ATOM     22  C   UNL     1       7.424   5.620  19.412  0.00  0.00    +0.000 A 
ATOM     23  C   UNL     1       8.122   6.497  18.584  0.00  0.00    +0.000 A 
ATOM     24  C   UNL     1       7.451   7.158  17.560  0.00  0.00    +0.000 A 
ATOM     25  C   UNL     1       6.083   6.933  17.352  0.00  0.00    +0.000 A 
ENDBRANCH  19  20
ENDBRANCH   6  19
TORSDOF 6
ENDMDL
MODEL 5
REMARK VINA RESULT:      -7.4      1.123      1.400
REMARK  Name = 
REMARK  6 active torsions:
REMARK  status: ('A' for Active; 'I' for Inactive)
REMARK    1  A    between atoms: C_2  and  C_3
REMARK    2  A    between atoms: C_3  and  S_4
REMARK    3  A    between atoms: S_4  and  C_5
REMARK    4  A    between atoms: N_10  and  C_11
REMARK    5  A    between atoms: C_16  and  S_17
REMARK    6  A    between atoms: S_17  and  C_18
REMARK                            x       y       z     vdW  Elec       q    Type
REMARK                         _______ _______ _______ _____ _____    ______ ____
ROOT
ATOM      1  C   UNL     1       3.858   3.973  18.974  0.00  0.00    +0.000 A 
ATOM      2  C   UNL     1       3.855   3.052  17.918  0.00  0.00    +0.000 A 
ATOM      3  C   UNL     1       2.652   2.632  17.349  0.00  0.00    +0.000 A 
ATOM      4  C   UNL     1       1.444   3.102  17.856  0.00  0.00    +0.000 A 
ATOM      5  C   UNL     1       1.438   4.017  18.909  0.00  0.00    +0.000 A 
ATOM      6  C   UNL     1       2.641   4.483  19.457  0.00  0.00    +0.000 A 
ENDROOT
BRANCH   1   9
ATOM      7  O   UNL     1       7.083   5.170  19.956  0.00  0.00    +0.000 OA
ATOM      8  C   UNL     1       6.055   5.142  19.276  0.00  0.00    +0.000 C 
ATOM      9  N   UNL     1       5.059   4.272  19.641  0.00  0.00    +0.000 N 
ATOM     10  H   UNL     1       5.163   3.923  20.587  0.00  0.00    +0.000 HD
BRANCH   8  11
ATOM     11  C   UNL     1       5.738   6.168  18.189  0.00  0.00    +0.000 C 
BRANCH  11  12
ATOM     12  S   UNL     1       7.136   6.497  17.092  0.00  0.00    +0.000 S 
BRANCH  12  13
ATOM     13  C   UNL     1       6.679   5.554  15.705  0.00  0.00    +0.000 A 
ATOM     14  N   UNL     1       5.424   5.051  15.500  0.00  0.00    +0.000 NA
ATOM     15  C   UNL     1       5.558   4.355  14.397  0.00  0.00    +0.000 A 
ATOM     16  N   UNL     1       6.833   4.482  13.936  0.00  0.00    +0.000 N 
ATOM     17  N   UNL     1       7.559   5.265  14.743  0.00  0.00    +0.000 NA
ATOM     18  H   UNL     1       7.264   4.075  13.116  0.00  0.00    +0.000 HD
ENDBRANCH  12  13
ENDBRANCH  11  12
ENDBRANCH   8  11
ENDBRANCH   1   9
BRANCH   6  19
ATOM     19  S   UNL     1       2.579   5.756  20.717  0.00  0.00    +0.000 S 
BRANCH  19  20
ATOM     20  C   UNL     1       2.061   7.209  19.798  0.00  0.00    +0.000 A 
ATOM     21  C   UNL     1       1.388   8.280  20.400  0.00  0.00    +0.000 A 
ATOM     22  C   UNL     1       1.115   9.450  19.679  0.00  0.00    +0.000 A 
ATOM     23  C   UNL     1       1.516   9.563  18.349  0.00  0.00    +0.000 A 
ATOM     24  C   UNL     1       2.174   8.502  17.737  0.00  0.00    +0.000 A 
ATOM     25  C   UNL     1       2.444   7.329  18.456  0.00  0.00    +0.000 A 
ENDBRANCH  19  20
ENDBRANCH   6  19
TORSDOF 6
ENDMDL
MODEL 6
REMARK VINA RESULT:      -7.4      2.954      5.682
REMARK  Name = 
REMARK  6 active torsions:
REMARK  status: ('A' for Active; 'I' for Inactive)
REMARK    1  A    between atoms: C_2  and  C_3
REMARK    2  A    between atoms: C_3  and  S_4
REMARK    3  A    between atoms: S_4  and  C_5
REMARK    4  A    between atoms: N_10  and  C_11
REMARK    5  A    between atoms: C_16  and  S_17
REMARK    6  A    between atoms: S_17  and  C_18
REMARK                            x       y       z     vdW  Elec       q    Type
REMARK                         _______ _______ _______ _____ _____    ______ ____
ROOT
ATOM      1  C   UNL     1       2.377   6.946  19.695  0.00  0.00    +0.000 A 
ATOM      2  C   UNL     1       1.629   8.019  20.197  0.00  0.00    +0.000 A 
ATOM      3  C   UNL     1       1.357   9.128  19.394  0.00  0.00    +0.000 A 
ATOM      4  C   UNL     1       1.859   9.186  18.098  0.00  0.00    +0.000 A 
ATOM      5  C   UNL     1       2.606   8.122  17.591  0.00  0.00    +0.000 A 
ATOM      6  C   UNL     1       2.846   6.983  18.370  0.00  0.00    +0.000 A 
ENDROOT
BRANCH   1   9
ATOM      7  O   UNL     1       2.583   4.053  21.790  0.00  0.00    +0.000 OA
ATOM      8  C   UNL     1       2.083   4.786  20.934  0.00  0.00    +0.000 C 
ATOM      9  N   UNL     1       2.777   5.907  20.553  0.00  0.00    +0.000 N 
ATOM     10  H   UNL     1       3.752   5.883  20.828  0.00  0.00    +0.000 HD
BRANCH   8  11
ATOM     11  C   UNL     1       0.848   4.405  20.117  0.00  0.00    +0.000 C 
BRANCH  11  12
ATOM     12  S   UNL     1       0.640   2.619  19.935  0.00  0.00    +0.000 S 
BRANCH  12  13
ATOM     13  C   UNL     1       1.965   2.252  18.871  0.00  0.00    +0.000 A 
ATOM     14  N   UNL     1       3.189   1.815  19.295  0.00  0.00    +0.000 NA
ATOM     15  C   UNL     1       3.883   1.749  18.185  0.00  0.00    +0.000 A 
ATOM     16  N   UNL     1       3.084   2.084  17.134  0.00  0.00    +0.000 N 
ATOM     17  N   UNL     1       1.847   2.384  17.548  0.00  0.00    +0.000 NA
ATOM     18  H   UNL     1       3.306   2.136  16.148  0.00  0.00    +0.000 HD
ENDBRANCH  12  13
ENDBRANCH  11  12
ENDBRANCH   8  11
ENDBRANCH   1   9
BRANCH   6  19
ATOM     19  S   UNL     1       3.696   5.592  17.627  0.00  0.00    +0.000 S 
BRANCH  19  20
ATOM     20  C   UNL     1       5.426   5.970  17.925  0.00  0.00    +0.000 A 
ATOM     21  C   UNL     1       6.123   6.937  17.190  0.00  0.00    +0.000 A 
ATOM     22  C   UNL     1       7.433   7.295  17.537  0.00  0.00    +0.000 A 
ATOM     23  C   UNL     1       8.058   6.690  18.626  0.00  0.00    +0.000 A 
ATOM     24  C   UNL     1       7.381   5.719  19.356  0.00  0.00    +0.000 A 
ATOM     25  C   UNL     1       6.072   5.358  19.007  0.00  0.00    +0.000 A 
ENDBRANCH  19  20
ENDBRANCH   6  19
TORSDOF 6
ENDMDL
MODEL 7
REMARK VINA RESULT:      -7.2      1.798      2.122
REMARK  Name = 
REMARK  6 active torsions:
REMARK  status: ('A' for Active; 'I' for Inactive)
REMARK    1  A    between atoms: C_2  and  C_3
REMARK    2  A    between atoms: C_3  and  S_4
REMARK    3  A    between atoms: S_4  and  C_5
REMARK    4  A    between atoms: N_10  and  C_11
REMARK    5  A    between atoms: C_16  and  S_17
REMARK    6  A    between atoms: S_17  and  C_18
REMARK                            x       y       z     vdW  Elec       q    Type
REMARK                         _______ _______ _______ _____ _____    ______ ____
ROOT
ATOM      1  C   UNL     1       4.196   3.984  17.625  0.00  0.00    +0.000 A 
ATOM      2  C   UNL     1       3.703   2.673  17.666  0.00  0.00    +0.000 A 
ATOM      3  C   UNL     1       2.343   2.435  17.870  0.00  0.00    +0.000 A 
ATOM      4  C   UNL     1       1.474   3.502  18.070  0.00  0.00    +0.000 A 
ATOM      5  C   UNL     1       1.956   4.811  18.032  0.00  0.00    +0.000 A 
ATOM      6  C   UNL     1       3.311   5.066  17.780  0.00  0.00    +0.000 A 
ENDROOT
BRANCH   1   9
ATOM      7  O   UNL     1       7.615   4.405  16.662  0.00  0.00    +0.000 OA
ATOM      8  C   UNL     1       6.400   4.313  16.476  0.00  0.00    +0.000 C 
ATOM      9  N   UNL     1       5.582   4.212  17.573  0.00  0.00    +0.000 N 
ATOM     10  H   UNL     1       6.039   4.483  18.436  0.00  0.00    +0.000 HD
BRANCH   8  11
ATOM     11  C   UNL     1       5.738   4.526  15.115  0.00  0.00    +0.000 C 
BRANCH  11  12
ATOM     12  S   UNL     1       6.921   4.574  13.750  0.00  0.00    +0.000 S 
BRANCH  12  13
ATOM     13  C   UNL     1       6.131   3.528  12.608  0.00  0.00    +0.000 A 
ATOM     14  N   UNL     1       4.833   3.676  12.204  0.00  0.00    +0.000 NA
ATOM     15  C   UNL     1       4.644   2.641  11.423  0.00  0.00    +0.000 A 
ATOM     16  N   UNL     1       5.803   1.932  11.325  0.00  0.00    +0.000 N 
ATOM     17  N   UNL     1       6.773   2.496  12.055  0.00  0.00    +0.000 NA
ATOM     18  H   UNL     1       5.997   1.084  10.807  0.00  0.00    +0.000 HD
ENDBRANCH  12  13
ENDBRANCH  11  12
ENDBRANCH   8  11
ENDBRANCH   1   9
BRANCH   6  19
ATOM     19  S   UNL     1       3.853   6.765  17.610  0.00  0.00    +0.000 S 
BRANCH  19  20
ATOM     20  C   UNL     1       2.578   7.685  18.479  0.00  0.00    +0.000 A 
ATOM     21  C   UNL     1       2.285   7.471  19.831  0.00  0.00    +0.000 A 
ATOM     22  C   UNL     1       1.375   8.295  20.506  0.00  0.00    +0.000 A 
ATOM     23  C   UNL     1       0.750   9.345  19.835  0.00  0.00    +0.000 A 
ATOM     24  C   UNL     1       1.023   9.560  18.489  0.00  0.00    +0.000 A 
ATOM     25  C   UNL     1       1.931   8.733  17.812  0.00  0.00    +0.000 A 
ENDBRANCH  19  20
ENDBRANCH   6  19
TORSDOF 6
ENDMDL
MODEL 8
REMARK VINA RESULT:      -7.2      1.026      1.159
REMARK  Name = 
REMARK  6 active torsions:
REMARK  status: ('A' for Active; 'I' for Inactive)
REMARK    1  A    between atoms: C_2  and  C_3
REMARK    2  A    between atoms: C_3  and  S_4
REMARK    3  A    between atoms: S_4  and  C_5
REMARK    4  A    between atoms: N_10  and  C_11
REMARK    5  A    between atoms: C_16  and  S_17
REMARK    6  A    between atoms: S_17  and  C_18
REMARK                            x       y       z     vdW  Elec       q    Type
REMARK                         _______ _______ _______ _____ _____    ______ ____
ROOT
ATOM      1  C   UNL     1       4.103   4.105  18.459  0.00  0.00    +0.000 A 
ATOM      2  C   UNL     1       3.617   2.791  18.490  0.00  0.00    +0.000 A 
ATOM      3  C   UNL     1       2.263   2.533  18.268  0.00  0.00    +0.000 A 
ATOM      4  C   UNL     1       1.382   3.588  18.051  0.00  0.00    +0.000 A 
ATOM      5  C   UNL     1       1.858   4.899  18.021  0.00  0.00    +0.000 A 
ATOM      6  C   UNL     1       3.222   5.168  18.194  0.00  0.00    +0.000 A 
ENDROOT
BRANCH   1   9
ATOM      7  O   UNL     1       7.616   4.770  18.568  0.00  0.00    +0.000 OA
ATOM      8  C   UNL     1       6.506   4.685  18.040  0.00  0.00    +0.000 C 
ATOM      9  N   UNL     1       5.432   4.370  18.833  0.00  0.00    +0.000 N 
ATOM     10  H   UNL     1       5.619   4.491  19.822  0.00  0.00    +0.000 HD
BRANCH   8  11
ATOM     11  C   UNL     1       6.221   5.124  16.603  0.00  0.00    +0.000 C 
BRANCH  11  12
ATOM     12  S   UNL     1       6.042   3.737  15.459  0.00  0.00    +0.000 S 
BRANCH  12  13
ATOM     13  C   UNL     1       6.794   4.399  14.038  0.00  0.00    +0.000 A 
ATOM     14  N   UNL     1       6.602   3.915  12.774  0.00  0.00    +0.000 NA
ATOM     15  C   UNL     1       7.410   4.648  12.048  0.00  0.00    +0.000 A 
ATOM     16  N   UNL     1       8.021   5.568  12.845  0.00  0.00    +0.000 N 
ATOM     17  N   UNL     1       7.622   5.443  14.116  0.00  0.00    +0.000 NA
ATOM     18  H   UNL     1       8.700   6.279  12.602  0.00  0.00    +0.000 HD
ENDBRANCH  12  13
ENDBRANCH  11  12
ENDBRANCH   8  11
ENDBRANCH   1   9
BRANCH   6  19
ATOM     19  S   UNL     1       3.799   6.855  18.014  0.00  0.00    +0.000 S 
BRANCH  19  20
ATOM     20  C   UNL     1       2.449   7.819  18.701  0.00  0.00    +0.000 A 
ATOM     21  C   UNL     1       2.048   7.708  20.038  0.00  0.00    +0.000 A 
ATOM     22  C   UNL     1       1.078   8.568  20.570  0.00  0.00    +0.000 A 
ATOM     23  C   UNL     1       0.501   9.552  19.769  0.00  0.00    +0.000 A 
ATOM     24  C   UNL     1       0.881   9.664  18.436  0.00  0.00    +0.000 A 
ATOM     25  C   UNL     1       1.849   8.801  17.903  0.00  0.00    +0.000 A 
ENDBRANCH  19  20
ENDBRANCH   6  19
TORSDOF 6
ENDMDL
MODEL 9
REMARK VINA RESULT:      -7.0      1.313      1.735
REMARK  Name = 
REMARK  6 active torsions:
REMARK  status: ('A' for Active; 'I' for Inactive)
REMARK    1  A    between atoms: C_2  and  C_3
REMARK    2  A    between atoms: C_3  and  S_4
REMARK    3  A    between atoms: S_4  and  C_5
REMARK    4  A    between atoms: N_10  and  C_11
REMARK    5  A    between atoms: C_16  and  S_17
REMARK    6  A    between atoms: S_17  and  C_18
REMARK                            x       y       z     vdW  Elec       q    Type
REMARK                         _______ _______ _______ _____ _____    ______ ____
ROOT
ATOM      1  C   UNL     1       3.129   3.715  19.386  0.00  0.00    +0.000 A 
ATOM      2  C   UNL     1       2.850   2.613  18.566  0.00  0.00    +0.000 A 
ATOM      3  C   UNL     1       1.542   2.144  18.433  0.00  0.00    +0.000 A 
ATOM      4  C   UNL     1       0.512   2.750  19.144  0.00  0.00    +0.000 A 
ATOM      5  C   UNL     1       0.781   3.846  19.965  0.00  0.00    +0.000 A 
ATOM      6  C   UNL     1       2.082   4.357  20.069  0.00  0.00    +0.000 A 
ENDROOT
BRANCH   1   9
ATOM      7  O   UNL     1       6.587   4.607  19.172  0.00  0.00    +0.000 OA
ATOM      8  C   UNL     1       5.446   4.422  18.741  0.00  0.00    +0.000 C 
ATOM      9  N   UNL     1       4.462   4.084  19.635  0.00  0.00    +0.000 N 
ATOM     10  H   UNL     1       4.718   4.272  20.598  0.00  0.00    +0.000 HD
BRANCH   8  11
ATOM     11  C   UNL     1       5.021   4.760  17.313  0.00  0.00    +0.000 C 
BRANCH  11  12
ATOM     12  S   UNL     1       6.079   6.000  16.532  0.00  0.00    +0.000 S 
BRANCH  12  13
ATOM     13  C   UNL     1       6.405   5.225  15.011  0.00  0.00    +0.000 A 
ATOM     14  N   UNL     1       5.558   4.339  14.405  0.00  0.00    +0.000 NA
ATOM     15  C   UNL     1       6.232   3.956  13.348  0.00  0.00    +0.000 A 
ATOM     16  N   UNL     1       7.415   4.629  13.300  0.00  0.00    +0.000 N 
ATOM     17  N   UNL     1       7.535   5.464  14.340  0.00  0.00    +0.000 NA
ATOM     18  H   UNL     1       8.163   4.568  12.621  0.00  0.00    +0.000 HD
ENDBRANCH  12  13
ENDBRANCH  11  12
ENDBRANCH   8  11
ENDBRANCH   1   9
BRANCH   6  19
ATOM     19  S   UNL     1       2.350   5.845  21.030  0.00  0.00    +0.000 S 
BRANCH  19  20
ATOM     20  C   UNL     1       2.168   7.152  19.811  0.00  0.00    +0.000 A 
ATOM     21  C   UNL     1       2.596   7.010  18.486  0.00  0.00    +0.000 A 
ATOM     22  C   UNL     1       2.320   7.999  17.534  0.00  0.00    +0.000 A 
ATOM     23  C   UNL     1       1.608   9.141  17.897  0.00  0.00    +0.000 A 
ATOM     24  C   UNL     1       1.189   9.300  19.213  0.00  0.00    +0.000 A 
ATOM     25  C   UNL     1       1.467   8.312  20.167  0.00  0.00    +0.000 A 
ENDBRANCH  19  20
ENDBRANCH   6  19
TORSDOF 6
ENDMDL
