MODEL 1
REMARK VINA RESULT:      -6.8      0.000      0.000
REMARK  Name = 
REMARK  1 active torsions:
REMARK  status: ('A' for Active; 'I' for Inactive)
REMARK    1  A    between atoms: O_1  and  C_2
REMARK                            x       y       z     vdW  Elec       q    Type
REMARK                         _______ _______ _______ _____ _____    ______ ____
ROOT
ATOM      1  C   UNL     1       6.370   5.408  15.945  0.00  0.00    +0.000 A 
ATOM      2  N   UNL     1       5.767   4.302  16.295  0.00  0.00    +0.000 NA
ATOM      3  C   UNL     1       4.648   4.721  16.993  0.00  0.00    +0.000 A 
ATOM      4  C   UNL     1       3.625   3.970  17.615  0.00  0.00    +0.000 A 
ATOM      5  C   UNL     1       2.568   4.692  18.230  0.00  0.00    +0.000 A 
ATOM      6  C   UNL     1       2.566   6.095  18.263  0.00  0.00    +0.000 A 
ATOM      7  C   UNL     1       3.585   6.837  17.665  0.00  0.00    +0.000 A 
ATOM      8  C   UNL     1       4.600   6.115  17.039  0.00  0.00    +0.000 A 
ATOM      9  N   UNL     1       5.718   6.523  16.363  0.00  0.00    +0.000 N 
ATOM     10  C   UNL     1       1.449   3.946  18.922  0.00  0.00    +0.000 C 
ATOM     11  C   UNL     1       1.361   2.486  18.473  0.00  0.00    +0.000 C 
ATOM     12  N   UNL     1       2.677   1.851  18.561  0.00  0.00    +0.000 NA
ATOM     13  C   UNL     1       3.596   2.458  17.582  0.00  0.00    +0.000 C 
ATOM     14  H   UNL     1       6.016   7.471  16.196  0.00  0.00    +0.000 HD
ATOM     15  H   UNL     1       2.595   0.857  18.358  0.00  0.00    +0.000 HD
ENDROOT
BRANCH   1  16
ATOM     16  O   UNL     1       7.490   5.453  15.257  0.00  0.00    +0.000 OA
ATOM     17  H   UNL     1       7.539   4.558  14.880  0.00  0.00    +0.000 HD
ENDBRANCH   1  16
TORSDOF 1
ENDMDL
MODEL 2
REMARK VINA RESULT:      -6.6      3.269      5.203
REMARK  Name = 
REMARK  1 active torsions:
REMARK  status: ('A' for Active; 'I' for Inactive)
REMARK    1  A    between atoms: O_1  and  C_2
REMARK                            x       y       z     vdW  Elec       q    Type
REMARK                         _______ _______ _______ _____ _____    ______ ____
ROOT
ATOM      1  C   UNL     1       1.571   2.785  21.408  0.00  0.00    +0.000 A 
ATOM      2  N   UNL     1       2.820   3.048  21.127  0.00  0.00    +0.000 NA
ATOM      3  C   UNL     1       2.803   3.441  19.801  0.00  0.00    +0.000 A 
ATOM      4  C   UNL     1       3.862   3.840  18.952  0.00  0.00    +0.000 A 
ATOM      5  C   UNL     1       3.524   4.231  17.630  0.00  0.00    +0.000 A 
ATOM      6  C   UNL     1       2.201   4.174  17.167  0.00  0.00    +0.000 A 
ATOM      7  C   UNL     1       1.159   3.762  17.998  0.00  0.00    +0.000 A 
ATOM      8  C   UNL     1       1.500   3.411  19.303  0.00  0.00    +0.000 A 
ATOM      9  N   UNL     1       0.737   2.983  20.356  0.00  0.00    +0.000 N 
ATOM     10  C   UNL     1       4.613   4.658  16.671  0.00  0.00    +0.000 C 
ATOM     11  C   UNL     1       5.901   5.054  17.394  0.00  0.00    +0.000 C 
ATOM     12  N   UNL     1       6.287   4.010  18.344  0.00  0.00    +0.000 NA
ATOM     13  C   UNL     1       5.294   3.924  19.430  0.00  0.00    +0.000 C 
ATOM     14  H   UNL     1      -0.260   2.838  20.366  0.00  0.00    +0.000 HD
ATOM     15  H   UNL     1       7.195   4.230  18.749  0.00  0.00    +0.000 HD
ENDROOT
BRANCH   1  16
ATOM     16  O   UNL     1       1.149   2.373  22.584  0.00  0.00    +0.000 OA
ATOM     17  H   UNL     1       0.496   3.053  22.822  0.00  0.00    +0.000 HD
ENDBRANCH   1  16
TORSDOF 1
ENDMDL
MODEL 3
REMARK VINA RESULT:      -6.5      1.101      1.268
REMARK  Name = 
REMARK  1 active torsions:
REMARK  status: ('A' for Active; 'I' for Inactive)
REMARK    1  A    between atoms: O_1  and  C_2
REMARK                            x       y       z     vdW  Elec       q    Type
REMARK                         _______ _______ _______ _____ _____    ______ ____
ROOT
ATOM      1  C   UNL     1       5.179   5.927  16.461  0.00  0.00    +0.000 A 
ATOM      2  N   UNL     1       4.598   4.760  16.552  0.00  0.00    +0.000 NA
ATOM      3  C   UNL     1       3.696   4.899  17.592  0.00  0.00    +0.000 A 
ATOM      4  C   UNL     1       2.791   3.965  18.148  0.00  0.00    +0.000 A 
ATOM      5  C   UNL     1       1.951   4.419  19.199  0.00  0.00    +0.000 A 
ATOM      6  C   UNL     1       2.052   5.726  19.700  0.00  0.00    +0.000 A 
ATOM      7  C   UNL     1       2.957   6.642  19.164  0.00  0.00    +0.000 A 
ATOM      8  C   UNL     1       3.754   6.192  18.112  0.00  0.00    +0.000 A 
ATOM      9  N   UNL     1       4.715   6.822  17.370  0.00  0.00    +0.000 N 
ATOM     10  C   UNL     1       0.970   3.466  19.843  0.00  0.00    +0.000 C 
ATOM     11  C   UNL     1       0.685   2.246  18.965  0.00  0.00    +0.000 C 
ATOM     12  N   UNL     1       1.941   1.638  18.523  0.00  0.00    +0.000 NA
ATOM     13  C   UNL     1       2.654   2.556  17.617  0.00  0.00    +0.000 C 
ATOM     14  H   UNL     1       5.031   7.774  17.465  0.00  0.00    +0.000 HD
ATOM     15  H   UNL     1       1.749   0.772  18.024  0.00  0.00    +0.000 HD
ENDROOT
BRANCH   1  16
ATOM     16  O   UNL     1       6.116   6.220  15.586  0.00  0.00    +0.000 OA
ATOM     17  H   UNL     1       6.766   6.699  16.128  0.00  0.00    +0.000 HD
ENDBRANCH   1  16
TORSDOF 1
ENDMDL
MODEL 4
REMARK VINA RESULT:      -6.5      1.953      1.997
REMARK  Name = 
REMARK  1 active torsions:
REMARK  status: ('A' for Active; 'I' for Inactive)
REMARK    1  A    between atoms: O_1  and  C_2
REMARK                            x       y       z     vdW  Elec       q    Type
REMARK                         _______ _______ _______ _____ _____    ______ ____
ROOT
ATOM      1  C   UNL     1       6.592   4.777  17.898  0.00  0.00    +0.000 A 
ATOM      2  N   UNL     1       5.970   3.947  18.694  0.00  0.00    +0.000 NA
ATOM      3  C   UNL     1       4.726   4.521  18.892  0.00  0.00    +0.000 A 
ATOM      4  C   UNL     1       3.629   4.079  19.666  0.00  0.00    +0.000 A 
ATOM      5  C   UNL     1       2.452   4.874  19.642  0.00  0.00    +0.000 A 
ATOM      6  C   UNL     1       2.399   6.077  18.921  0.00  0.00    +0.000 A 
ATOM      7  C   UNL     1       3.489   6.523  18.173  0.00  0.00    +0.000 A 
ATOM      8  C   UNL     1       4.626   5.717  18.181  0.00  0.00    +0.000 A 
ATOM      9  N   UNL     1       5.838   5.853  17.559  0.00  0.00    +0.000 N 
ATOM     10  C   UNL     1       1.248   4.460  20.457  0.00  0.00    +0.000 C 
ATOM     11  C   UNL     1       1.293   2.982  20.850  0.00  0.00    +0.000 C 
ATOM     12  N   UNL     1       2.588   2.658  21.450  0.00  0.00    +0.000 NA
ATOM     13  C   UNL     1       3.655   2.780  20.441  0.00  0.00    +0.000 C 
ATOM     14  H   UNL     1       6.132   6.605  16.956  0.00  0.00    +0.000 HD
ATOM     15  H   UNL     1       2.577   1.702  21.799  0.00  0.00    +0.000 HD
ENDROOT
BRANCH   1  16
ATOM     16  O   UNL     1       7.819   4.600  17.460  0.00  0.00    +0.000 OA
ATOM     17  H   UNL     1       8.296   5.340  17.874  0.00  0.00    +0.000 HD
ENDBRANCH   1  16
TORSDOF 1
ENDMDL
MODEL 5
REMARK VINA RESULT:      -6.5      2.446      2.951
REMARK  Name = 
REMARK  1 active torsions:
REMARK  status: ('A' for Active; 'I' for Inactive)
REMARK    1  A    between atoms: O_1  and  C_2
REMARK                            x       y       z     vdW  Elec       q    Type
REMARK                         _______ _______ _______ _____ _____    ______ ____
ROOT
ATOM      1  C   UNL     1       7.535   5.268  19.286  0.00  0.00    +0.000 A 
ATOM      2  N   UNL     1       6.341   5.232  19.818  0.00  0.00    +0.000 NA
ATOM      3  C   UNL     1       5.511   4.832  18.786  0.00  0.00    +0.000 A 
ATOM      4  C   UNL     1       4.113   4.624  18.766  0.00  0.00    +0.000 A 
ATOM      5  C   UNL     1       3.539   4.167  17.550  0.00  0.00    +0.000 A 
ATOM      6  C   UNL     1       4.321   3.981  16.399  0.00  0.00    +0.000 A 
ATOM      7  C   UNL     1       5.698   4.204  16.413  0.00  0.00    +0.000 A 
ATOM      8  C   UNL     1       6.252   4.622  17.622  0.00  0.00    +0.000 A 
ATOM      9  N   UNL     1       7.542   4.914  17.976  0.00  0.00    +0.000 N 
ATOM     10  C   UNL     1       2.048   3.936  17.461  0.00  0.00    +0.000 C 
ATOM     11  C   UNL     1       1.401   3.786  18.839  0.00  0.00    +0.000 C 
ATOM     12  N   UNL     1       1.806   4.890  19.710  0.00  0.00    +0.000 NA
ATOM     13  C   UNL     1       3.249   4.804  19.995  0.00  0.00    +0.000 C 
ATOM     14  H   UNL     1       8.358   4.876  17.386  0.00  0.00    +0.000 HD
ATOM     15  H   UNL     1       1.297   4.841  20.590  0.00  0.00    +0.000 HD
ENDROOT
BRANCH   1  16
ATOM     16  O   UNL     1       8.625   5.607  19.939  0.00  0.00    +0.000 OA
ATOM     17  H   UNL     1       9.023   4.743  20.142  0.00  0.00    +0.000 HD
ENDBRANCH   1  16
TORSDOF 1
ENDMDL
MODEL 6
REMARK VINA RESULT:      -6.3      2.218      2.616
REMARK  Name = 
REMARK  1 active torsions:
REMARK  status: ('A' for Active; 'I' for Inactive)
REMARK    1  A    between atoms: O_1  and  C_2
REMARK                            x       y       z     vdW  Elec       q    Type
REMARK                         _______ _______ _______ _____ _____    ______ ____
ROOT
ATOM      1  C   UNL     1       7.503   5.958  18.833  0.00  0.00    +0.000 A 
ATOM      2  N   UNL     1       6.673   5.185  19.482  0.00  0.00    +0.000 NA
ATOM      3  C   UNL     1       5.792   4.730  18.516  0.00  0.00    +0.000 A 
ATOM      4  C   UNL     1       4.678   3.867  18.628  0.00  0.00    +0.000 A 
ATOM      5  C   UNL     1       3.980   3.545  17.434  0.00  0.00    +0.000 A 
ATOM      6  C   UNL     1       4.350   4.104  16.200  0.00  0.00    +0.000 A 
ATOM      7  C   UNL     1       5.437   4.971  16.093  0.00  0.00    +0.000 A 
ATOM      8  C   UNL     1       6.132   5.253  17.268  0.00  0.00    +0.000 A 
ATOM      9  N   UNL     1       7.228   6.037  17.507  0.00  0.00    +0.000 N 
ATOM     10  C   UNL     1       2.774   2.636  17.489  0.00  0.00    +0.000 C 
ATOM     11  C   UNL     1       2.732   1.805  18.773  0.00  0.00    +0.000 C 
ATOM     12  N   UNL     1       2.909   2.670  19.940  0.00  0.00    +0.000 NA
ATOM     13  C   UNL     1       4.268   3.241  19.942  0.00  0.00    +0.000 C 
ATOM     14  H   UNL     1       7.747   6.578  16.834  0.00  0.00    +0.000 HD
ATOM     15  H   UNL     1       2.781   2.130  20.793  0.00  0.00    +0.000 HD
ENDROOT
BRANCH   1  16
ATOM     16  O   UNL     1       8.506   6.598  19.393  0.00  0.00    +0.000 OA
ATOM     17  H   UNL     1       8.087   7.424  19.689  0.00  0.00    +0.000 HD
ENDBRANCH   1  16
TORSDOF 1
ENDMDL
MODEL 7
REMARK VINA RESULT:      -6.3      2.382      4.494
REMARK  Name = 
REMARK  1 active torsions:
REMARK  status: ('A' for Active; 'I' for Inactive)
REMARK    1  A    between atoms: O_1  and  C_2
REMARK                            x       y       z     vdW  Elec       q    Type
REMARK                         _______ _______ _______ _____ _____    ______ ____
ROOT
ATOM      1  C   UNL     1       2.584   2.534  18.325  0.00  0.00    +0.000 A 
ATOM      2  N   UNL     1       3.827   2.741  17.981  0.00  0.00    +0.000 NA
ATOM      3  C   UNL     1       3.934   4.116  17.866  0.00  0.00    +0.000 A 
ATOM      4  C   UNL     1       5.042   4.921  17.515  0.00  0.00    +0.000 A 
ATOM      5  C   UNL     1       4.852   6.328  17.523  0.00  0.00    +0.000 A 
ATOM      6  C   UNL     1       3.602   6.894  17.816  0.00  0.00    +0.000 A 
ATOM      7  C   UNL     1       2.504   6.099  18.144  0.00  0.00    +0.000 A 
ATOM      8  C   UNL     1       2.712   4.721  18.163  0.00  0.00    +0.000 A 
ATOM      9  N   UNL     1       1.870   3.681  18.448  0.00  0.00    +0.000 N 
ATOM     10  C   UNL     1       5.996   7.243  17.146  0.00  0.00    +0.000 C 
ATOM     11  C   UNL     1       7.354   6.546  17.246  0.00  0.00    +0.000 C 
ATOM     12  N   UNL     1       7.320   5.270  16.532  0.00  0.00    +0.000 NA
ATOM     13  C   UNL     1       6.402   4.337  17.209  0.00  0.00    +0.000 C 
ATOM     14  H   UNL     1       0.897   3.738  18.705  0.00  0.00    +0.000 HD
ATOM     15  H   UNL     1       8.251   4.858  16.516  0.00  0.00    +0.000 HD
ENDROOT
BRANCH   1  16
ATOM     16  O   UNL     1       2.064   1.344  18.536  0.00  0.00    +0.000 OA
ATOM     17  H   UNL     1       2.848   0.809  18.748  0.00  0.00    +0.000 HD
ENDBRANCH   1  16
TORSDOF 1
ENDMDL
MODEL 8
REMARK VINA RESULT:      -6.2      1.112      1.112
REMARK  Name = 
REMARK  1 active torsions:
REMARK  status: ('A' for Active; 'I' for Inactive)
REMARK    1  A    between atoms: O_1  and  C_2
REMARK                            x       y       z     vdW  Elec       q    Type
REMARK                         _______ _______ _______ _____ _____    ______ ____
ROOT
ATOM      1  C   UNL     1       6.283   4.949  17.151  0.00  0.00    +0.000 A 
ATOM      2  N   UNL     1       5.526   3.887  17.238  0.00  0.00    +0.000 NA
ATOM      3  C   UNL     1       4.417   4.306  17.952  0.00  0.00    +0.000 A 
ATOM      4  C   UNL     1       3.267   3.591  18.357  0.00  0.00    +0.000 A 
ATOM      5  C   UNL     1       2.263   4.313  19.055  0.00  0.00    +0.000 A 
ATOM      6  C   UNL     1       2.430   5.669  19.376  0.00  0.00    +0.000 A 
ATOM      7  C   UNL     1       3.573   6.371  18.993  0.00  0.00    +0.000 A 
ATOM      8  C   UNL     1       4.536   5.657  18.281  0.00  0.00    +0.000 A 
ATOM      9  N   UNL     1       5.743   6.036  17.758  0.00  0.00    +0.000 N 
ATOM     10  C   UNL     1       1.014   3.603  19.525  0.00  0.00    +0.000 C 
ATOM     11  C   UNL     1       0.782   2.285  18.783  0.00  0.00    +0.000 C 
ATOM     12  N   UNL     1       2.000   1.474  18.801  0.00  0.00    +0.000 NA
ATOM     13  C   UNL     1       3.056   2.133  18.013  0.00  0.00    +0.000 C 
ATOM     14  H   UNL     1       6.166   6.950  17.803  0.00  0.00    +0.000 HD
ATOM     15  H   UNL     1       1.813   0.560  18.395  0.00  0.00    +0.000 HD
ENDROOT
BRANCH   1  16
ATOM     16  O   UNL     1       7.448   4.977  16.542  0.00  0.00    +0.000 OA
ATOM     17  H   UNL     1       7.230   5.403  15.695  0.00  0.00    +0.000 HD
ENDBRANCH   1  16
TORSDOF 1
ENDMDL
MODEL 9
REMARK VINA RESULT:      -6.2      2.939      4.600
REMARK  Name = 
REMARK  1 active torsions:
REMARK  status: ('A' for Active; 'I' for Inactive)
REMARK    1  A    between atoms: O_1  and  C_2
REMARK                            x       y       z     vdW  Elec       q    Type
REMARK                         _______ _______ _______ _____ _____    ______ ____
ROOT
ATOM      1  C   UNL     1       2.449   4.130  21.044  0.00  0.00    +0.000 A 
ATOM      2  N   UNL     1       3.278   3.755  20.106  0.00  0.00    +0.000 NA
ATOM      3  C   UNL     1       3.385   4.856  19.275  0.00  0.00    +0.000 A 
ATOM      4  C   UNL     1       4.137   5.039  18.092  0.00  0.00    +0.000 A 
ATOM      5  C   UNL     1       4.075   6.315  17.471  0.00  0.00    +0.000 A 
ATOM      6  C   UNL     1       3.260   7.336  17.983  0.00  0.00    +0.000 A 
ATOM      7  C   UNL     1       2.503   7.150  19.139  0.00  0.00    +0.000 A 
ATOM      8  C   UNL     1       2.597   5.903  19.755  0.00  0.00    +0.000 A 
ATOM      9  N   UNL     1       2.008   5.403  20.885  0.00  0.00    +0.000 N 
ATOM     10  C   UNL     1       4.849   6.570  16.197  0.00  0.00    +0.000 C 
ATOM     11  C   UNL     1       5.970   5.552  15.985  0.00  0.00    +0.000 C 
ATOM     12  N   UNL     1       5.452   4.191  16.133  0.00  0.00    +0.000 NA
ATOM     13  C   UNL     1       5.034   3.960  17.527  0.00  0.00    +0.000 C 
ATOM     14  H   UNL     1       1.366   5.880  21.499  0.00  0.00    +0.000 HD
ATOM     15  H   UNL     1       6.176   3.518  15.894  0.00  0.00    +0.000 HD
ENDROOT
BRANCH   1  16
ATOM     16  O   UNL     1       2.071   3.364  22.045  0.00  0.00    +0.000 OA
ATOM     17  H   UNL     1       2.360   2.482  21.754  0.00  0.00    +0.000 HD
ENDBRANCH   1  16
TORSDOF 1
ENDMDL
