MODEL 1
REMARK VINA RESULT:      -7.3      0.000      0.000
REMARK  Name = 
REMARK  11 active torsions:
REMARK  status: ('A' for Active; 'I' for Inactive)
REMARK    1  A    between atoms: C_1  and  N_2
REMARK    2  A    between atoms: N_2  and  C_3
REMARK    3  A    between atoms: N_9  and  C_10
REMARK    4  A    between atoms: C_10  and  C_11
REMARK    5  A    between atoms: C_11  and  C_12
REMARK    6  A    between atoms: C_12  and  N_13
REMARK    7  A    between atoms: C_14  and  O_16
REMARK    8  A    between atoms: O_16  and  C_17
REMARK    9  A    between atoms: C_17  and  C_18
REMARK   10  A    between atoms: C_17  and  C_19
REMARK   11  A    between atoms: C_17  and  C_20
REMARK                            x       y       z     vdW  Elec       q    Type
REMARK                         _______ _______ _______ _____ _____    ______ ____
ROOT
ATOM      1  C   UNL     1       2.667   6.272  18.609  0.00  0.00    +0.000 A 
ATOM      2  C   UNL     1       2.304   6.154  19.955  0.00  0.00    +0.000 A 
ATOM      3  C   UNL     1       1.530   7.120  20.570  0.00  0.00    +0.000 A 
ATOM      4  C   UNL     1       1.312   8.334  19.930  0.00  0.00    +0.000 A 
ATOM      5  C   UNL     1       0.603   9.392  20.589  0.00  0.00    +0.000 A 
ATOM      6  C   UNL     1       0.809  10.684  20.278  0.00  0.00    +0.000 A 
ATOM      7  N   UNL     1       1.615  11.050  19.186  0.00  0.00    +0.000 N 
ATOM      8  C   UNL     1       2.118  10.032  18.315  0.00  0.00    +0.000 A 
ATOM      9  O   UNL     1       2.795  10.251  17.317  0.00  0.00    +0.000 OA
ATOM     10  C   UNL     1       1.904   8.586  18.697  0.00  0.00    +0.000 A 
ATOM     11  C   UNL     1       2.470   7.511  17.976  0.00  0.00    +0.000 A 
ATOM     12  C   UNL     1       0.087  11.495  21.286  0.00  0.00    +0.000 A 
ATOM     13  C   UNL     1       0.014  12.844  21.605  0.00  0.00    +0.000 A 
ATOM     14  C   UNL     1      -0.768  13.262  22.703  0.00  0.00    +0.000 A 
ATOM     15  C   UNL     1      -1.488  12.349  23.488  0.00  0.00    +0.000 A 
ATOM     16  C   UNL     1      -1.422  10.993  23.197  0.00  0.00    +0.000 A 
ATOM     17  C   UNL     1      -0.634  10.623  22.121  0.00  0.00    +0.000 A 
ATOM     18  C   UNL     1      -0.359   9.269  21.702  0.00  0.00    +0.000 C 
ATOM     19  O   UNL     1      -0.814   8.263  22.194  0.00  0.00    +0.000 OA
ENDROOT
BRANCH   1  21
ATOM     20  C   UNL     1       4.405   5.430  17.107  0.00  0.00    +0.000 C 
ATOM     21  N   UNL     1       3.322   5.168  18.041  0.00  0.00    +0.000 N 
ATOM     22  H   UNL     1       2.637   4.558  17.594  0.00  0.00    +0.000 HD
ENDBRANCH   1  21
BRANCH   7  23
ATOM     23  C   UNL     1       1.950  12.482  19.011  0.00  0.00    +0.000 C 
BRANCH  23  24
ATOM     24  C   UNL     1       1.162  13.451  18.106  0.00  0.00    +0.000 C 
BRANCH  24  25
ATOM     25  C   UNL     1      -0.289  13.705  18.521  0.00  0.00    +0.000 C 
BRANCH  25  26
ATOM     26  N   UNL     1      -1.242  13.050  17.631  0.00  0.00    +0.000 N 
ATOM     27  C   UNL     1      -2.205  12.186  18.077  0.00  0.00    +0.000 C 
ATOM     28  O   UNL     1      -2.481  12.023  19.253  0.00  0.00    +0.000 OA
ATOM     29  H   UNL     1      -1.097  13.089  16.639  0.00  0.00    +0.000 HD
BRANCH  27  30
ATOM     30  O   UNL     1      -2.794  11.556  17.026  0.00  0.00    +0.000 OA
BRANCH  30  31
ATOM     31  C   UNL     1      -2.681  10.114  16.890  0.00  0.00    +0.000 C 
ATOM     32  C   UNL     1      -2.898   9.683  15.434  0.00  0.00    +0.000 C 
ATOM     33  C   UNL     1      -1.239   9.752  17.283  0.00  0.00    +0.000 C 
ATOM     34  C   UNL     1      -3.622   9.373  17.853  0.00  0.00    +0.000 C 
ENDBRANCH  30  31
ENDBRANCH  27  30
ENDBRANCH  25  26
ENDBRANCH  24  25
ENDBRANCH  23  24
ENDBRANCH   7  23
TORSDOF 7
ENDMDL
MODEL 2
REMARK VINA RESULT:      -7.0      2.544      6.234
REMARK  Name = 
REMARK  11 active torsions:
REMARK  status: ('A' for Active; 'I' for Inactive)
REMARK    1  A    between atoms: C_1  and  N_2
REMARK    2  A    between atoms: N_2  and  C_3
REMARK    3  A    between atoms: N_9  and  C_10
REMARK    4  A    between atoms: C_10  and  C_11
REMARK    5  A    between atoms: C_11  and  C_12
REMARK    6  A    between atoms: C_12  and  N_13
REMARK    7  A    between atoms: C_14  and  O_16
REMARK    8  A    between atoms: O_16  and  C_17
REMARK    9  A    between atoms: C_17  and  C_18
REMARK   10  A    between atoms: C_17  and  C_19
REMARK   11  A    between atoms: C_17  and  C_20
REMARK                            x       y       z     vdW  Elec       q    Type
REMARK                         _______ _______ _______ _____ _____    ______ ____
ROOT
ATOM      1  C   UNL     1      -2.922  10.704  15.829  0.00  0.00    +0.000 A 
ATOM      2  C   UNL     1      -4.200  10.834  16.382  0.00  0.00    +0.000 A 
ATOM      3  C   UNL     1      -4.387  11.451  17.604  0.00  0.00    +0.000 A 
ATOM      4  C   UNL     1      -3.288  11.727  18.409  0.00  0.00    +0.000 A 
ATOM      5  C   UNL     1      -3.461  12.268  19.725  0.00  0.00    +0.000 A 
ATOM      6  C   UNL     1      -2.556  12.068  20.699  0.00  0.00    +0.000 A 
ATOM      7  N   UNL     1      -1.322  11.448  20.429  0.00  0.00    +0.000 N 
ATOM      8  C   UNL     1      -0.973  11.144  19.074  0.00  0.00    +0.000 A 
ATOM      9  O   UNL     1       0.091  10.641  18.733  0.00  0.00    +0.000 OA
ATOM     10  C   UNL     1      -2.014  11.347  17.999  0.00  0.00    +0.000 A 
ATOM     11  C   UNL     1      -1.814  10.958  16.656  0.00  0.00    +0.000 A 
ATOM     12  C   UNL     1      -3.150  12.571  21.958  0.00  0.00    +0.000 A 
ATOM     13  C   UNL     1      -2.806  12.533  23.302  0.00  0.00    +0.000 A 
ATOM     14  C   UNL     1      -3.672  13.097  24.263  0.00  0.00    +0.000 A 
ATOM     15  C   UNL     1      -4.882  13.707  23.900  0.00  0.00    +0.000 A 
ATOM     16  C   UNL     1      -5.255  13.747  22.564  0.00  0.00    +0.000 A 
ATOM     17  C   UNL     1      -4.385  13.172  21.654  0.00  0.00    +0.000 A 
ATOM     18  C   UNL     1      -4.618  13.029  20.237  0.00  0.00    +0.000 C 
ATOM     19  O   UNL     1      -5.582  13.431  19.627  0.00  0.00    +0.000 OA
ENDROOT
BRANCH   1  21
ATOM     20  C   UNL     1      -4.104  10.057  13.788  0.00  0.00    +0.000 C 
ATOM     21  N   UNL     1      -2.857  10.202  14.520  0.00  0.00    +0.000 N 
ATOM     22  H   UNL     1      -2.366   9.308  14.522  0.00  0.00    +0.000 HD
ENDBRANCH   1  21
BRANCH   7  23
ATOM     23  C   UNL     1      -0.453  11.091  21.573  0.00  0.00    +0.000 C 
BRANCH  23  24
ATOM     24  C   UNL     1      -0.084   9.645  21.961  0.00  0.00    +0.000 C 
BRANCH  24  25
ATOM     25  C   UNL     1       1.387   9.268  21.768  0.00  0.00    +0.000 C 
BRANCH  25  26
ATOM     26  N   UNL     1       1.567   7.837  21.546  0.00  0.00    +0.000 N 
ATOM     27  C   UNL     1       1.814   7.301  20.310  0.00  0.00    +0.000 C 
ATOM     28  O   UNL     1       2.090   7.963  19.324  0.00  0.00    +0.000 OA
ATOM     29  H   UNL     1       1.338   7.191  22.278  0.00  0.00    +0.000 HD
BRANCH  27  30
ATOM     30  O   UNL     1       1.709   5.946  20.357  0.00  0.00    +0.000 OA
BRANCH  30  31
ATOM     31  C   UNL     1       2.548   5.126  19.501  0.00  0.00    +0.000 C 
ATOM     32  C   UNL     1       4.008   5.594  19.553  0.00  0.00    +0.000 C 
ATOM     33  C   UNL     1       2.486   3.698  20.070  0.00  0.00    +0.000 C 
ATOM     34  C   UNL     1       2.015   5.071  18.060  0.00  0.00    +0.000 C 
ENDBRANCH  30  31
ENDBRANCH  27  30
ENDBRANCH  25  26
ENDBRANCH  24  25
ENDBRANCH  23  24
ENDBRANCH   7  23
TORSDOF 7
ENDMDL
MODEL 3
REMARK VINA RESULT:      -6.9      2.721      7.734
REMARK  Name = 
REMARK  11 active torsions:
REMARK  status: ('A' for Active; 'I' for Inactive)
REMARK    1  A    between atoms: C_1  and  N_2
REMARK    2  A    between atoms: N_2  and  C_3
REMARK    3  A    between atoms: N_9  and  C_10
REMARK    4  A    between atoms: C_10  and  C_11
REMARK    5  A    between atoms: C_11  and  C_12
REMARK    6  A    between atoms: C_12  and  N_13
REMARK    7  A    between atoms: C_14  and  O_16
REMARK    8  A    between atoms: O_16  and  C_17
REMARK    9  A    between atoms: C_17  and  C_18
REMARK   10  A    between atoms: C_17  and  C_19
REMARK   11  A    between atoms: C_17  and  C_20
REMARK                            x       y       z     vdW  Elec       q    Type
REMARK                         _______ _______ _______ _____ _____    ______ ____
ROOT
ATOM      1  C   UNL     1      -2.032  14.492  23.320  0.00  0.00    +0.000 A 
ATOM      2  C   UNL     1      -2.809  14.983  22.266  0.00  0.00    +0.000 A 
ATOM      3  C   UNL     1      -3.128  14.183  21.184  0.00  0.00    +0.000 A 
ATOM      4  C   UNL     1      -2.477  12.967  21.015  0.00  0.00    +0.000 A 
ATOM      5  C   UNL     1      -2.710  12.167  19.848  0.00  0.00    +0.000 A 
ATOM      6  C   UNL     1      -1.786  11.310  19.380  0.00  0.00    +0.000 A 
ATOM      7  N   UNL     1      -0.608  11.044  20.101  0.00  0.00    +0.000 N 
ATOM      8  C   UNL     1      -0.452  11.596  21.413  0.00  0.00    +0.000 A 
ATOM      9  O   UNL     1       0.518  11.392  22.135  0.00  0.00    +0.000 OA
ATOM     10  C   UNL     1      -1.484  12.580  21.909  0.00  0.00    +0.000 A 
ATOM     11  C   UNL     1      -1.354  13.275  23.132  0.00  0.00    +0.000 A 
ATOM     12  C   UNL     1      -2.266  10.827  18.065  0.00  0.00    +0.000 A 
ATOM     13  C   UNL     1      -1.735  10.062  17.036  0.00  0.00    +0.000 A 
ATOM     14  C   UNL     1      -2.494   9.839  15.866  0.00  0.00    +0.000 A 
ATOM     15  C   UNL     1      -3.785  10.365  15.711  0.00  0.00    +0.000 A 
ATOM     16  C   UNL     1      -4.334  11.143  16.721  0.00  0.00    +0.000 A 
ATOM     17  C   UNL     1      -3.553  11.350  17.846  0.00  0.00    +0.000 A 
ATOM     18  C   UNL     1      -3.894  12.192  18.967  0.00  0.00    +0.000 C 
ATOM     19  O   UNL     1      -4.928  12.800  19.115  0.00  0.00    +0.000 OA
ENDROOT
BRANCH   1  21
ATOM     20  C   UNL     1      -3.015  15.423  25.357  0.00  0.00    +0.000 C 
ATOM     21  N   UNL     1      -1.894  15.332  24.436  0.00  0.00    +0.000 N 
ATOM     22  H   UNL     1      -1.640  16.271  24.127  0.00  0.00    +0.000 HD
ENDBRANCH   1  21
BRANCH   7  23
ATOM     23  C   UNL     1       0.447  10.239  19.446  0.00  0.00    +0.000 C 
BRANCH  23  24
ATOM     24  C   UNL     1       1.145   9.030  20.102  0.00  0.00    +0.000 C 
BRANCH  24  25
ATOM     25  C   UNL     1       1.939   8.133  19.148  0.00  0.00    +0.000 C 
BRANCH  25  26
ATOM     26  N   UNL     1       2.500   6.967  19.824  0.00  0.00    +0.000 N 
ATOM     27  C   UNL     1       3.015   5.893  19.149  0.00  0.00    +0.000 C 
ATOM     28  O   UNL     1       3.226   5.880  17.949  0.00  0.00    +0.000 OA
ATOM     29  H   UNL     1       2.359   6.855  20.810  0.00  0.00    +0.000 HD
BRANCH  27  30
ATOM     30  O   UNL     1       3.253   4.868  20.011  0.00  0.00    +0.000 OA
BRANCH  30  31
ATOM     31  C   UNL     1       2.385   3.705  20.010  0.00  0.00    +0.000 C 
ATOM     32  C   UNL     1       2.874   2.655  21.015  0.00  0.00    +0.000 C 
ATOM     33  C   UNL     1       1.000   4.194  20.468  0.00  0.00    +0.000 C 
ATOM     34  C   UNL     1       2.222   3.114  18.600  0.00  0.00    +0.000 C 
ENDBRANCH  30  31
ENDBRANCH  27  30
ENDBRANCH  25  26
ENDBRANCH  24  25
ENDBRANCH  23  24
ENDBRANCH   7  23
TORSDOF 7
ENDMDL
MODEL 4
REMARK VINA RESULT:      -6.9      3.001      6.086
REMARK  Name = 
REMARK  11 active torsions:
REMARK  status: ('A' for Active; 'I' for Inactive)
REMARK    1  A    between atoms: C_1  and  N_2
REMARK    2  A    between atoms: N_2  and  C_3
REMARK    3  A    between atoms: N_9  and  C_10
REMARK    4  A    between atoms: C_10  and  C_11
REMARK    5  A    between atoms: C_11  and  C_12
REMARK    6  A    between atoms: C_12  and  N_13
REMARK    7  A    between atoms: C_14  and  O_16
REMARK    8  A    between atoms: O_16  and  C_17
REMARK    9  A    between atoms: C_17  and  C_18
REMARK   10  A    between atoms: C_17  and  C_19
REMARK   11  A    between atoms: C_17  and  C_20
REMARK                            x       y       z     vdW  Elec       q    Type
REMARK                         _______ _______ _______ _____ _____    ______ ____
ROOT
ATOM      1  C   UNL     1       7.055   5.086  14.797  0.00  0.00    +0.000 A 
ATOM      2  C   UNL     1       7.167   4.004  15.676  0.00  0.00    +0.000 A 
ATOM      3  C   UNL     1       6.113   3.640  16.494  0.00  0.00    +0.000 A 
ATOM      4  C   UNL     1       5.024   4.492  16.629  0.00  0.00    +0.000 A 
ATOM      5  C   UNL     1       3.968   4.190  17.551  0.00  0.00    +0.000 A 
ATOM      6  C   UNL     1       3.209   5.154  18.100  0.00  0.00    +0.000 A 
ATOM      7  N   UNL     1       3.314   6.492  17.678  0.00  0.00    +0.000 N 
ATOM      8  C   UNL     1       4.148   6.809  16.559  0.00  0.00    +0.000 A 
ATOM      9  O   UNL     1       4.277   7.935  16.093  0.00  0.00    +0.000 OA
ATOM     10  C   UNL     1       5.017   5.720  15.976  0.00  0.00    +0.000 A 
ATOM     11  C   UNL     1       5.966   5.960  14.957  0.00  0.00    +0.000 A 
ATOM     12  C   UNL     1       2.381   4.514  19.148  0.00  0.00    +0.000 A 
ATOM     13  C   UNL     1       1.523   4.960  20.144  0.00  0.00    +0.000 A 
ATOM     14  C   UNL     1       0.927   4.030  21.022  0.00  0.00    +0.000 A 
ATOM     15  C   UNL     1       1.171   2.652  20.917  0.00  0.00    +0.000 A 
ATOM     16  C   UNL     1       2.034   2.182  19.937  0.00  0.00    +0.000 A 
ATOM     17  C   UNL     1       2.609   3.127  19.105  0.00  0.00    +0.000 A 
ATOM     18  C   UNL     1       3.595   2.864  18.083  0.00  0.00    +0.000 C 
ATOM     19  O   UNL     1       4.028   1.780  17.770  0.00  0.00    +0.000 OA
ENDROOT
BRANCH   1  21
ATOM     20  C   UNL     1       7.810   5.388  12.490  0.00  0.00    +0.000 C 
ATOM     21  N   UNL     1       8.122   5.277  13.906  0.00  0.00    +0.000 N 
ATOM     22  H   UNL     1       8.813   4.538  14.037  0.00  0.00    +0.000 HD
ENDBRANCH   1  21
BRANCH   7  23
ATOM     23  C   UNL     1       2.589   7.528  18.448  0.00  0.00    +0.000 C 
BRANCH  23  24
ATOM     24  C   UNL     1       1.663   8.586  17.815  0.00  0.00    +0.000 C 
BRANCH  24  25
ATOM     25  C   UNL     1       1.190   9.695  18.759  0.00  0.00    +0.000 C 
BRANCH  25  26
ATOM     26  N   UNL     1       0.261  10.614  18.111  0.00  0.00    +0.000 N 
ATOM     27  C   UNL     1      -0.876  11.075  18.719  0.00  0.00    +0.000 C 
ATOM     28  O   UNL     1      -1.126  10.920  19.902  0.00  0.00    +0.000 OA
ATOM     29  H   UNL     1       0.350  10.793  17.128  0.00  0.00    +0.000 HD
BRANCH  27  30
ATOM     30  O   UNL     1      -1.661  11.724  17.817  0.00  0.00    +0.000 OA
BRANCH  30  31
ATOM     31  C   UNL     1      -2.840  11.068  17.281  0.00  0.00    +0.000 C 
ATOM     32  C   UNL     1      -2.796  11.030  15.748  0.00  0.00    +0.000 C 
ATOM     33  C   UNL     1      -2.802   9.617  17.793  0.00  0.00    +0.000 C 
ATOM     34  C   UNL     1      -4.137  11.707  17.801  0.00  0.00    +0.000 C 
ENDBRANCH  30  31
ENDBRANCH  27  30
ENDBRANCH  25  26
ENDBRANCH  24  25
ENDBRANCH  23  24
ENDBRANCH   7  23
TORSDOF 7
ENDMDL
MODEL 5
REMARK VINA RESULT:      -6.6      1.052      1.370
REMARK  Name = 
REMARK  11 active torsions:
REMARK  status: ('A' for Active; 'I' for Inactive)
REMARK    1  A    between atoms: C_1  and  N_2
REMARK    2  A    between atoms: N_2  and  C_3
REMARK    3  A    between atoms: N_9  and  C_10
REMARK    4  A    between atoms: C_10  and  C_11
REMARK    5  A    between atoms: C_11  and  C_12
REMARK    6  A    between atoms: C_12  and  N_13
REMARK    7  A    between atoms: C_14  and  O_16
REMARK    8  A    between atoms: O_16  and  C_17
REMARK    9  A    between atoms: C_17  and  C_18
REMARK   10  A    between atoms: C_17  and  C_19
REMARK   11  A    between atoms: C_17  and  C_20
REMARK                            x       y       z     vdW  Elec       q    Type
REMARK                         _______ _______ _______ _____ _____    ______ ____
ROOT
ATOM      1  C   UNL     1       2.055   7.027  19.621  0.00  0.00    +0.000 A 
ATOM      2  C   UNL     1       1.727   7.114  20.978  0.00  0.00    +0.000 A 
ATOM      3  C   UNL     1       1.047   8.209  21.476  0.00  0.00    +0.000 A 
ATOM      4  C   UNL     1       0.899   9.343  20.686  0.00  0.00    +0.000 A 
ATOM      5  C   UNL     1       0.292  10.530  21.214  0.00  0.00    +0.000 A 
ATOM      6  C   UNL     1       0.583  11.750  20.730  0.00  0.00    +0.000 A 
ATOM      7  N   UNL     1       1.378  11.907  19.581  0.00  0.00    +0.000 N 
ATOM      8  C   UNL     1       1.777  10.747  18.843  0.00  0.00    +0.000 A 
ATOM      9  O   UNL     1       2.436  10.780  17.810  0.00  0.00    +0.000 OA
ATOM     10  C   UNL     1       1.469   9.385  19.418  0.00  0.00    +0.000 A 
ATOM     11  C   UNL     1       1.929   8.184  18.833  0.00  0.00    +0.000 A 
ATOM     12  C   UNL     1      -0.044  12.739  21.636  0.00  0.00    +0.000 A 
ATOM     13  C   UNL     1      -0.006  14.120  21.776  0.00  0.00    +0.000 A 
ATOM     14  C   UNL     1      -0.719  14.738  22.826  0.00  0.00    +0.000 A 
ATOM     15  C   UNL     1      -1.480  13.994  23.740  0.00  0.00    +0.000 A 
ATOM     16  C   UNL     1      -1.524  12.611  23.630  0.00  0.00    +0.000 A 
ATOM     17  C   UNL     1      -0.800  12.043  22.596  0.00  0.00    +0.000 A 
ATOM     18  C   UNL     1      -0.641  10.629  22.354  0.00  0.00    +0.000 C 
ATOM     19  O   UNL     1      -1.152   9.734  22.986  0.00  0.00    +0.000 OA
ENDROOT
BRANCH   1  21
ATOM     20  C   UNL     1       2.099   5.235  17.956  0.00  0.00    +0.000 C 
ATOM     21  N   UNL     1       2.607   5.811  19.190  0.00  0.00    +0.000 N 
ATOM     22  H   UNL     1       2.531   5.118  19.936  0.00  0.00    +0.000 HD
ENDBRANCH   1  21
BRANCH   7  23
ATOM     23  C   UNL     1       1.813  13.273  19.211  0.00  0.00    +0.000 C 
BRANCH  23  24
ATOM     24  C   UNL     1       1.034  14.199  18.254  0.00  0.00    +0.000 C 
BRANCH  24  25
ATOM     25  C   UNL     1      -0.489  14.044  18.285  0.00  0.00    +0.000 C 
BRANCH  25  26
ATOM     26  N   UNL     1      -0.947  12.922  17.473  0.00  0.00    +0.000 N 
ATOM     27  C   UNL     1      -1.746  11.925  17.965  0.00  0.00    +0.000 C 
ATOM     28  O   UNL     1      -2.298  11.968  19.050  0.00  0.00    +0.000 OA
ATOM     29  H   UNL     1      -0.537  12.766  16.571  0.00  0.00    +0.000 HD
BRANCH  27  30
ATOM     30  O   UNL     1      -1.828  10.904  17.069  0.00  0.00    +0.000 OA
BRANCH  30  31
ATOM     31  C   UNL     1      -3.127  10.455  16.601  0.00  0.00    +0.000 C 
ATOM     32  C   UNL     1      -3.016   9.807  15.216  0.00  0.00    +0.000 C 
ATOM     33  C   UNL     1      -3.598   9.378  17.594  0.00  0.00    +0.000 C 
ATOM     34  C   UNL     1      -4.166  11.587  16.622  0.00  0.00    +0.000 C 
ENDBRANCH  30  31
ENDBRANCH  27  30
ENDBRANCH  25  26
ENDBRANCH  24  25
ENDBRANCH  23  24
ENDBRANCH   7  23
TORSDOF 7
ENDMDL
MODEL 6
REMARK VINA RESULT:      -6.6      3.097      8.071
REMARK  Name = 
REMARK  11 active torsions:
REMARK  status: ('A' for Active; 'I' for Inactive)
REMARK    1  A    between atoms: C_1  and  N_2
REMARK    2  A    between atoms: N_2  and  C_3
REMARK    3  A    between atoms: N_9  and  C_10
REMARK    4  A    between atoms: C_10  and  C_11
REMARK    5  A    between atoms: C_11  and  C_12
REMARK    6  A    between atoms: C_12  and  N_13
REMARK    7  A    between atoms: C_14  and  O_16
REMARK    8  A    between atoms: O_16  and  C_17
REMARK    9  A    between atoms: C_17  and  C_18
REMARK   10  A    between atoms: C_17  and  C_19
REMARK   11  A    between atoms: C_17  and  C_20
REMARK                            x       y       z     vdW  Elec       q    Type
REMARK                         _______ _______ _______ _____ _____    ______ ____
ROOT
ATOM      1  C   UNL     1      -3.679  15.025  23.227  0.00  0.00    +0.000 A 
ATOM      2  C   UNL     1      -4.270  15.327  21.996  0.00  0.00    +0.000 A 
ATOM      3  C   UNL     1      -4.264  14.411  20.960  0.00  0.00    +0.000 A 
ATOM      4  C   UNL     1      -3.459  13.282  21.048  0.00  0.00    +0.000 A 
ATOM      5  C   UNL     1      -3.352  12.371  19.945  0.00  0.00    +0.000 A 
ATOM      6  C   UNL     1      -2.260  11.609  19.759  0.00  0.00    +0.000 A 
ATOM      7  N   UNL     1      -1.236  11.557  20.721  0.00  0.00    +0.000 N 
ATOM      8  C   UNL     1      -1.420  12.223  21.975  0.00  0.00    +0.000 A 
ATOM      9  O   UNL     1      -0.605  12.204  22.891  0.00  0.00    +0.000 OA
ATOM     10  C   UNL     1      -2.637  13.099  22.155  0.00  0.00    +0.000 A 
ATOM     11  C   UNL     1      -2.844  13.897  23.302  0.00  0.00    +0.000 A 
ATOM     12  C   UNL     1      -2.398  10.967  18.432  0.00  0.00    +0.000 A 
ATOM     13  C   UNL     1      -1.581  10.202  17.611  0.00  0.00    +0.000 A 
ATOM     14  C   UNL     1      -2.049   9.791  16.344  0.00  0.00    +0.000 A 
ATOM     15  C   UNL     1      -3.331  10.130  15.884  0.00  0.00    +0.000 A 
ATOM     16  C   UNL     1      -4.163  10.904  16.681  0.00  0.00    +0.000 A 
ATOM     17  C   UNL     1      -3.662  11.298  17.910  0.00  0.00    +0.000 A 
ATOM     18  C   UNL     1      -4.322  12.171  18.851  0.00  0.00    +0.000 C 
ATOM     19  O   UNL     1      -5.426  12.648  18.729  0.00  0.00    +0.000 OA
ENDROOT
BRANCH   1  21
ATOM     20  C   UNL     1      -5.223  16.447  24.483  0.00  0.00    +0.000 C 
ATOM     21  N   UNL     1      -3.872  15.959  24.257  0.00  0.00    +0.000 N 
ATOM     22  H   UNL     1      -3.250  16.755  24.117  0.00  0.00    +0.000 HD
ENDBRANCH   1  21
BRANCH   7  23
ATOM     23  C   UNL     1       0.017  10.849  20.373  0.00  0.00    +0.000 C 
BRANCH  23  24
ATOM     24  C   UNL     1       0.539   9.600  21.112  0.00  0.00    +0.000 C 
BRANCH  24  25
ATOM     25  C   UNL     1       1.357   8.626  20.259  0.00  0.00    +0.000 C 
BRANCH  25  26
ATOM     26  N   UNL     1       1.605   7.363  20.947  0.00  0.00    +0.000 N 
ATOM     27  C   UNL     1       2.064   6.245  20.305  0.00  0.00    +0.000 C 
ATOM     28  O   UNL     1       2.482   6.240  19.160  0.00  0.00    +0.000 OA
ATOM     29  H   UNL     1       1.275   7.240  21.886  0.00  0.00    +0.000 HD
BRANCH  27  30
ATOM     30  O   UNL     1       1.986   5.166  21.129  0.00  0.00    +0.000 OA
BRANCH  30  31
ATOM     31  C   UNL     1       1.968   3.826  20.569  0.00  0.00    +0.000 C 
ATOM     32  C   UNL     1       0.740   3.624  19.672  0.00  0.00    +0.000 C 
ATOM     33  C   UNL     1       3.225   3.706  19.689  0.00  0.00    +0.000 C 
ATOM     34  C   UNL     1       2.064   2.748  21.660  0.00  0.00    +0.000 C 
ENDBRANCH  30  31
ENDBRANCH  27  30
ENDBRANCH  25  26
ENDBRANCH  24  25
ENDBRANCH  23  24
ENDBRANCH   7  23
TORSDOF 7
ENDMDL
MODEL 7
REMARK VINA RESULT:      -6.6      1.427      1.778
REMARK  Name = 
REMARK  11 active torsions:
REMARK  status: ('A' for Active; 'I' for Inactive)
REMARK    1  A    between atoms: C_1  and  N_2
REMARK    2  A    between atoms: N_2  and  C_3
REMARK    3  A    between atoms: N_9  and  C_10
REMARK    4  A    between atoms: C_10  and  C_11
REMARK    5  A    between atoms: C_11  and  C_12
REMARK    6  A    between atoms: C_12  and  N_13
REMARK    7  A    between atoms: C_14  and  O_16
REMARK    8  A    between atoms: O_16  and  C_17
REMARK    9  A    between atoms: C_17  and  C_18
REMARK   10  A    between atoms: C_17  and  C_19
REMARK   11  A    between atoms: C_17  and  C_20
REMARK                            x       y       z     vdW  Elec       q    Type
REMARK                         _______ _______ _______ _____ _____    ______ ____
ROOT
ATOM      1  C   UNL     1       2.689   6.230  18.868  0.00  0.00    +0.000 A 
ATOM      2  C   UNL     1       2.418   6.199  20.239  0.00  0.00    +0.000 A 
ATOM      3  C   UNL     1       1.599   7.146  20.825  0.00  0.00    +0.000 A 
ATOM      4  C   UNL     1       1.237   8.279  20.105  0.00  0.00    +0.000 A 
ATOM      5  C   UNL     1       0.478   9.327  20.722  0.00  0.00    +0.000 A 
ATOM      6  C   UNL     1       0.550  10.600  20.296  0.00  0.00    +0.000 A 
ATOM      7  N   UNL     1       1.255  10.937  19.126  0.00  0.00    +0.000 N 
ATOM      8  C   UNL     1       1.795   9.893  18.309  0.00  0.00    +0.000 A 
ATOM      9  O   UNL     1       2.390  10.081  17.254  0.00  0.00    +0.000 OA
ATOM     10  C   UNL     1       1.732   8.473  18.820  0.00  0.00    +0.000 A 
ATOM     11  C   UNL     1       2.347   7.390  18.151  0.00  0.00    +0.000 A 
ATOM     12  C   UNL     1      -0.180  11.432  21.280  0.00  0.00    +0.000 A 
ATOM     13  C   UNL     1      -0.352  12.792  21.494  0.00  0.00    +0.000 A 
ATOM     14  C   UNL     1      -1.102  13.237  22.604  0.00  0.00    +0.000 A 
ATOM     15  C   UNL     1      -1.691  12.338  23.505  0.00  0.00    +0.000 A 
ATOM     16  C   UNL     1      -1.524  10.973  23.320  0.00  0.00    +0.000 A 
ATOM     17  C   UNL     1      -0.770  10.578  22.228  0.00  0.00    +0.000 A 
ATOM     18  C   UNL     1      -0.403   9.221  21.902  0.00  0.00    +0.000 C 
ATOM     19  O   UNL     1      -0.737   8.226  22.503  0.00  0.00    +0.000 OA
ENDROOT
BRANCH   1  21
ATOM     20  C   UNL     1       2.663   4.141  17.596  0.00  0.00    +0.000 C 
ATOM     21  N   UNL     1       3.404   5.140  18.349  0.00  0.00    +0.000 N 
ATOM     22  H   UNL     1       3.916   4.678  19.101  0.00  0.00    +0.000 HD
ENDBRANCH   1  21
BRANCH   7  23
ATOM     23  C   UNL     1       1.452  12.371  18.815  0.00  0.00    +0.000 C 
BRANCH  23  24
ATOM     24  C   UNL     1       0.360  13.286  18.224  0.00  0.00    +0.000 C 
BRANCH  24  25
ATOM     25  C   UNL     1      -0.849  12.564  17.625  0.00  0.00    +0.000 C 
BRANCH  25  26
ATOM     26  N   UNL     1      -2.034  12.675  18.470  0.00  0.00    +0.000 N 
ATOM     27  C   UNL     1      -2.972  11.682  18.570  0.00  0.00    +0.000 C 
ATOM     28  O   UNL     1      -2.823  10.558  18.124  0.00  0.00    +0.000 OA
ATOM     29  H   UNL     1      -2.275  13.564  18.867  0.00  0.00    +0.000 HD
BRANCH  27  30
ATOM     30  O   UNL     1      -4.067  12.138  19.236  0.00  0.00    +0.000 OA
BRANCH  30  31
ATOM     31  C   UNL     1      -5.369  12.103  18.594  0.00  0.00    +0.000 C 
ATOM     32  C   UNL     1      -5.230  12.171  17.068  0.00  0.00    +0.000 C 
ATOM     33  C   UNL     1      -5.996  10.745  18.955  0.00  0.00    +0.000 C 
ATOM     34  C   UNL     1      -6.302  13.199  19.133  0.00  0.00    +0.000 C 
ENDBRANCH  30  31
ENDBRANCH  27  30
ENDBRANCH  25  26
ENDBRANCH  24  25
ENDBRANCH  23  24
ENDBRANCH   7  23
TORSDOF 7
ENDMDL
MODEL 8
REMARK VINA RESULT:      -6.6      2.818      4.690
REMARK  Name = 
REMARK  11 active torsions:
REMARK  status: ('A' for Active; 'I' for Inactive)
REMARK    1  A    between atoms: C_1  and  N_2
REMARK    2  A    between atoms: N_2  and  C_3
REMARK    3  A    between atoms: N_9  and  C_10
REMARK    4  A    between atoms: C_10  and  C_11
REMARK    5  A    between atoms: C_11  and  C_12
REMARK    6  A    between atoms: C_12  and  N_13
REMARK    7  A    between atoms: C_14  and  O_16
REMARK    8  A    between atoms: O_16  and  C_17
REMARK    9  A    between atoms: C_17  and  C_18
REMARK   10  A    between atoms: C_17  and  C_19
REMARK   11  A    between atoms: C_17  and  C_20
REMARK                            x       y       z     vdW  Elec       q    Type
REMARK                         _______ _______ _______ _____ _____    ______ ____
ROOT
ATOM      1  C   UNL     1       2.167   7.480  18.989  0.00  0.00    +0.000 A 
ATOM      2  C   UNL     1       2.247   8.364  17.908  0.00  0.00    +0.000 A 
ATOM      3  C   UNL     1       1.993   9.713  18.071  0.00  0.00    +0.000 A 
ATOM      4  C   UNL     1       1.417  10.164  19.253  0.00  0.00    +0.000 A 
ATOM      5  C   UNL     1       1.045  11.541  19.408  0.00  0.00    +0.000 A 
ATOM      6  C   UNL     1       0.061  11.920  20.242  0.00  0.00    +0.000 A 
ATOM      7  N   UNL     1      -0.546  11.001  21.116  0.00  0.00    +0.000 N 
ATOM      8  C   UNL     1      -0.019   9.673  21.211  0.00  0.00    +0.000 A 
ATOM      9  O   UNL     1      -0.452   8.812  21.969  0.00  0.00    +0.000 OA
ATOM     10  C   UNL     1       1.064   9.256  20.246  0.00  0.00    +0.000 A 
ATOM     11  C   UNL     1       1.559   7.934  20.173  0.00  0.00    +0.000 A 
ATOM     12  C   UNL     1      -0.195  13.356  19.989  0.00  0.00    +0.000 A 
ATOM     13  C   UNL     1      -1.146  14.280  20.400  0.00  0.00    +0.000 A 
ATOM     14  C   UNL     1      -1.103  15.599  19.897  0.00  0.00    +0.000 A 
ATOM     15  C   UNL     1      -0.117  16.012  18.989  0.00  0.00    +0.000 A 
ATOM     16  C   UNL     1       0.838  15.103  18.554  0.00  0.00    +0.000 A 
ATOM     17  C   UNL     1       0.754  13.817  19.060  0.00  0.00    +0.000 A 
ATOM     18  C   UNL     1       1.587  12.703  18.677  0.00  0.00    +0.000 C 
ATOM     19  O   UNL     1       2.510  12.736  17.896  0.00  0.00    +0.000 OA
ENDROOT
BRANCH   1  21
ATOM     20  C   UNL     1       2.233   5.150  19.729  0.00  0.00    +0.000 C 
ATOM     21  N   UNL     1       2.591   6.164  18.751  0.00  0.00    +0.000 N 
ATOM     22  H   UNL     1       3.602   6.151  18.613  0.00  0.00    +0.000 HD
ENDBRANCH   1  21
BRANCH   7  23
ATOM     23  C   UNL     1      -1.742  11.437  21.871  0.00  0.00    +0.000 C 
BRANCH  23  24
ATOM     24  C   UNL     1      -1.692  12.148  23.238  0.00  0.00    +0.000 C 
BRANCH  24  25
ATOM     25  C   UNL     1      -2.983  12.855  23.660  0.00  0.00    +0.000 C 
BRANCH  25  26
ATOM     26  N   UNL     1      -4.153  12.328  22.966  0.00  0.00    +0.000 N 
ATOM     27  C   UNL     1      -5.248  13.093  22.668  0.00  0.00    +0.000 C 
ATOM     28  O   UNL     1      -5.282  14.306  22.779  0.00  0.00    +0.000 OA
ATOM     29  H   UNL     1      -4.250  11.337  22.846  0.00  0.00    +0.000 HD
BRANCH  27  30
ATOM     30  O   UNL     1      -6.268  12.304  22.234  0.00  0.00    +0.000 OA
BRANCH  30  31
ATOM     31  C   UNL     1      -6.590  12.252  20.819  0.00  0.00    +0.000 C 
ATOM     32  C   UNL     1      -7.144  10.874  20.434  0.00  0.00    +0.000 C 
ATOM     33  C   UNL     1      -7.700  13.292  20.587  0.00  0.00    +0.000 C 
ATOM     34  C   UNL     1      -5.392  12.652  19.944  0.00  0.00    +0.000 C 
ENDBRANCH  30  31
ENDBRANCH  27  30
ENDBRANCH  25  26
ENDBRANCH  24  25
ENDBRANCH  23  24
ENDBRANCH   7  23
TORSDOF 7
ENDMDL
MODEL 9
REMARK VINA RESULT:      -6.5      2.930      7.920
REMARK  Name = 
REMARK  11 active torsions:
REMARK  status: ('A' for Active; 'I' for Inactive)
REMARK    1  A    between atoms: C_1  and  N_2
REMARK    2  A    between atoms: N_2  and  C_3
REMARK    3  A    between atoms: N_9  and  C_10
REMARK    4  A    between atoms: C_10  and  C_11
REMARK    5  A    between atoms: C_11  and  C_12
REMARK    6  A    between atoms: C_12  and  N_13
REMARK    7  A    between atoms: C_14  and  O_16
REMARK    8  A    between atoms: O_16  and  C_17
REMARK    9  A    between atoms: C_17  and  C_18
REMARK   10  A    between atoms: C_17  and  C_19
REMARK   11  A    between atoms: C_17  and  C_20
REMARK                            x       y       z     vdW  Elec       q    Type
REMARK                         _______ _______ _______ _____ _____    ______ ____
ROOT
ATOM      1  C   UNL     1      -3.650  14.627  23.559  0.00  0.00    +0.000 A 
ATOM      2  C   UNL     1      -4.233  15.059  22.363  0.00  0.00    +0.000 A 
ATOM      3  C   UNL     1      -4.259  14.243  21.248  0.00  0.00    +0.000 A 
ATOM      4  C   UNL     1      -3.490  13.085  21.227  0.00  0.00    +0.000 A 
ATOM      5  C   UNL     1      -3.414  12.277  20.045  0.00  0.00    +0.000 A 
ATOM      6  C   UNL     1      -2.348  11.502  19.784  0.00  0.00    +0.000 A 
ATOM      7  N   UNL     1      -1.324  11.328  20.733  0.00  0.00    +0.000 N 
ATOM      8  C   UNL     1      -1.484  11.882  22.043  0.00  0.00    +0.000 A 
ATOM      9  O   UNL     1      -0.669  11.753  22.950  0.00  0.00    +0.000 OA
ATOM     10  C   UNL     1      -2.672  12.775  22.309  0.00  0.00    +0.000 A 
ATOM     11  C   UNL     1      -2.851  13.470  23.526  0.00  0.00    +0.000 A 
ATOM     12  C   UNL     1      -2.509  10.989  18.404  0.00  0.00    +0.000 A 
ATOM     13  C   UNL     1      -1.719  10.277  17.513  0.00  0.00    +0.000 A 
ATOM     14  C   UNL     1      -2.202  10.000  16.215  0.00  0.00    +0.000 A 
ATOM     15  C   UNL     1      -3.473  10.420  15.795  0.00  0.00    +0.000 A 
ATOM     16  C   UNL     1      -4.278  11.143  16.664  0.00  0.00    +0.000 A 
ATOM     17  C   UNL     1      -3.762  11.406  17.922  0.00  0.00    +0.000 A 
ATOM     18  C   UNL     1      -4.392  12.210  18.942  0.00  0.00    +0.000 C 
ATOM     19  O   UNL     1      -5.481  12.731  18.869  0.00  0.00    +0.000 OA
ENDROOT
BRANCH   1  21
ATOM     20  C   UNL     1      -2.612  15.933  25.347  0.00  0.00    +0.000 C 
ATOM     21  N   UNL     1      -3.812  15.467  24.671  0.00  0.00    +0.000 N 
ATOM     22  H   UNL     1      -4.425  15.017  25.352  0.00  0.00    +0.000 HD
ENDBRANCH   1  21
BRANCH   7  23
ATOM     23  C   UNL     1      -0.095  10.616  20.315  0.00  0.00    +0.000 C 
BRANCH  23  24
ATOM     24  C   UNL     1       0.283   9.196  20.782  0.00  0.00    +0.000 C 
BRANCH  24  25
ATOM     25  C   UNL     1       1.645   8.687  20.302  0.00  0.00    +0.000 C 
BRANCH  25  26
ATOM     26  N   UNL     1       1.810   7.255  20.526  0.00  0.00    +0.000 N 
ATOM     27  C   UNL     1       2.456   6.433  19.641  0.00  0.00    +0.000 C 
ATOM     28  O   UNL     1       3.106   6.833  18.691  0.00  0.00    +0.000 OA
ATOM     29  H   UNL     1       1.296   6.808  21.262  0.00  0.00    +0.000 HD
BRANCH  27  30
ATOM     30  O   UNL     1       2.264   5.131  19.984  0.00  0.00    +0.000 OA
BRANCH  30  31
ATOM     31  C   UNL     1       2.457   4.086  18.995  0.00  0.00    +0.000 C 
ATOM     32  C   UNL     1       1.998   2.727  19.537  0.00  0.00    +0.000 C 
ATOM     33  C   UNL     1       1.560   4.448  17.799  0.00  0.00    +0.000 C 
ATOM     34  C   UNL     1       3.907   4.040  18.486  0.00  0.00    +0.000 C 
ENDBRANCH  30  31
ENDBRANCH  27  30
ENDBRANCH  25  26
ENDBRANCH  24  25
ENDBRANCH  23  24
ENDBRANCH   7  23
TORSDOF 7
ENDMDL
