MODEL 1
REMARK VINA RESULT:      -7.3      0.000      0.000
REMARK  Name = 
REMARK  4 active torsions:
REMARK  status: ('A' for Active; 'I' for Inactive)
REMARK    1  A    between atoms: C_5  and  C_6
REMARK    2  A    between atoms: N_20  and  C_21
REMARK    3  A    between atoms: N_24  and  S_25
REMARK    4  A    between atoms: S_25  and  N_26
REMARK                            x       y       z     vdW  Elec       q    Type
REMARK                         _______ _______ _______ _____ _____    ______ ____
ROOT
ATOM      1  C   UNL     1      -0.773  11.491  19.828  0.00  0.00    +0.000 A 
ATOM      2  N   UNL     1       0.345  12.098  19.456  0.00  0.00    +0.000 NA
ATOM      3  C   UNL     1       0.427  13.408  19.740  0.00  0.00    +0.000 A 
ATOM      4  N   UNL     1       1.633  14.009  19.399  0.00  0.00    +0.000 N 
ATOM      5  C   UNL     1       1.686  15.456  19.361  0.00  0.00    +0.000 C 
ATOM      6  C   UNL     1       3.010  16.012  18.800  0.00  0.00    +0.000 C 
ATOM      7  O   UNL     1       4.104  15.098  18.791  0.00  0.00    +0.000 OA
ATOM      8  C   UNL     1       3.812  13.885  18.111  0.00  0.00    +0.000 C 
ATOM      9  C   UNL     1       2.483  13.225  18.496  0.00  0.00    +0.000 C 
ATOM     10  N   UNL     1      -0.611  14.058  20.353  0.00  0.00    +0.000 NA
ATOM     11  C   UNL     1      -1.608  13.291  20.882  0.00  0.00    +0.000 A 
ATOM     12  C   UNL     1      -1.321  11.957  20.983  0.00  0.00    +0.000 A 
ATOM     13  C   UNL     1      -0.682  11.959  22.381  0.00  0.00    +0.000 C 
ATOM     14  C   UNL     1      -1.416  13.158  23.057  0.00  0.00    +0.000 C 
ATOM     15  N   UNL     1      -2.406  13.691  22.063  0.00  0.00    +0.000 N 
ENDROOT
BRANCH   1  20
ATOM     16  N   UNL     1      -3.875  10.343  15.303  0.00  0.00    +0.000 N 
ATOM     17  C   UNL     1      -3.129  10.624  16.420  0.00  0.00    +0.000 A 
ATOM     18  N   UNL     1      -3.593  11.528  17.288  0.00  0.00    +0.000 NA
ATOM     19  C   UNL     1      -2.845  11.782  18.386  0.00  0.00    +0.000 A 
ATOM     20  C   UNL     1      -1.646  11.160  18.674  0.00  0.00    +0.000 A 
ATOM     21  C   UNL     1      -1.283  10.236  17.696  0.00  0.00    +0.000 A 
ATOM     22  N   UNL     1      -1.994   9.948  16.585  0.00  0.00    +0.000 NA
ATOM     23  H   UNL     1      -4.845  10.548  15.478  0.00  0.00    +0.000 HD
ATOM     24  H   UNL     1      -3.643   9.419  14.961  0.00  0.00    +0.000 HD
ENDBRANCH   1  20
BRANCH  15  25
ATOM     25  C   UNL     1      -3.709  12.901  22.209  0.00  0.00    +0.000 C 
ATOM     26  C   UNL     1      -4.804  13.135  21.178  0.00  0.00    +0.000 C 
ATOM     27  C   UNL     1      -5.855  13.977  21.868  0.00  0.00    +0.000 C 
ATOM     28  N   UNL     1      -5.795  13.604  23.307  0.00  0.00    +0.000 NA
ATOM     29  C   UNL     1      -4.400  13.149  23.572  0.00  0.00    +0.000 C 
BRANCH  28  30
ATOM     30  S   UNL     1      -7.068  12.637  23.822  0.00  0.00    +0.000 S 
ATOM     31  O   UNL     1      -7.914  13.400  24.693  0.00  0.00    +0.000 OA
ATOM     32  O   UNL     1      -7.559  11.905  22.679  0.00  0.00    +0.000 OA
BRANCH  30  33
ATOM     33  N   UNL     1      -6.236  11.566  24.773  0.00  0.00    +0.000 NA
ATOM     34  H   UNL     1      -5.840  10.786  24.254  0.00  0.00    +0.000 HD
ATOM     35  H   UNL     1      -6.624  11.400  25.694  0.00  0.00    +0.000 HD
ENDBRANCH  30  33
ENDBRANCH  28  30
ENDBRANCH  15  25
TORSDOF 4
ENDMDL
MODEL 2
REMARK VINA RESULT:      -7.2      1.035      1.084
REMARK  Name = 
REMARK  4 active torsions:
REMARK  status: ('A' for Active; 'I' for Inactive)
REMARK    1  A    between atoms: C_5  and  C_6
REMARK    2  A    between atoms: N_20  and  C_21
REMARK    3  A    between atoms: N_24  and  S_25
REMARK    4  A    between atoms: S_25  and  N_26
REMARK                            x       y       z     vdW  Elec       q    Type
REMARK                         _______ _______ _______ _____ _____    ______ ____
ROOT
ATOM      1  C   UNL     1      -0.426  12.382  20.015  0.00  0.00    +0.000 A 
ATOM      2  N   UNL     1       0.492  13.186  19.498  0.00  0.00    +0.000 NA
ATOM      3  C   UNL     1       0.204  14.498  19.517  0.00  0.00    +0.000 A 
ATOM      4  N   UNL     1       1.208  15.326  19.029  0.00  0.00    +0.000 N 
ATOM      5  C   UNL     1       0.864  16.696  18.705  0.00  0.00    +0.000 C 
ATOM      6  C   UNL     1       2.000  17.471  18.007  0.00  0.00    +0.000 C 
ATOM      7  O   UNL     1       3.302  16.908  18.146  0.00  0.00    +0.000 OA
ATOM      8  C   UNL     1       3.372  15.551  17.727  0.00  0.00    +0.000 C 
ATOM      9  C   UNL     1       2.264  14.643  18.273  0.00  0.00    +0.000 C 
ATOM     10  N   UNL     1      -0.988  14.947  20.019  0.00  0.00    +0.000 NA
ATOM     11  C   UNL     1      -1.750  14.056  20.718  0.00  0.00    +0.000 A 
ATOM     12  C   UNL     1      -1.111  12.899  21.071  0.00  0.00    +0.000 A 
ATOM     13  C   UNL     1      -0.534  13.351  22.422  0.00  0.00    +0.000 C 
ATOM     14  C   UNL     1      -1.586  14.413  22.870  0.00  0.00    +0.000 C 
ATOM     15  N   UNL     1      -2.658  14.448  21.820  0.00  0.00    +0.000 N 
ENDROOT
BRANCH   1  20
ATOM     16  N   UNL     1      -2.942   9.514  15.908  0.00  0.00    +0.000 N 
ATOM     17  C   UNL     1      -2.340  10.218  16.921  0.00  0.00    +0.000 A 
ATOM     18  N   UNL     1      -2.975  11.277  17.428  0.00  0.00    +0.000 NA
ATOM     19  C   UNL     1      -2.367  11.950  18.433  0.00  0.00    +0.000 A 
ATOM     20  C   UNL     1      -1.145  11.604  18.974  0.00  0.00    +0.000 A 
ATOM     21  C   UNL     1      -0.597  10.478  18.363  0.00  0.00    +0.000 A 
ATOM     22  N   UNL     1      -1.163   9.775  17.360  0.00  0.00    +0.000 NA
ATOM     23  H   UNL     1      -3.939   9.639  15.949  0.00  0.00    +0.000 HD
ATOM     24  H   UNL     1      -2.585   8.567  15.891  0.00  0.00    +0.000 HD
ENDBRANCH   1  20
BRANCH  15  25
ATOM     25  C   UNL     1      -3.698  13.377  22.156  0.00  0.00    +0.000 C 
ATOM     26  C   UNL     1      -4.697  12.989  21.076  0.00  0.00    +0.000 C 
ATOM     27  C   UNL     1      -6.008  13.633  21.468  0.00  0.00    +0.000 C 
ATOM     28  N   UNL     1      -6.003  13.697  22.954  0.00  0.00    +0.000 NA
ATOM     29  C   UNL     1      -4.574  13.765  23.372  0.00  0.00    +0.000 C 
BRANCH  28  30
ATOM     30  S   UNL     1      -7.005  12.571  23.696  0.00  0.00    +0.000 S 
ATOM     31  O   UNL     1      -7.912  13.256  24.570  0.00  0.00    +0.000 OA
ATOM     32  O   UNL     1      -7.431  11.628  22.691  0.00  0.00    +0.000 OA
BRANCH  30  33
ATOM     33  N   UNL     1      -5.897  11.802  24.656  0.00  0.00    +0.000 NA
ATOM     34  H   UNL     1      -4.951  12.160  24.549  0.00  0.00    +0.000 HD
ATOM     35  H   UNL     1      -6.037  10.807  24.783  0.00  0.00    +0.000 HD
ENDBRANCH  30  33
ENDBRANCH  28  30
ENDBRANCH  15  25
TORSDOF 4
ENDMDL
MODEL 3
REMARK VINA RESULT:      -6.9      0.636      1.042
REMARK  Name = 
REMARK  4 active torsions:
REMARK  status: ('A' for Active; 'I' for Inactive)
REMARK    1  A    between atoms: C_5  and  C_6
REMARK    2  A    between atoms: N_20  and  C_21
REMARK    3  A    between atoms: N_24  and  S_25
REMARK    4  A    between atoms: S_25  and  N_26
REMARK                            x       y       z     vdW  Elec       q    Type
REMARK                         _______ _______ _______ _____ _____    ______ ____
ROOT
ATOM      1  C   UNL     1      -0.464  11.998  19.957  0.00  0.00    +0.000 A 
ATOM      2  N   UNL     1       0.626  12.665  19.606  0.00  0.00    +0.000 NA
ATOM      3  C   UNL     1       0.552  14.004  19.694  0.00  0.00    +0.000 A 
ATOM      4  N   UNL     1       1.726  14.679  19.383  0.00  0.00    +0.000 N 
ATOM      5  C   UNL     1       1.647  16.103  19.129  0.00  0.00    +0.000 C 
ATOM      6  C   UNL     1       2.967  16.716  18.621  0.00  0.00    +0.000 C 
ATOM      7  O   UNL     1       4.136  15.935  18.857  0.00  0.00    +0.000 OA
ATOM      8  C   UNL     1       4.038  14.613  18.346  0.00  0.00    +0.000 C 
ATOM      9  C   UNL     1       2.742  13.873  18.696  0.00  0.00    +0.000 C 
ATOM     10  N   UNL     1      -0.605  14.617  20.097  0.00  0.00    +0.000 NA
ATOM     11  C   UNL     1      -1.578  13.828  20.638  0.00  0.00    +0.000 A 
ATOM     12  C   UNL     1      -1.179  12.561  20.969  0.00  0.00    +0.000 A 
ATOM     13  C   UNL     1      -0.704  12.832  22.406  0.00  0.00    +0.000 C 
ATOM     14  C   UNL     1      -1.618  14.027  22.817  0.00  0.00    +0.000 C 
ATOM     15  N   UNL     1      -2.537  14.302  21.662  0.00  0.00    +0.000 N 
ENDROOT
BRANCH   1  20
ATOM     16  N   UNL     1      -3.332   9.730  15.709  0.00  0.00    +0.000 N 
ATOM     17  C   UNL     1      -2.616  10.283  16.741  0.00  0.00    +0.000 A 
ATOM     18  N   UNL     1      -1.476   9.695  17.115  0.00  0.00    +0.000 NA
ATOM     19  C   UNL     1      -0.782  10.263  18.129  0.00  0.00    +0.000 A 
ATOM     20  C   UNL     1      -1.168  11.413  18.788  0.00  0.00    +0.000 A 
ATOM     21  C   UNL     1      -2.364  11.929  18.294  0.00  0.00    +0.000 A 
ATOM     22  N   UNL     1      -3.092  11.400  17.288  0.00  0.00    +0.000 NA
ATOM     23  H   UNL     1      -2.719   9.199  15.113  0.00  0.00    +0.000 HD
ATOM     24  H   UNL     1      -3.912  10.438  15.277  0.00  0.00    +0.000 HD
ENDBRANCH   1  20
BRANCH  15  25
ATOM     25  C   UNL     1      -3.768  13.402  21.800  0.00  0.00    +0.000 C 
ATOM     26  C   UNL     1      -4.977  13.709  20.929  0.00  0.00    +0.000 C 
ATOM     27  C   UNL     1      -5.998  14.351  21.842  0.00  0.00    +0.000 C 
ATOM     28  N   UNL     1      -5.765  13.766  23.189  0.00  0.00    +0.000 NA
ATOM     29  C   UNL     1      -4.326  13.383  23.244  0.00  0.00    +0.000 C 
BRANCH  28  30
ATOM     30  S   UNL     1      -6.917  12.637  23.659  0.00  0.00    +0.000 S 
ATOM     31  O   UNL     1      -7.914  13.289  24.457  0.00  0.00    +0.000 OA
ATOM     32  O   UNL     1      -7.228  11.819  22.512  0.00  0.00    +0.000 OA
BRANCH  30  33
ATOM     33  N   UNL     1      -6.001  11.717  24.687  0.00  0.00    +0.000 NA
ATOM     34  H   UNL     1      -5.816  10.780  24.337  0.00  0.00    +0.000 HD
ATOM     35  H   UNL     1      -6.180  11.848  25.676  0.00  0.00    +0.000 HD
ENDBRANCH  30  33
ENDBRANCH  28  30
ENDBRANCH  15  25
TORSDOF 4
ENDMDL
MODEL 4
REMARK VINA RESULT:      -6.9      1.281      1.643
REMARK  Name = 
REMARK  4 active torsions:
REMARK  status: ('A' for Active; 'I' for Inactive)
REMARK    1  A    between atoms: C_5  and  C_6
REMARK    2  A    between atoms: N_20  and  C_21
REMARK    3  A    between atoms: N_24  and  S_25
REMARK    4  A    between atoms: S_25  and  N_26
REMARK                            x       y       z     vdW  Elec       q    Type
REMARK                         _______ _______ _______ _____ _____    ______ ____
ROOT
ATOM      1  C   UNL     1      -0.261  12.519  19.911  0.00  0.00    +0.000 A 
ATOM      2  N   UNL     1       0.648  13.335  19.398  0.00  0.00    +0.000 NA
ATOM      3  C   UNL     1       0.337  14.642  19.403  0.00  0.00    +0.000 A 
ATOM      4  N   UNL     1       1.331  15.484  18.920  0.00  0.00    +0.000 N 
ATOM      5  C   UNL     1       0.966  16.845  18.581  0.00  0.00    +0.000 C 
ATOM      6  C   UNL     1       2.096  17.635  17.890  0.00  0.00    +0.000 C 
ATOM      7  O   UNL     1       3.406  17.097  18.049  0.00  0.00    +0.000 OA
ATOM      8  C   UNL     1       3.505  15.739  17.642  0.00  0.00    +0.000 C 
ATOM      9  C   UNL     1       2.408  14.814  18.182  0.00  0.00    +0.000 C 
ATOM     10  N   UNL     1      -0.869  15.073  19.888  0.00  0.00    +0.000 NA
ATOM     11  C   UNL     1      -1.623  14.175  20.585  0.00  0.00    +0.000 A 
ATOM     12  C   UNL     1      -0.967  13.032  20.955  0.00  0.00    +0.000 A 
ATOM     13  C   UNL     1      -0.415  13.505  22.309  0.00  0.00    +0.000 C 
ATOM     14  C   UNL     1      -1.491  14.551  22.736  0.00  0.00    +0.000 C 
ATOM     15  N   UNL     1      -2.551  14.558  21.674  0.00  0.00    +0.000 N 
ENDROOT
BRANCH   1  20
ATOM     16  N   UNL     1      -3.071   9.446  16.159  0.00  0.00    +0.000 N 
ATOM     17  C   UNL     1      -2.369  10.196  17.069  0.00  0.00    +0.000 A 
ATOM     18  N   UNL     1      -1.161   9.773  17.450  0.00  0.00    +0.000 NA
ATOM     19  C   UNL     1      -0.484  10.533  18.342  0.00  0.00    +0.000 A 
ATOM     20  C   UNL     1      -0.953  11.720  18.869  0.00  0.00    +0.000 A 
ATOM     21  C   UNL     1      -2.216  12.050  18.382  0.00  0.00    +0.000 A 
ATOM     22  N   UNL     1      -2.930  11.326  17.495  0.00  0.00    +0.000 NA
ATOM     23  H   UNL     1      -2.435   8.900  15.602  0.00  0.00    +0.000 HD
ATOM     24  H   UNL     1      -3.738  10.033  15.674  0.00  0.00    +0.000 HD
ENDBRANCH   1  20
BRANCH  15  25
ATOM     25  C   UNL     1      -3.575  13.471  22.007  0.00  0.00    +0.000 C 
ATOM     26  C   UNL     1      -4.678  13.197  20.995  0.00  0.00    +0.000 C 
ATOM     27  C   UNL     1      -5.934  13.815  21.569  0.00  0.00    +0.000 C 
ATOM     28  N   UNL     1      -5.788  13.738  23.047  0.00  0.00    +0.000 NA
ATOM     29  C   UNL     1      -4.325  13.752  23.332  0.00  0.00    +0.000 C 
BRANCH  28  30
ATOM     30  S   UNL     1      -6.738  12.558  23.774  0.00  0.00    +0.000 S 
ATOM     31  O   UNL     1      -7.522  11.904  22.768  0.00  0.00    +0.000 OA
ATOM     32  O   UNL     1      -5.914  11.851  24.724  0.00  0.00    +0.000 OA
BRANCH  30  33
ATOM     33  N   UNL     1      -7.769  13.525  24.638  0.00  0.00    +0.000 NA
ATOM     34  H   UNL     1      -7.684  14.512  24.411  0.00  0.00    +0.000 HD
ATOM     35  H   UNL     1      -7.928  13.251  25.600  0.00  0.00    +0.000 HD
ENDBRANCH  30  33
ENDBRANCH  28  30
ENDBRANCH  15  25
TORSDOF 4
ENDMDL
MODEL 5
REMARK VINA RESULT:      -6.7      2.695      3.195
REMARK  Name = 
REMARK  4 active torsions:
REMARK  status: ('A' for Active; 'I' for Inactive)
REMARK    1  A    between atoms: C_5  and  C_6
REMARK    2  A    between atoms: N_20  and  C_21
REMARK    3  A    between atoms: N_24  and  S_25
REMARK    4  A    between atoms: S_25  and  N_26
REMARK                            x       y       z     vdW  Elec       q    Type
REMARK                         _______ _______ _______ _____ _____    ______ ____
ROOT
ATOM      1  C   UNL     1      -0.051  13.439  22.105  0.00  0.00    +0.000 A 
ATOM      2  N   UNL     1       0.814  14.195  21.445  0.00  0.00    +0.000 NA
ATOM      3  C   UNL     1       0.305  14.943  20.452  0.00  0.00    +0.000 A 
ATOM      4  N   UNL     1       1.218  15.775  19.816  0.00  0.00    +0.000 N 
ATOM      5  C   UNL     1       0.841  16.354  18.542  0.00  0.00    +0.000 C 
ATOM      6  C   UNL     1       1.987  17.112  17.843  0.00  0.00    +0.000 C 
ATOM      7  O   UNL     1       3.078  17.484  18.682  0.00  0.00    +0.000 OA
ATOM      8  C   UNL     1       3.641  16.385  19.387  0.00  0.00    +0.000 C 
ATOM      9  C   UNL     1       2.628  15.474  20.089  0.00  0.00    +0.000 C 
ATOM     10  N   UNL     1      -1.028  14.883  20.142  0.00  0.00    +0.000 NA
ATOM     11  C   UNL     1      -1.849  14.244  21.024  0.00  0.00    +0.000 A 
ATOM     12  C   UNL     1      -1.293  13.978  22.246  0.00  0.00    +0.000 A 
ATOM     13  C   UNL     1      -1.664  15.286  22.963  0.00  0.00    +0.000 C 
ATOM     14  C   UNL     1      -2.977  15.686  22.222  0.00  0.00    +0.000 C 
ATOM     15  N   UNL     1      -3.272  14.605  21.224  0.00  0.00    +0.000 N 
ENDROOT
BRANCH   1  20
ATOM     16  N   UNL     1       0.648   7.964  21.128  0.00  0.00    +0.000 N 
ATOM     17  C   UNL     1       0.476   9.307  21.351  0.00  0.00    +0.000 A 
ATOM     18  N   UNL     1       1.087  10.174  20.539  0.00  0.00    +0.000 NA
ATOM     19  C   UNL     1       0.894  11.493  20.773  0.00  0.00    +0.000 A 
ATOM     20  C   UNL     1       0.100  11.998  21.783  0.00  0.00    +0.000 A 
ATOM     21  C   UNL     1      -0.485  10.990  22.547  0.00  0.00    +0.000 A 
ATOM     22  N   UNL     1      -0.324   9.664  22.355  0.00  0.00    +0.000 NA
ATOM     23  H   UNL     1       0.879   7.804  20.162  0.00  0.00    +0.000 HD
ATOM     24  H   UNL     1      -0.131   7.450  21.518  0.00  0.00    +0.000 HD
ENDBRANCH   1  20
BRANCH  15  25
ATOM     25  C   UNL     1      -4.081  13.510  21.923  0.00  0.00    +0.000 C 
ATOM     26  C   UNL     1      -5.009  12.656  21.071  0.00  0.00    +0.000 C 
ATOM     27  C   UNL     1      -6.411  13.143  21.362  0.00  0.00    +0.000 C 
ATOM     28  N   UNL     1      -6.389  13.634  22.766  0.00  0.00    +0.000 NA
ATOM     29  C   UNL     1      -4.991  14.072  23.042  0.00  0.00    +0.000 C 
BRANCH  28  30
ATOM     30  S   UNL     1      -7.143  12.612  23.865  0.00  0.00    +0.000 S 
ATOM     31  O   UNL     1      -7.909  13.399  24.788  0.00  0.00    +0.000 OA
ATOM     32  O   UNL     1      -7.689  11.496  23.130  0.00  0.00    +0.000 OA
BRANCH  30  33
ATOM     33  N   UNL     1      -5.816  12.059  24.687  0.00  0.00    +0.000 NA
ATOM     34  H   UNL     1      -5.360  11.269  24.236  0.00  0.00    +0.000 HD
ATOM     35  H   UNL     1      -5.882  12.080  25.698  0.00  0.00    +0.000 HD
ENDBRANCH  30  33
ENDBRANCH  28  30
ENDBRANCH  15  25
TORSDOF 4
ENDMDL
MODEL 6
REMARK VINA RESULT:      -6.4      5.799      9.477
REMARK  Name = 
REMARK  4 active torsions:
REMARK  status: ('A' for Active; 'I' for Inactive)
REMARK    1  A    between atoms: C_5  and  C_6
REMARK    2  A    between atoms: N_20  and  C_21
REMARK    3  A    between atoms: N_24  and  S_25
REMARK    4  A    between atoms: S_25  and  N_26
REMARK                            x       y       z     vdW  Elec       q    Type
REMARK                         _______ _______ _______ _____ _____    ______ ____
ROOT
ATOM      1  C   UNL     1       7.559  14.867  21.421  0.00  0.00    +0.000 A 
ATOM      2  N   UNL     1       8.704  14.563  20.826  0.00  0.00    +0.000 NA
ATOM      3  C   UNL     1       8.631  14.285  19.514  0.00  0.00    +0.000 A 
ATOM      4  N   UNL     1       9.852  14.032  18.899  0.00  0.00    +0.000 N 
ATOM      5  C   UNL     1       9.839  13.407  17.592  0.00  0.00    +0.000 C 
ATOM      6  C   UNL     1      11.239  13.011  17.082  0.00  0.00    +0.000 C 
ATOM      7  O   UNL     1      12.333  13.653  17.732  0.00  0.00    +0.000 OA
ATOM      8  C   UNL     1      12.316  13.493  19.144  0.00  0.00    +0.000 C 
ATOM      9  C   UNL     1      10.968  13.778  19.816  0.00  0.00    +0.000 C 
ATOM     10  N   UNL     1       7.428  14.294  18.862  0.00  0.00    +0.000 NA
ATOM     11  C   UNL     1       6.360  14.832  19.520  0.00  0.00    +0.000 A 
ATOM     12  C   UNL     1       6.674  15.548  20.644  0.00  0.00    +0.000 A 
ATOM     13  C   UNL     1       6.874  16.928  19.995  0.00  0.00    +0.000 C 
ATOM     14  C   UNL     1       5.913  16.838  18.769  0.00  0.00    +0.000 C 
ATOM     15  N   UNL     1       5.231  15.502  18.835  0.00  0.00    +0.000 N 
ENDROOT
BRANCH   1  20
ATOM     16  N   UNL     1       5.789  10.934  25.000  0.00  0.00    +0.000 N 
ATOM     17  C   UNL     1       6.226  11.886  24.114  0.00  0.00    +0.000 A 
ATOM     18  N   UNL     1       7.353  11.656  23.434  0.00  0.00    +0.000 NA
ATOM     19  C   UNL     1       7.760  12.604  22.557  0.00  0.00    +0.000 A 
ATOM     20  C   UNL     1       7.081  13.781  22.312  0.00  0.00    +0.000 A 
ATOM     21  C   UNL     1       5.922  13.890  23.077  0.00  0.00    +0.000 A 
ATOM     22  N   UNL     1       5.475  12.975  23.962  0.00  0.00    +0.000 NA
ATOM     23  H   UNL     1       6.143  10.031  24.737  0.00  0.00    +0.000 HD
ATOM     24  H   UNL     1       4.790  11.028  25.137  0.00  0.00    +0.000 HD
ENDBRANCH   1  20
BRANCH  15  25
ATOM     25  C   UNL     1       3.986  15.639  19.713  0.00  0.00    +0.000 C 
ATOM     26  C   UNL     1       3.309  14.364  20.195  0.00  0.00    +0.000 C 
ATOM     27  C   UNL     1       2.057  14.214  19.359  0.00  0.00    +0.000 C 
ATOM     28  N   UNL     1       1.627  15.596  19.018  0.00  0.00    +0.000 NA
ATOM     29  C   UNL     1       2.857  16.437  19.017  0.00  0.00    +0.000 C 
BRANCH  28  30
ATOM     30  S   UNL     1       0.286  16.133  19.877  0.00  0.00    +0.000 S 
ATOM     31  O   UNL     1      -0.201  15.065  20.701  0.00  0.00    +0.000 OA
ATOM     32  O   UNL     1       0.583  17.452  20.381  0.00  0.00    +0.000 OA
BRANCH  30  33
ATOM     33  N   UNL     1      -0.790  16.311  18.631  0.00  0.00    +0.000 NA
ATOM     34  H   UNL     1      -1.665  16.746  18.911  0.00  0.00    +0.000 HD
ATOM     35  H   UNL     1      -0.807  15.560  17.951  0.00  0.00    +0.000 HD
ENDBRANCH  30  33
ENDBRANCH  28  30
ENDBRANCH  15  25
TORSDOF 4
ENDMDL
MODEL 7
REMARK VINA RESULT:      -6.4      4.496      8.210
REMARK  Name = 
REMARK  4 active torsions:
REMARK  status: ('A' for Active; 'I' for Inactive)
REMARK    1  A    between atoms: C_5  and  C_6
REMARK    2  A    between atoms: N_20  and  C_21
REMARK    3  A    between atoms: N_24  and  S_25
REMARK    4  A    between atoms: S_25  and  N_26
REMARK                            x       y       z     vdW  Elec       q    Type
REMARK                         _______ _______ _______ _____ _____    ______ ____
ROOT
ATOM      1  C   UNL     1       1.015  12.300  21.053  0.00  0.00    +0.000 A 
ATOM      2  N   UNL     1      -0.149  12.907  21.235  0.00  0.00    +0.000 NA
ATOM      3  C   UNL     1      -1.223  12.290  20.715  0.00  0.00    +0.000 A 
ATOM      4  N   UNL     1      -2.439  12.911  20.974  0.00  0.00    +0.000 N 
ATOM      5  C   UNL     1      -3.589  12.512  20.187  0.00  0.00    +0.000 C 
ATOM      6  C   UNL     1      -4.838  13.383  20.430  0.00  0.00    +0.000 C 
ATOM      7  O   UNL     1      -4.826  14.151  21.631  0.00  0.00    +0.000 OA
ATOM      8  C   UNL     1      -3.678  14.980  21.752  0.00  0.00    +0.000 C 
ATOM      9  C   UNL     1      -2.340  14.288  21.470  0.00  0.00    +0.000 C 
ATOM     10  N   UNL     1      -1.089  11.119  20.017  0.00  0.00    +0.000 NA
ATOM     11  C   UNL     1       0.116  10.482  20.084  0.00  0.00    +0.000 A 
ATOM     12  C   UNL     1       0.959  10.940  21.060  0.00  0.00    +0.000 A 
ATOM     13  C   UNL     1       0.500  10.033  22.213  0.00  0.00    +0.000 C 
ATOM     14  C   UNL     1       0.014   8.768  21.440  0.00  0.00    +0.000 C 
ATOM     15  N   UNL     1       0.269   9.013  19.982  0.00  0.00    +0.000 N 
ENDROOT
BRANCH   1  20
ATOM     16  N   UNL     1       4.097  15.182  17.364  0.00  0.00    +0.000 N 
ATOM     17  C   UNL     1       3.346  14.463  18.260  0.00  0.00    +0.000 A 
ATOM     18  N   UNL     1       2.560  13.487  17.796  0.00  0.00    +0.000 NA
ATOM     19  C   UNL     1       1.836  12.785  18.698  0.00  0.00    +0.000 A 
ATOM     20  C   UNL     1       1.867  13.002  20.062  0.00  0.00    +0.000 A 
ATOM     21  C   UNL     1       2.732  14.037  20.411  0.00  0.00    +0.000 A 
ATOM     22  N   UNL     1       3.474  14.766  19.550  0.00  0.00    +0.000 NA
ATOM     23  H   UNL     1       4.265  14.633  16.538  0.00  0.00    +0.000 HD
ATOM     24  H   UNL     1       4.899  15.583  17.835  0.00  0.00    +0.000 HD
ENDBRANCH   1  20
BRANCH  15  25
ATOM     25  C   UNL     1       1.700   8.575  19.661  0.00  0.00    +0.000 C 
ATOM     26  C   UNL     1       2.275   8.954  18.304  0.00  0.00    +0.000 C 
ATOM     27  C   UNL     1       2.265   7.688  17.477  0.00  0.00    +0.000 C 
ATOM     28  N   UNL     1       2.436   6.569  18.442  0.00  0.00    +0.000 NA
ATOM     29  C   UNL     1       1.879   7.039  19.742  0.00  0.00    +0.000 C 
BRANCH  28  30
ATOM     30  S   UNL     1       3.964   5.873  18.426  0.00  0.00    +0.000 S 
ATOM     31  O   UNL     1       4.841   6.684  17.633  0.00  0.00    +0.000 OA
ATOM     32  O   UNL     1       4.273   5.451  19.771  0.00  0.00    +0.000 OA
BRANCH  30  33
ATOM     33  N   UNL     1       3.639   4.509  17.544  0.00  0.00    +0.000 NA
ATOM     34  H   UNL     1       3.661   3.655  18.096  0.00  0.00    +0.000 HD
ATOM     35  H   UNL     1       4.005   4.496  16.599  0.00  0.00    +0.000 HD
ENDBRANCH  30  33
ENDBRANCH  28  30
ENDBRANCH  15  25
TORSDOF 4
ENDMDL
MODEL 8
REMARK VINA RESULT:      -6.1      1.501      1.896
REMARK  Name = 
REMARK  4 active torsions:
REMARK  status: ('A' for Active; 'I' for Inactive)
REMARK    1  A    between atoms: C_5  and  C_6
REMARK    2  A    between atoms: N_20  and  C_21
REMARK    3  A    between atoms: N_24  and  S_25
REMARK    4  A    between atoms: S_25  and  N_26
REMARK                            x       y       z     vdW  Elec       q    Type
REMARK                         _______ _______ _______ _____ _____    ______ ____
ROOT
ATOM      1  C   UNL     1      -0.288  12.512  21.056  0.00  0.00    +0.000 A 
ATOM      2  N   UNL     1       0.854  13.158  20.875  0.00  0.00    +0.000 NA
ATOM      3  C   UNL     1       0.770  14.496  20.805  0.00  0.00    +0.000 A 
ATOM      4  N   UNL     1       1.987  15.156  20.680  0.00  0.00    +0.000 N 
ATOM      5  C   UNL     1       1.970  16.545  20.267  0.00  0.00    +0.000 C 
ATOM      6  C   UNL     1       3.371  17.125  19.988  0.00  0.00    +0.000 C 
ATOM      7  O   UNL     1       4.460  16.393  20.546  0.00  0.00    +0.000 OA
ATOM      8  C   UNL     1       4.465  15.024  20.167  0.00  0.00    +0.000 C 
ATOM      9  C   UNL     1       3.121  14.301  20.311  0.00  0.00    +0.000 C 
ATOM     10  N   UNL     1      -0.443  15.128  20.888  0.00  0.00    +0.000 NA
ATOM     11  C   UNL     1      -1.512  14.382  21.291  0.00  0.00    +0.000 A 
ATOM     12  C   UNL     1      -1.199  13.163  21.829  0.00  0.00    +0.000 A 
ATOM     13  C   UNL     1      -1.037  13.589  23.298  0.00  0.00    +0.000 C 
ATOM     14  C   UNL     1      -2.012  14.805  23.378  0.00  0.00    +0.000 C 
ATOM     15  N   UNL     1      -2.664  14.942  22.033  0.00  0.00    +0.000 N 
ENDROOT
BRANCH   1  20
ATOM     16  N   UNL     1      -2.133   9.668  16.592  0.00  0.00    +0.000 N 
ATOM     17  C   UNL     1      -1.668  10.367  17.677  0.00  0.00    +0.000 A 
ATOM     18  N   UNL     1      -0.390  10.215  18.035  0.00  0.00    +0.000 NA
ATOM     19  C   UNL     1       0.049  10.922  19.102  0.00  0.00    +0.000 A 
ATOM     20  C   UNL     1      -0.731  11.797  19.832  0.00  0.00    +0.000 A 
ATOM     21  C   UNL     1      -2.036  11.869  19.349  0.00  0.00    +0.000 A 
ATOM     22  N   UNL     1      -2.521  11.185  18.291  0.00  0.00    +0.000 NA
ATOM     23  H   UNL     1      -1.371   9.446  15.974  0.00  0.00    +0.000 HD
ATOM     24  H   UNL     1      -2.937  10.142  16.199  0.00  0.00    +0.000 HD
ENDBRANCH   1  20
BRANCH  15  25
ATOM     25  C   UNL     1      -3.901  14.041  22.002  0.00  0.00    +0.000 C 
ATOM     26  C   UNL     1      -5.109  14.515  21.208  0.00  0.00    +0.000 C 
ATOM     27  C   UNL     1      -6.124  14.979  22.230  0.00  0.00    +0.000 C 
ATOM     28  N   UNL     1      -5.893  14.147  23.441  0.00  0.00    +0.000 NA
ATOM     29  C   UNL     1      -4.456  13.751  23.417  0.00  0.00    +0.000 C 
BRANCH  28  30
ATOM     30  S   UNL     1      -7.051  12.956  23.691  0.00  0.00    +0.000 S 
ATOM     31  O   UNL     1      -7.916  12.896  22.548  0.00  0.00    +0.000 OA
ATOM     32  O   UNL     1      -6.387  11.802  24.246  0.00  0.00    +0.000 OA
BRANCH  30  33
ATOM     33  N   UNL     1      -7.916  13.663  24.914  0.00  0.00    +0.000 NA
ATOM     34  H   UNL     1      -8.900  13.792  24.692  0.00  0.00    +0.000 HD
ATOM     35  H   UNL     1      -7.431  14.379  25.442  0.00  0.00    +0.000 HD
ENDBRANCH  30  33
ENDBRANCH  28  30
ENDBRANCH  15  25
TORSDOF 4
ENDMDL
MODEL 9
REMARK VINA RESULT:      -6.1      3.795      7.109
REMARK  Name = 
REMARK  4 active torsions:
REMARK  status: ('A' for Active; 'I' for Inactive)
REMARK    1  A    between atoms: C_5  and  C_6
REMARK    2  A    between atoms: N_20  and  C_21
REMARK    3  A    between atoms: N_24  and  S_25
REMARK    4  A    between atoms: S_25  and  N_26
REMARK                            x       y       z     vdW  Elec       q    Type
REMARK                         _______ _______ _______ _____ _____    ______ ____
ROOT
ATOM      1  C   UNL     1      -4.121  13.946  20.346  0.00  0.00    +0.000 A 
ATOM      2  N   UNL     1      -4.520  14.937  21.130  0.00  0.00    +0.000 NA
ATOM      3  C   UNL     1      -3.928  15.011  22.334  0.00  0.00    +0.000 A 
ATOM      4  N   UNL     1      -4.315  16.095  23.113  0.00  0.00    +0.000 N 
ATOM      5  C   UNL     1      -3.990  16.070  24.525  0.00  0.00    +0.000 C 
ATOM      6  C   UNL     1      -4.618  17.229  25.325  0.00  0.00    +0.000 C 
ATOM      7  O   UNL     1      -5.058  18.341  24.551  0.00  0.00    +0.000 OA
ATOM      8  C   UNL     1      -5.962  17.979  23.516  0.00  0.00    +0.000 C 
ATOM      9  C   UNL     1      -5.527  16.786  22.658  0.00  0.00    +0.000 C 
ATOM     10  N   UNL     1      -2.993  14.086  22.713  0.00  0.00    +0.000 NA
ATOM     11  C   UNL     1      -2.508  13.251  21.748  0.00  0.00    +0.000 A 
ATOM     12  C   UNL     1      -2.806  13.617  20.464  0.00  0.00    +0.000 A 
ATOM     13  C   UNL     1      -1.592  14.520  20.188  0.00  0.00    +0.000 C 
ATOM     14  C   UNL     1      -0.511  13.878  21.111  0.00  0.00    +0.000 C 
ATOM     15  N   UNL     1      -1.140  12.685  21.771  0.00  0.00    +0.000 N 
ENDROOT
BRANCH   1  20
ATOM     16  N   UNL     1      -7.849   9.770  20.069  0.00  0.00    +0.000 N 
ATOM     17  C   UNL     1      -6.940  10.797  20.122  0.00  0.00    +0.000 A 
ATOM     18  N   UNL     1      -6.211  11.062  19.035  0.00  0.00    +0.000 NA
ATOM     19  C   UNL     1      -5.329  12.085  19.107  0.00  0.00    +0.000 A 
ATOM     20  C   UNL     1      -5.145  12.878  20.223  0.00  0.00    +0.000 A 
ATOM     21  C   UNL     1      -5.972  12.503  21.279  0.00  0.00    +0.000 A 
ATOM     22  N   UNL     1      -6.866  11.492  21.256  0.00  0.00    +0.000 NA
ATOM     23  H   UNL     1      -8.132   9.611  19.117  0.00  0.00    +0.000 HD
ATOM     24  H   UNL     1      -8.575   9.919  20.759  0.00  0.00    +0.000 HD
ENDBRANCH   1  20
BRANCH  15  25
ATOM     25  C   UNL     1      -0.969  11.477  20.847  0.00  0.00    +0.000 C 
ATOM     26  C   UNL     1      -0.499  10.168  21.465  0.00  0.00    +0.000 C 
ATOM     27  C   UNL     1       0.951  10.014  21.063  0.00  0.00    +0.000 C 
ATOM     28  N   UNL     1       1.082  10.688  19.743  0.00  0.00    +0.000 NA
ATOM     29  C   UNL     1       0.034  11.747  19.701  0.00  0.00    +0.000 C 
BRANCH  28  30
ATOM     30  S   UNL     1       1.216   9.635  18.441  0.00  0.00    +0.000 S 
ATOM     31  O   UNL     1       1.953   8.475  18.850  0.00  0.00    +0.000 OA
ATOM     32  O   UNL     1      -0.072   9.569  17.792  0.00  0.00    +0.000 OA
BRANCH  30  33
ATOM     33  N   UNL     1       2.215  10.525  17.465  0.00  0.00    +0.000 NA
ATOM     34  H   UNL     1       1.997  10.439  16.476  0.00  0.00    +0.000 HD
ATOM     35  H   UNL     1       3.185  10.574  17.754  0.00  0.00    +0.000 HD
ENDBRANCH  30  33
ENDBRANCH  28  30
ENDBRANCH  15  25
TORSDOF 4
ENDMDL
