MODEL 1
REMARK VINA RESULT:      -8.1      0.000      0.000
REMARK  Name = 
REMARK  6 active torsions:
REMARK  status: ('A' for Active; 'I' for Inactive)
REMARK    1  A    between atoms: C_1  and  N_2
REMARK    2  A    between atoms: C_6  and  C_7
REMARK    3  A    between atoms: C_7  and  N_8
REMARK    4  A    between atoms: N_8  and  C_9
REMARK    5  A    between atoms: C_10  and  C_12
REMARK    6  A    between atoms: C_19  and  C_21
REMARK                            x       y       z     vdW  Elec       q    Type
REMARK                         _______ _______ _______ _____ _____    ______ ____
ROOT
ATOM      1  N   UNL     1       1.995   8.184  19.052  0.00  0.00    +0.000 N 
ATOM      2  C   UNL     1       2.613   8.296  17.741  0.00  0.00    +0.000 C 
ATOM      3  C   UNL     1       1.969   7.060  19.830  0.00  0.00    +0.000 C 
ATOM      4  O   UNL     1       1.471   7.208  20.965  0.00  0.00    +0.000 OA
ENDROOT
BRANCH   3   5
ATOM      5  C   UNL     1       2.230   5.580  19.390  0.00  0.00    +0.000 C 
ATOM      6  C   UNL     1       1.284   4.882  20.390  0.00  0.00    +0.000 C 
ATOM      7  N   UNL     1       1.076   3.495  20.019  0.00  0.00    +0.000 NA
ATOM      8  C   UNL     1       1.368   3.372  18.605  0.00  0.00    +0.000 C 
ATOM      9  C   UNL     1       2.039   4.683  18.135  0.00  0.00    +0.000 C 
ATOM     10  C   UNL     1       3.417   4.279  17.572  0.00  0.00    +0.000 C 
ATOM     11  N   UNL     1       4.390   4.828  18.464  0.00  0.00    +0.000 N 
ATOM     12  C   UNL     1       5.735   4.864  18.123  0.00  0.00    +0.000 C 
ATOM     13  O   UNL     1       6.183   4.263  17.151  0.00  0.00    +0.000 OA
ATOM     14  C   UNL     1       3.779   5.586  19.523  0.00  0.00    +0.000 C 
ATOM     15  H   UNL     1       0.111   3.214  20.207  0.00  0.00    +0.000 HD
BRANCH  12  16
ATOM     16  C   UNL     1       6.624   5.761  18.934  0.00  0.00    +0.000 C 
ATOM     17  C   UNL     1       8.111   5.539  19.052  0.00  0.00    +0.000 C 
ATOM     18  C   UNL     1       7.599   6.677  18.219  0.00  0.00    +0.000 C 
ENDBRANCH  12  16
ENDBRANCH   3   5
BRANCH   1  19
ATOM     19  C   UNL     1       1.500   9.428  19.657  0.00  0.00    +0.000 C 
BRANCH  19  25
ATOM     20  C   UNL     1      -4.026  11.008  17.068  0.00  0.00    +0.000 C 
ATOM     21  N   UNL     1      -2.955  11.947  17.333  0.00  0.00    +0.000 N 
ATOM     22  C   UNL     1      -1.791  11.339  17.788  0.00  0.00    +0.000 A 
ATOM     23  N   UNL     1      -1.496  10.083  17.431  0.00  0.00    +0.000 NA
ATOM     24  C   UNL     1      -0.410   9.514  17.994  0.00  0.00    +0.000 A 
ATOM     25  C   UNL     1       0.406  10.140  18.913  0.00  0.00    +0.000 A 
ATOM     26  C   UNL     1       0.039  11.445  19.172  0.00  0.00    +0.000 A 
ATOM     27  N   UNL     1      -1.042  12.055  18.635  0.00  0.00    +0.000 NA
ATOM     28  H   UNL     1      -3.171  12.678  18.001  0.00  0.00    +0.000 HD
ENDBRANCH  19  25
ENDBRANCH   1  19
TORSDOF 4
ENDMDL
MODEL 2
REMARK VINA RESULT:      -7.5      1.253      1.525
REMARK  Name = 
REMARK  6 active torsions:
REMARK  status: ('A' for Active; 'I' for Inactive)
REMARK    1  A    between atoms: C_1  and  N_2
REMARK    2  A    between atoms: C_6  and  C_7
REMARK    3  A    between atoms: C_7  and  N_8
REMARK    4  A    between atoms: N_8  and  C_9
REMARK    5  A    between atoms: C_10  and  C_12
REMARK    6  A    between atoms: C_19  and  C_21
REMARK                            x       y       z     vdW  Elec       q    Type
REMARK                         _______ _______ _______ _____ _____    ______ ____
ROOT
ATOM      1  N   UNL     1       2.136   7.620  19.353  0.00  0.00    +0.000 N 
ATOM      2  C   UNL     1       2.624   7.795  17.995  0.00  0.00    +0.000 C 
ATOM      3  C   UNL     1       2.023   6.430  20.016  0.00  0.00    +0.000 C 
ATOM      4  O   UNL     1       1.673   6.515  21.211  0.00  0.00    +0.000 OA
ENDROOT
BRANCH   3   5
ATOM      5  C   UNL     1       2.011   4.988  19.406  0.00  0.00    +0.000 C 
ATOM      6  C   UNL     1       1.157   4.296  20.489  0.00  0.00    +0.000 C 
ATOM      7  N   UNL     1       0.711   2.992  20.037  0.00  0.00    +0.000 NA
ATOM      8  C   UNL     1       0.748   2.994  18.589  0.00  0.00    +0.000 C 
ATOM      9  C   UNL     1       1.501   4.263  18.128  0.00  0.00    +0.000 C 
ATOM     10  C   UNL     1       2.703   3.769  17.298  0.00  0.00    +0.000 C 
ATOM     11  N   UNL     1       3.872   4.101  18.050  0.00  0.00    +0.000 N 
ATOM     12  C   UNL     1       5.136   4.020  17.482  0.00  0.00    +0.000 C 
ATOM     13  O   UNL     1       5.336   3.483  16.397  0.00  0.00    +0.000 OA
ATOM     14  C   UNL     1       3.547   4.801  19.264  0.00  0.00    +0.000 C 
ATOM     15  H   UNL     1      -0.240   2.804  20.367  0.00  0.00    +0.000 HD
BRANCH  12  16
ATOM     16  C   UNL     1       6.256   4.713  18.202  0.00  0.00    +0.000 C 
ATOM     17  C   UNL     1       7.677   4.697  17.698  0.00  0.00    +0.000 C 
ATOM     18  C   UNL     1       6.870   5.957  17.587  0.00  0.00    +0.000 C 
ENDBRANCH  12  16
ENDBRANCH   3   5
BRANCH   1  19
ATOM     19  C   UNL     1       1.900   8.843  20.131  0.00  0.00    +0.000 C 
BRANCH  19  25
ATOM     20  C   UNL     1      -2.798  13.047  20.123  0.00  0.00    +0.000 C 
ATOM     21  N   UNL     1      -2.489  12.172  19.011  0.00  0.00    +0.000 N 
ATOM     22  C   UNL     1      -1.492  11.247  19.299  0.00  0.00    +0.000 A 
ATOM     23  N   UNL     1      -1.310  10.813  20.552  0.00  0.00    +0.000 NA
ATOM     24  C   UNL     1      -0.258  10.001  20.783  0.00  0.00    +0.000 A 
ATOM     25  C   UNL     1       0.640   9.599  19.817  0.00  0.00    +0.000 A 
ATOM     26  C   UNL     1       0.331  10.065  18.554  0.00  0.00    +0.000 A 
ATOM     27  N   UNL     1      -0.709  10.883  18.276  0.00  0.00    +0.000 NA
ATOM     28  H   UNL     1      -2.203  12.638  18.157  0.00  0.00    +0.000 HD
ENDBRANCH  19  25
ENDBRANCH   1  19
TORSDOF 4
ENDMDL
MODEL 3
REMARK VINA RESULT:      -7.4      2.294      2.846
REMARK  Name = 
REMARK  6 active torsions:
REMARK  status: ('A' for Active; 'I' for Inactive)
REMARK    1  A    between atoms: C_1  and  N_2
REMARK    2  A    between atoms: C_6  and  C_7
REMARK    3  A    between atoms: C_7  and  N_8
REMARK    4  A    between atoms: N_8  and  C_9
REMARK    5  A    between atoms: C_10  and  C_12
REMARK    6  A    between atoms: C_19  and  C_21
REMARK                            x       y       z     vdW  Elec       q    Type
REMARK                         _______ _______ _______ _____ _____    ______ ____
ROOT
ATOM      1  N   UNL     1       2.232   6.320  19.804  0.00  0.00    +0.000 N 
ATOM      2  C   UNL     1       2.556   7.186  18.683  0.00  0.00    +0.000 C 
ATOM      3  C   UNL     1       2.799   5.104  20.066  0.00  0.00    +0.000 C 
ATOM      4  O   UNL     1       2.446   4.569  21.137  0.00  0.00    +0.000 OA
ENDROOT
BRANCH   3   5
ATOM      5  C   UNL     1       3.611   4.191  19.087  0.00  0.00    +0.000 C 
ATOM      6  C   UNL     1       3.612   2.902  19.935  0.00  0.00    +0.000 C 
ATOM      7  N   UNL     1       4.039   1.765  19.142  0.00  0.00    +0.000 NA
ATOM      8  C   UNL     1       3.810   2.092  17.750  0.00  0.00    +0.000 C 
ATOM      9  C   UNL     1       3.472   3.597  17.656  0.00  0.00    +0.000 C 
ATOM     10  C   UNL     1       4.538   4.218  16.732  0.00  0.00    +0.000 C 
ATOM     11  N   UNL     1       5.329   5.080  17.554  0.00  0.00    +0.000 N 
ATOM     12  C   UNL     1       6.221   5.983  16.995  0.00  0.00    +0.000 C 
ATOM     13  O   UNL     1       6.524   5.958  15.806  0.00  0.00    +0.000 OA
ATOM     14  C   UNL     1       4.850   5.113  18.910  0.00  0.00    +0.000 C 
ATOM     15  H   UNL     1       3.511   0.928  19.401  0.00  0.00    +0.000 HD
BRANCH  12  16
ATOM     16  C   UNL     1       6.736   7.078  17.883  0.00  0.00    +0.000 C 
ATOM     17  C   UNL     1       8.096   7.024  18.534  0.00  0.00    +0.000 C 
ATOM     18  C   UNL     1       7.864   7.963  17.387  0.00  0.00    +0.000 C 
ENDBRANCH  12  16
ENDBRANCH   3   5
BRANCH   1  19
ATOM     19  C   UNL     1       1.336   6.874  20.828  0.00  0.00    +0.000 C 
BRANCH  19  25
ATOM     20  C   UNL     1      -0.624  12.830  20.183  0.00  0.00    +0.000 C 
ATOM     21  N   UNL     1       0.359  12.399  21.156  0.00  0.00    +0.000 N 
ATOM     22  C   UNL     1       0.720  11.064  21.020  0.00  0.00    +0.000 A 
ATOM     23  N   UNL     1       0.667  10.466  19.823  0.00  0.00    +0.000 NA
ATOM     24  C   UNL     1       0.925   9.142  19.777  0.00  0.00    +0.000 A 
ATOM     25  C   UNL     1       1.229   8.372  20.879  0.00  0.00    +0.000 A 
ATOM     26  C   UNL     1       1.304   9.097  22.051  0.00  0.00    +0.000 A 
ATOM     27  N   UNL     1       1.051  10.422  22.146  0.00  0.00    +0.000 NA
ATOM     28  H   UNL     1       0.093  12.521  22.127  0.00  0.00    +0.000 HD
ENDBRANCH  19  25
ENDBRANCH   1  19
TORSDOF 4
ENDMDL
MODEL 4
REMARK VINA RESULT:      -7.2      2.775      4.565
REMARK  Name = 
REMARK  6 active torsions:
REMARK  status: ('A' for Active; 'I' for Inactive)
REMARK    1  A    between atoms: C_1  and  N_2
REMARK    2  A    between atoms: C_6  and  C_7
REMARK    3  A    between atoms: C_7  and  N_8
REMARK    4  A    between atoms: N_8  and  C_9
REMARK    5  A    between atoms: C_10  and  C_12
REMARK    6  A    between atoms: C_19  and  C_21
REMARK                            x       y       z     vdW  Elec       q    Type
REMARK                         _______ _______ _______ _____ _____    ______ ____
ROOT
ATOM      1  N   UNL     1       2.448   7.673  18.864  0.00  0.00    +0.000 N 
ATOM      2  C   UNL     1       2.272   6.821  20.028  0.00  0.00    +0.000 C 
ATOM      3  C   UNL     1       3.226   7.390  17.776  0.00  0.00    +0.000 C 
ATOM      4  O   UNL     1       3.159   8.214  16.842  0.00  0.00    +0.000 OA
ENDROOT
BRANCH   3   5
ATOM      5  C   UNL     1       4.373   6.329  17.665  0.00  0.00    +0.000 C 
ATOM      6  C   UNL     1       5.123   6.940  16.462  0.00  0.00    +0.000 C 
ATOM      7  N   UNL     1       6.432   6.332  16.310  0.00  0.00    +0.000 NA
ATOM      8  C   UNL     1       6.807   5.774  17.593  0.00  0.00    +0.000 C 
ATOM      9  C   UNL     1       5.565   5.804  18.514  0.00  0.00    +0.000 C 
ATOM     10  C   UNL     1       5.303   4.340  18.924  0.00  0.00    +0.000 C 
ATOM     11  N   UNL     1       4.069   3.967  18.308  0.00  0.00    +0.000 N 
ATOM     12  C   UNL     1       3.414   2.797  18.668  0.00  0.00    +0.000 C 
ATOM     13  O   UNL     1       3.938   1.939  19.371  0.00  0.00    +0.000 OA
ATOM     14  C   UNL     1       3.484   5.058  17.576  0.00  0.00    +0.000 C 
ATOM     15  H   UNL     1       7.119   7.030  16.013  0.00  0.00    +0.000 HD
BRANCH  12  16
ATOM     16  C   UNL     1       1.979   2.659  18.249  0.00  0.00    +0.000 C 
ATOM     17  C   UNL     1       0.985   1.828  19.020  0.00  0.00    +0.000 C 
ATOM     18  C   UNL     1       0.899   3.324  19.082  0.00  0.00    +0.000 C 
ENDBRANCH  12  16
ENDBRANCH   3   5
BRANCH   1  19
ATOM     19  C   UNL     1       1.589   8.862  18.780  0.00  0.00    +0.000 C 
BRANCH  19  25
ATOM     20  C   UNL     1      -1.563  12.147  23.139  0.00  0.00    +0.000 C 
ATOM     21  N   UNL     1      -1.133  10.774  23.310  0.00  0.00    +0.000 N 
ATOM     22  C   UNL     1      -0.346  10.310  22.263  0.00  0.00    +0.000 A 
ATOM     23  N   UNL     1       0.411  11.157  21.555  0.00  0.00    +0.000 NA
ATOM     24  C   UNL     1       1.066  10.662  20.484  0.00  0.00    +0.000 A 
ATOM     25  C   UNL     1       0.997   9.348  20.072  0.00  0.00    +0.000 A 
ATOM     26  C   UNL     1       0.229   8.553  20.900  0.00  0.00    +0.000 A 
ATOM     27  N   UNL     1      -0.446   9.006  21.980  0.00  0.00    +0.000 NA
ATOM     28  H   UNL     1      -1.877  10.096  23.426  0.00  0.00    +0.000 HD
ENDBRANCH  19  25
ENDBRANCH   1  19
TORSDOF 4
ENDMDL
MODEL 5
REMARK VINA RESULT:      -7.1      2.914      7.591
REMARK  Name = 
REMARK  6 active torsions:
REMARK  status: ('A' for Active; 'I' for Inactive)
REMARK    1  A    between atoms: C_1  and  N_2
REMARK    2  A    between atoms: C_6  and  C_7
REMARK    3  A    between atoms: C_7  and  N_8
REMARK    4  A    between atoms: N_8  and  C_9
REMARK    5  A    between atoms: C_10  and  C_12
REMARK    6  A    between atoms: C_19  and  C_21
REMARK                            x       y       z     vdW  Elec       q    Type
REMARK                         _______ _______ _______ _____ _____    ______ ____
ROOT
ATOM      1  N   UNL     1       5.461   5.689  18.137  0.00  0.00    +0.000 N 
ATOM      2  C   UNL     1       5.907   4.815  19.209  0.00  0.00    +0.000 C 
ATOM      3  C   UNL     1       4.221   6.254  18.029  0.00  0.00    +0.000 C 
ATOM      4  O   UNL     1       4.078   7.052  17.080  0.00  0.00    +0.000 OA
ENDROOT
BRANCH   3   5
ATOM      5  C   UNL     1       2.905   5.832  18.766  0.00  0.00    +0.000 C 
ATOM      6  C   UNL     1       2.483   4.684  17.825  0.00  0.00    +0.000 C 
ATOM      7  N   UNL     1       1.435   3.883  18.429  0.00  0.00    +0.000 NA
ATOM      8  C   UNL     1       1.506   4.078  19.862  0.00  0.00    +0.000 C 
ATOM      9  C   UNL     1       2.470   5.255  20.142  0.00  0.00    +0.000 C 
ATOM     10  C   UNL     1       1.645   6.309  20.909  0.00  0.00    +0.000 C 
ATOM     11  N   UNL     1       1.518   7.432  20.034  0.00  0.00    +0.000 N 
ATOM     12  C   UNL     1       1.046   8.651  20.498  0.00  0.00    +0.000 C 
ATOM     13  O   UNL     1       0.536   8.781  21.606  0.00  0.00    +0.000 OA
ATOM     14  C   UNL     1       2.217   7.226  18.794  0.00  0.00    +0.000 C 
ATOM     15  H   UNL     1       1.562   2.894  18.199  0.00  0.00    +0.000 HD
BRANCH  12  16
ATOM     16  C   UNL     1       1.277   9.852  19.627  0.00  0.00    +0.000 C 
ATOM     17  C   UNL     1       0.291  10.294  18.575  0.00  0.00    +0.000 C 
ATOM     18  C   UNL     1       0.429  11.091  19.838  0.00  0.00    +0.000 C 
ENDBRANCH  12  16
ENDBRANCH   3   5
BRANCH   1  19
ATOM     19  C   UNL     1       6.482   6.128  17.176  0.00  0.00    +0.000 C 
BRANCH  19  25
ATOM     20  C   UNL     1       5.219   3.046  11.825  0.00  0.00    +0.000 C 
ATOM     21  N   UNL     1       6.537   3.515  12.200  0.00  0.00    +0.000 N 
ATOM     22  C   UNL     1       6.585   4.052  13.481  0.00  0.00    +0.000 A 
ATOM     23  N   UNL     1       5.740   3.627  14.428  0.00  0.00    +0.000 NA
ATOM     24  C   UNL     1       5.765   4.264  15.617  0.00  0.00    +0.000 A 
ATOM     25  C   UNL     1       6.597   5.324  15.913  0.00  0.00    +0.000 A 
ATOM     26  C   UNL     1       7.458   5.648  14.884  0.00  0.00    +0.000 A 
ATOM     27  N   UNL     1       7.467   5.040  13.676  0.00  0.00    +0.000 NA
ATOM     28  H   UNL     1       6.942   4.213  11.586  0.00  0.00    +0.000 HD
ENDBRANCH  19  25
ENDBRANCH   1  19
TORSDOF 4
ENDMDL
MODEL 6
REMARK VINA RESULT:      -7.1      1.205      1.675
REMARK  Name = 
REMARK  6 active torsions:
REMARK  status: ('A' for Active; 'I' for Inactive)
REMARK    1  A    between atoms: C_1  and  N_2
REMARK    2  A    between atoms: C_6  and  C_7
REMARK    3  A    between atoms: C_7  and  N_8
REMARK    4  A    between atoms: N_8  and  C_9
REMARK    5  A    between atoms: C_10  and  C_12
REMARK    6  A    between atoms: C_19  and  C_21
REMARK                            x       y       z     vdW  Elec       q    Type
REMARK                         _______ _______ _______ _____ _____    ______ ____
ROOT
ATOM      1  N   UNL     1       1.921   7.584  19.733  0.00  0.00    +0.000 N 
ATOM      2  C   UNL     1       2.507   8.040  18.484  0.00  0.00    +0.000 C 
ATOM      3  C   UNL     1       1.930   6.298  20.199  0.00  0.00    +0.000 C 
ATOM      4  O   UNL     1       1.455   6.141  21.342  0.00  0.00    +0.000 OA
ENDROOT
BRANCH   3   5
ATOM      5  C   UNL     1       2.205   4.985  19.391  0.00  0.00    +0.000 C 
ATOM      6  C   UNL     1       1.316   4.029  20.214  0.00  0.00    +0.000 C 
ATOM      7  N   UNL     1       1.124   2.774  19.511  0.00  0.00    +0.000 NA
ATOM      8  C   UNL     1       1.359   3.020  18.103  0.00  0.00    +0.000 C 
ATOM      9  C   UNL     1       1.982   4.427  17.956  0.00  0.00    +0.000 C 
ATOM     10  C   UNL     1       3.344   4.221  17.263  0.00  0.00    +0.000 C 
ATOM     11  N   UNL     1       4.341   4.559  18.230  0.00  0.00    +0.000 N 
ATOM     12  C   UNL     1       5.669   4.721  17.863  0.00  0.00    +0.000 C 
ATOM     13  O   UNL     1       6.090   4.399  16.756  0.00  0.00    +0.000 OA
ATOM     14  C   UNL     1       3.757   5.006  19.467  0.00  0.00    +0.000 C 
ATOM     15  H   UNL     1       0.173   2.424  19.656  0.00  0.00    +0.000 HD
BRANCH  12  16
ATOM     16  C   UNL     1       6.571   5.413  18.843  0.00  0.00    +0.000 C 
ATOM     17  C   UNL     1       8.069   5.239  18.830  0.00  0.00    +0.000 C 
ATOM     18  C   UNL     1       7.473   6.531  18.354  0.00  0.00    +0.000 C 
ENDBRANCH  12  16
ENDBRANCH   3   5
BRANCH   1  19
ATOM     19  C   UNL     1       1.420   8.621  20.644  0.00  0.00    +0.000 C 
BRANCH  19  25
ATOM     20  C   UNL     1      -0.242  14.215  18.261  0.00  0.00    +0.000 C 
ATOM     21  N   UNL     1      -0.926  12.972  17.968  0.00  0.00    +0.000 N 
ATOM     22  C   UNL     1      -0.454  11.896  18.711  0.00  0.00    +0.000 A 
ATOM     23  N   UNL     1       0.075  12.090  19.926  0.00  0.00    +0.000 NA
ATOM     24  C   UNL     1       0.614  11.021  20.548  0.00  0.00    +0.000 A 
ATOM     25  C   UNL     1       0.659   9.752  20.012  0.00  0.00    +0.000 A 
ATOM     26  C   UNL     1       0.044   9.655  18.780  0.00  0.00    +0.000 A 
ATOM     27  N   UNL     1      -0.506  10.698  18.118  0.00  0.00    +0.000 NA
ATOM     28  H   UNL     1      -0.899  12.678  16.998  0.00  0.00    +0.000 HD
ENDBRANCH  19  25
ENDBRANCH   1  19
TORSDOF 4
ENDMDL
MODEL 7
REMARK VINA RESULT:      -7.1      3.230      6.964
REMARK  Name = 
REMARK  6 active torsions:
REMARK  status: ('A' for Active; 'I' for Inactive)
REMARK    1  A    between atoms: C_1  and  N_2
REMARK    2  A    between atoms: C_6  and  C_7
REMARK    3  A    between atoms: C_7  and  N_8
REMARK    4  A    between atoms: N_8  and  C_9
REMARK    5  A    between atoms: C_10  and  C_12
REMARK    6  A    between atoms: C_19  and  C_21
REMARK                            x       y       z     vdW  Elec       q    Type
REMARK                         _______ _______ _______ _____ _____    ______ ____
ROOT
ATOM      1  N   UNL     1       5.738   4.345  17.616  0.00  0.00    +0.000 N 
ATOM      2  C   UNL     1       5.108   4.062  16.337  0.00  0.00    +0.000 C 
ATOM      3  C   UNL     1       5.195   4.100  18.846  0.00  0.00    +0.000 C 
ATOM      4  O   UNL     1       5.946   4.328  19.816  0.00  0.00    +0.000 OA
ENDROOT
BRANCH   3   5
ATOM      5  C   UNL     1       3.693   3.833  19.198  0.00  0.00    +0.000 C 
ATOM      6  C   UNL     1       3.452   2.639  18.251  0.00  0.00    +0.000 C 
ATOM      7  N   UNL     1       2.208   1.966  18.578  0.00  0.00    +0.000 NA
ATOM      8  C   UNL     1       1.890   2.280  19.956  0.00  0.00    +0.000 C 
ATOM      9  C   UNL     1       2.837   3.408  20.425  0.00  0.00    +0.000 C 
ATOM     10  C   UNL     1       1.928   4.578  20.853  0.00  0.00    +0.000 C 
ATOM     11  N   UNL     1       2.154   5.627  19.909  0.00  0.00    +0.000 N 
ATOM     12  C   UNL     1       1.682   6.911  20.139  0.00  0.00    +0.000 C 
ATOM     13  O   UNL     1       0.894   7.171  21.043  0.00  0.00    +0.000 OA
ATOM     14  C   UNL     1       3.152   5.267  18.938  0.00  0.00    +0.000 C 
ATOM     15  H   UNL     1       2.306   0.955  18.458  0.00  0.00    +0.000 HD
BRANCH  12  16
ATOM     16  C   UNL     1       2.256   8.013  19.296  0.00  0.00    +0.000 C 
ATOM     17  C   UNL     1       1.820   8.258  17.873  0.00  0.00    +0.000 C 
ATOM     18  C   UNL     1       1.386   9.208  18.951  0.00  0.00    +0.000 C 
ENDBRANCH  12  16
ENDBRANCH   3   5
BRANCH   1  19
ATOM     19  C   UNL     1       7.140   4.781  17.578  0.00  0.00    +0.000 C 
BRANCH  19  25
ATOM     20  C   UNL     1       9.874  10.372  18.578  0.00  0.00    +0.000 C 
ATOM     21  N   UNL     1       8.517  10.205  18.099  0.00  0.00    +0.000 N 
ATOM     22  C   UNL     1       8.099   8.880  18.080  0.00  0.00    +0.000 A 
ATOM     23  N   UNL     1       8.609   7.995  18.947  0.00  0.00    +0.000 NA
ATOM     24  C   UNL     1       8.243   6.704  18.805  0.00  0.00    +0.000 A 
ATOM     25  C   UNL     1       7.390   6.241  17.825  0.00  0.00    +0.000 A 
ATOM     26  C   UNL     1       6.887   7.243  17.019  0.00  0.00    +0.000 A 
ATOM     27  N   UNL     1       7.226   8.548  17.122  0.00  0.00    +0.000 NA
ATOM     28  H   UNL     1       8.334  10.572  17.172  0.00  0.00    +0.000 HD
ENDBRANCH  19  25
ENDBRANCH   1  19
TORSDOF 4
ENDMDL
MODEL 8
REMARK VINA RESULT:      -7.1      3.080      8.008
REMARK  Name = 
REMARK  6 active torsions:
REMARK  status: ('A' for Active; 'I' for Inactive)
REMARK    1  A    between atoms: C_1  and  N_2
REMARK    2  A    between atoms: C_6  and  C_7
REMARK    3  A    between atoms: C_7  and  N_8
REMARK    4  A    between atoms: N_8  and  C_9
REMARK    5  A    between atoms: C_10  and  C_12
REMARK    6  A    between atoms: C_19  and  C_21
REMARK                            x       y       z     vdW  Elec       q    Type
REMARK                         _______ _______ _______ _____ _____    ______ ____
ROOT
ATOM      1  N   UNL     1       1.995   8.359  18.928  0.00  0.00    +0.000 N 
ATOM      2  C   UNL     1       1.803   7.845  20.274  0.00  0.00    +0.000 C 
ATOM      3  C   UNL     1       1.780   9.648  18.526  0.00  0.00    +0.000 C 
ATOM      4  O   UNL     1       2.100   9.900  17.346  0.00  0.00    +0.000 OA
ENDROOT
BRANCH   3   5
ATOM      5  C   UNL     1       0.949  10.756  19.256  0.00  0.00    +0.000 C 
ATOM      6  C   UNL     1      -0.463  10.248  18.894  0.00  0.00    +0.000 C 
ATOM      7  N   UNL     1      -1.471  10.914  19.698  0.00  0.00    +0.000 NA
ATOM      8  C   UNL     1      -0.820  11.408  20.894  0.00  0.00    +0.000 C 
ATOM      9  C   UNL     1       0.709  11.275  20.702  0.00  0.00    +0.000 C 
ATOM     10  C   UNL     1       1.282  12.700  20.842  0.00  0.00    +0.000 C 
ATOM     11  N   UNL     1       1.775  13.062  19.550  0.00  0.00    +0.000 N 
ATOM     12  C   UNL     1       2.577  14.182  19.378  0.00  0.00    +0.000 C 
ATOM     13  O   UNL     1       2.741  15.016  20.263  0.00  0.00    +0.000 OA
ATOM     14  C   UNL     1       1.618  11.996  18.598  0.00  0.00    +0.000 C 
ATOM     15  H   UNL     1      -2.220  10.262  19.946  0.00  0.00    +0.000 HD
BRANCH  12  16
ATOM     16  C   UNL     1       3.334  14.290  18.086  0.00  0.00    +0.000 C 
ATOM     17  C   UNL     1       3.805  15.610  17.529  0.00  0.00    +0.000 C 
ATOM     18  C   UNL     1       4.805  14.662  18.121  0.00  0.00    +0.000 C 
ENDBRANCH  12  16
ENDBRANCH   3   5
BRANCH   1  19
ATOM     19  C   UNL     1       2.627   7.454  17.959  0.00  0.00    +0.000 C 
BRANCH  19  25
ATOM     20  C   UNL     1       3.722   1.270  18.505  0.00  0.00    +0.000 C 
ATOM     21  N   UNL     1       4.334   2.281  19.344  0.00  0.00    +0.000 N 
ATOM     22  C   UNL     1       3.839   3.559  19.115  0.00  0.00    +0.000 A 
ATOM     23  N   UNL     1       2.586   3.733  18.676  0.00  0.00    +0.000 NA
ATOM     24  C   UNL     1       2.203   4.990  18.370  0.00  0.00    +0.000 A 
ATOM     25  C   UNL     1       3.018   6.097  18.473  0.00  0.00    +0.000 A 
ATOM     26  C   UNL     1       4.269   5.811  18.980  0.00  0.00    +0.000 A 
ATOM     27  N   UNL     1       4.698   4.568  19.297  0.00  0.00    +0.000 NA
ATOM     28  H   UNL     1       5.343   2.352  19.274  0.00  0.00    +0.000 HD
ENDBRANCH  19  25
ENDBRANCH   1  19
TORSDOF 4
ENDMDL
MODEL 9
REMARK VINA RESULT:      -7.0      3.117      6.898
REMARK  Name = 
REMARK  6 active torsions:
REMARK  status: ('A' for Active; 'I' for Inactive)
REMARK    1  A    between atoms: C_1  and  N_2
REMARK    2  A    between atoms: C_6  and  C_7
REMARK    3  A    between atoms: C_7  and  N_8
REMARK    4  A    between atoms: N_8  and  C_9
REMARK    5  A    between atoms: C_10  and  C_12
REMARK    6  A    between atoms: C_19  and  C_21
REMARK                            x       y       z     vdW  Elec       q    Type
REMARK                         _______ _______ _______ _____ _____    ______ ____
ROOT
ATOM      1  N   UNL     1       4.946   4.116  17.498  0.00  0.00    +0.000 N 
ATOM      2  C   UNL     1       4.106   4.421  16.351  0.00  0.00    +0.000 C 
ATOM      3  C   UNL     1       4.505   3.710  18.727  0.00  0.00    +0.000 C 
ATOM      4  O   UNL     1       5.400   3.406  19.542  0.00  0.00    +0.000 OA
ENDROOT
BRANCH   3   5
ATOM      5  C   UNL     1       3.061   3.835  19.319  0.00  0.00    +0.000 C 
ATOM      6  C   UNL     1       2.431   2.607  18.628  0.00  0.00    +0.000 C 
ATOM      7  N   UNL     1       1.152   2.279  19.229  0.00  0.00    +0.000 NA
ATOM      8  C   UNL     1       1.139   2.839  20.565  0.00  0.00    +0.000 C 
ATOM      9  C   UNL     1       2.357   3.781  20.705  0.00  0.00    +0.000 C 
ATOM     10  C   UNL     1       1.784   5.171  21.049  0.00  0.00    +0.000 C 
ATOM     11  N   UNL     1       2.052   6.005  19.920  0.00  0.00    +0.000 N 
ATOM     12  C   UNL     1       1.890   7.381  19.992  0.00  0.00    +0.000 C 
ATOM     13  O   UNL     1       1.333   7.930  20.938  0.00  0.00    +0.000 OA
ATOM     14  C   UNL     1       2.781   5.304  18.897  0.00  0.00    +0.000 C 
ATOM     15  H   UNL     1       1.024   1.264  19.269  0.00  0.00    +0.000 HD
BRANCH  12  16
ATOM     16  C   UNL     1       2.522   8.203  18.907  0.00  0.00    +0.000 C 
ATOM     17  C   UNL     1       2.193   8.010  17.447  0.00  0.00    +0.000 C 
ATOM     18  C   UNL     1       1.676   9.222  18.165  0.00  0.00    +0.000 C 
ENDBRANCH  12  16
ENDBRANCH   3   5
BRANCH   1  19
ATOM     19  C   UNL     1       6.396   4.085  17.265  0.00  0.00    +0.000 C 
BRANCH  19  25
ATOM     20  C   UNL     1       7.986  10.135  18.043  0.00  0.00    +0.000 C 
ATOM     21  N   UNL     1       8.698   9.024  18.642  0.00  0.00    +0.000 N 
ATOM     22  C   UNL     1       8.235   7.783  18.221  0.00  0.00    +0.000 A 
ATOM     23  N   UNL     1       7.685   7.640  17.009  0.00  0.00    +0.000 NA
ATOM     24  C   UNL     1       7.158   6.436  16.704  0.00  0.00    +0.000 A 
ATOM     25  C   UNL     1       7.144   5.354  17.559  0.00  0.00    +0.000 A 
ATOM     26  C   UNL     1       7.779   5.598  18.760  0.00  0.00    +0.000 A 
ATOM     27  N   UNL     1       8.318   6.787  19.111  0.00  0.00    +0.000 NA
ATOM     28  H   UNL     1       8.691   8.999  19.656  0.00  0.00    +0.000 HD
ENDBRANCH  19  25
ENDBRANCH   1  19
TORSDOF 4
ENDMDL
