MODEL 1
REMARK VINA RESULT:      -7.5      0.000      0.000
REMARK  Name = 
REMARK  2 active torsions:
REMARK  status: ('A' for Active; 'I' for Inactive)
REMARK    1  A    between atoms: C_2  and  C_3
REMARK    2  A    between atoms: C_3  and  N_4
REMARK                            x       y       z     vdW  Elec       q    Type
REMARK                         _______ _______ _______ _____ _____    ______ ____
ROOT
ATOM      1  N   UNL     1       2.947   6.488  18.940  0.00  0.00    +0.000 N 
ATOM      2  C   UNL     1       2.899   5.159  19.318  0.00  0.00    +0.000 A 
ATOM      3  N   UNL     1       3.561   4.189  18.565  0.00  0.00    +0.000 N 
ATOM      4  C   UNL     1       4.295   4.551  17.445  0.00  0.00    +0.000 A 
ATOM      5  C   UNL     1       4.992   3.611  16.632  0.00  0.00    +0.000 A 
ATOM      6  C   UNL     1       5.734   4.018  15.524  0.00  0.00    +0.000 A 
ATOM      7  C   UNL     1       5.805   5.363  15.183  0.00  0.00    +0.000 A 
ATOM      8  C   UNL     1       5.123   6.304  15.945  0.00  0.00    +0.000 A 
ATOM      9  C   UNL     1       4.366   5.912  17.073  0.00  0.00    +0.000 A 
ATOM     10  C   UNL     1       3.683   6.862  17.832  0.00  0.00    +0.000 A 
ATOM     11  O   UNL     1       3.744   8.040  17.505  0.00  0.00    +0.000 OA
ATOM     12  C   UNL     1       3.482   2.775  19.020  0.00  0.00    +0.000 C 
ATOM     13  C   UNL     1       2.108   2.155  18.730  0.00  0.00    +0.000 C 
ATOM     14  C   UNL     1       0.919   3.057  19.062  0.00  0.00    +0.000 C 
ATOM     15  C   UNL     1       0.986   3.741  20.431  0.00  0.00    +0.000 C 
ATOM     16  C   UNL     1       2.173   4.725  20.615  0.00  0.00    +0.000 C 
ENDROOT
BRANCH   1  17
ATOM     17  C   UNL     1       2.252   7.561  19.690  0.00  0.00    +0.000 C 
BRANCH  17  19
ATOM     18  C   UNL     1       1.018   9.630  19.132  0.00  0.00    +0.000 C 
ATOM     19  C   UNL     1       1.431   8.414  18.762  0.00  0.00    +0.000 C 
ENDBRANCH  17  19
ENDBRANCH   1  17
TORSDOF 2
ENDMDL
MODEL 2
REMARK VINA RESULT:      -7.5      0.869      1.003
REMARK  Name = 
REMARK  2 active torsions:
REMARK  status: ('A' for Active; 'I' for Inactive)
REMARK    1  A    between atoms: C_2  and  C_3
REMARK    2  A    between atoms: C_3  and  N_4
REMARK                            x       y       z     vdW  Elec       q    Type
REMARK                         _______ _______ _______ _____ _____    ______ ____
ROOT
ATOM      1  N   UNL     1       2.371   6.463  19.096  0.00  0.00    +0.000 N 
ATOM      2  C   UNL     1       2.522   5.152  19.508  0.00  0.00    +0.000 A 
ATOM      3  N   UNL     1       3.433   4.313  18.866  0.00  0.00    +0.000 N 
ATOM      4  C   UNL     1       4.213   4.792  17.823  0.00  0.00    +0.000 A 
ATOM      5  C   UNL     1       5.158   3.988  17.124  0.00  0.00    +0.000 A 
ATOM      6  C   UNL     1       5.936   4.513  16.093  0.00  0.00    +0.000 A 
ATOM      7  C   UNL     1       5.800   5.843  15.718  0.00  0.00    +0.000 A 
ATOM      8  C   UNL     1       4.875   6.651  16.369  0.00  0.00    +0.000 A 
ATOM      9  C   UNL     1       4.077   6.138  17.418  0.00  0.00    +0.000 A 
ATOM     10  C   UNL     1       3.149   6.954  18.065  0.00  0.00    +0.000 A 
ATOM     11  O   UNL     1       3.032   8.119  17.709  0.00  0.00    +0.000 OA
ATOM     12  C   UNL     1       3.561   2.914  19.355  0.00  0.00    +0.000 C 
ATOM     13  C   UNL     1       2.366   2.047  18.934  0.00  0.00    +0.000 C 
ATOM     14  C   UNL     1       1.002   2.718  19.102  0.00  0.00    +0.000 C 
ATOM     15  C   UNL     1       0.785   3.418  20.447  0.00  0.00    +0.000 C 
ATOM     16  C   UNL     1       1.743   4.606  20.730  0.00  0.00    +0.000 C 
ENDROOT
BRANCH   1  17
ATOM     17  C   UNL     1       1.409   7.398  19.728  0.00  0.00    +0.000 C 
BRANCH  17  19
ATOM     18  C   UNL     1       1.225   8.742  21.795  0.00  0.00    +0.000 C 
ATOM     19  C   UNL     1       1.925   7.874  21.058  0.00  0.00    +0.000 C 
ENDBRANCH  17  19
ENDBRANCH   1  17
TORSDOF 2
ENDMDL
MODEL 3
REMARK VINA RESULT:      -7.3      1.592      4.320
REMARK  Name = 
REMARK  2 active torsions:
REMARK  status: ('A' for Active; 'I' for Inactive)
REMARK    1  A    between atoms: C_2  and  C_3
REMARK    2  A    between atoms: C_3  and  N_4
REMARK                            x       y       z     vdW  Elec       q    Type
REMARK                         _______ _______ _______ _____ _____    ______ ____
ROOT
ATOM      1  N   UNL     1       3.154   7.032  18.634  0.00  0.00    +0.000 N 
ATOM      2  C   UNL     1       4.042   6.252  17.917  0.00  0.00    +0.000 A 
ATOM      3  N   UNL     1       4.272   4.927  18.287  0.00  0.00    +0.000 N 
ATOM      4  C   UNL     1       3.594   4.371  19.362  0.00  0.00    +0.000 A 
ATOM      5  C   UNL     1       3.785   3.026  19.792  0.00  0.00    +0.000 A 
ATOM      6  C   UNL     1       3.070   2.500  20.868  0.00  0.00    +0.000 A 
ATOM      7  C   UNL     1       2.151   3.286  21.551  0.00  0.00    +0.000 A 
ATOM      8  C   UNL     1       1.954   4.607  21.168  0.00  0.00    +0.000 A 
ATOM      9  C   UNL     1       2.668   5.159  20.079  0.00  0.00    +0.000 A 
ATOM     10  C   UNL     1       2.466   6.487  19.701  0.00  0.00    +0.000 A 
ATOM     11  O   UNL     1       1.665   7.168  20.327  0.00  0.00    +0.000 OA
ATOM     12  C   UNL     1       5.233   4.131  17.476  0.00  0.00    +0.000 C 
ATOM     13  C   UNL     1       6.688   4.530  17.756  0.00  0.00    +0.000 C 
ATOM     14  C   UNL     1       6.931   6.037  17.835  0.00  0.00    +0.000 C 
ATOM     15  C   UNL     1       6.296   6.857  16.707  0.00  0.00    +0.000 C 
ATOM     16  C   UNL     1       4.746   6.804  16.653  0.00  0.00    +0.000 C 
ENDROOT
BRANCH   1  17
ATOM     17  C   UNL     1       2.880   8.450  18.300  0.00  0.00    +0.000 C 
BRANCH  17  19
ATOM     18  C   UNL     1       0.739   9.647  17.986  0.00  0.00    +0.000 C 
ATOM     19  C   UNL     1       1.514   8.599  17.689  0.00  0.00    +0.000 C 
ENDBRANCH  17  19
ENDBRANCH   1  17
TORSDOF 2
ENDMDL
MODEL 4
REMARK VINA RESULT:      -7.2      1.585      4.110
REMARK  Name = 
REMARK  2 active torsions:
REMARK  status: ('A' for Active; 'I' for Inactive)
REMARK    1  A    between atoms: C_2  and  C_3
REMARK    2  A    between atoms: C_3  and  N_4
REMARK                            x       y       z     vdW  Elec       q    Type
REMARK                         _______ _______ _______ _____ _____    ______ ____
ROOT
ATOM      1  N   UNL     1       3.165   6.480  18.483  0.00  0.00    +0.000 N 
ATOM      2  C   UNL     1       4.176   6.069  17.633  0.00  0.00    +0.000 A 
ATOM      3  N   UNL     1       4.410   4.710  17.423  0.00  0.00    +0.000 N 
ATOM      4  C   UNL     1       3.615   3.758  18.044  0.00  0.00    +0.000 A 
ATOM      5  C   UNL     1       3.802   2.356  17.875  0.00  0.00    +0.000 A 
ATOM      6  C   UNL     1       2.969   1.431  18.504  0.00  0.00    +0.000 A 
ATOM      7  C   UNL     1       1.932   1.862  19.321  0.00  0.00    +0.000 A 
ATOM      8  C   UNL     1       1.733   3.223  19.522  0.00  0.00    +0.000 A 
ATOM      9  C   UNL     1       2.566   4.177  18.892  0.00  0.00    +0.000 A 
ATOM     10  C   UNL     1       2.361   5.541  19.100  0.00  0.00    +0.000 A 
ATOM     11  O   UNL     1       1.453   5.901  19.837  0.00  0.00    +0.000 OA
ATOM     12  C   UNL     1       5.505   4.324  16.494  0.00  0.00    +0.000 C 
ATOM     13  C   UNL     1       6.890   4.531  17.122  0.00  0.00    +0.000 C 
ATOM     14  C   UNL     1       7.055   5.850  17.878  0.00  0.00    +0.000 C 
ATOM     15  C   UNL     1       6.547   7.090  17.137  0.00  0.00    +0.000 C 
ATOM     16  C   UNL     1       5.022   7.099  16.845  0.00  0.00    +0.000 C 
ENDROOT
BRANCH   1  17
ATOM     17  C   UNL     1       2.879   7.909  18.758  0.00  0.00    +0.000 C 
BRANCH  17  19
ATOM     18  C   UNL     1       1.208   9.567  18.004  0.00  0.00    +0.000 C 
ATOM     19  C   UNL     1       1.917   8.465  17.745  0.00  0.00    +0.000 C 
ENDBRANCH  17  19
ENDBRANCH   1  17
TORSDOF 2
ENDMDL
MODEL 5
REMARK VINA RESULT:      -7.1      1.372      4.487
REMARK  Name = 
REMARK  2 active torsions:
REMARK  status: ('A' for Active; 'I' for Inactive)
REMARK    1  A    between atoms: C_2  and  C_3
REMARK    2  A    between atoms: C_3  and  N_4
REMARK                            x       y       z     vdW  Elec       q    Type
REMARK                         _______ _______ _______ _____ _____    ______ ____
ROOT
ATOM      1  N   UNL     1       3.829   4.722  17.356  0.00  0.00    +0.000 N 
ATOM      2  C   UNL     1       3.260   3.797  18.212  0.00  0.00    +0.000 A 
ATOM      3  N   UNL     1       2.490   4.221  19.295  0.00  0.00    +0.000 N 
ATOM      4  C   UNL     1       2.266   5.573  19.511  0.00  0.00    +0.000 A 
ATOM      5  C   UNL     1       1.493   6.072  20.598  0.00  0.00    +0.000 A 
ATOM      6  C   UNL     1       1.278   7.439  20.769  0.00  0.00    +0.000 A 
ATOM      7  C   UNL     1       1.823   8.353  19.876  0.00  0.00    +0.000 A 
ATOM      8  C   UNL     1       2.598   7.900  18.814  0.00  0.00    +0.000 A 
ATOM      9  C   UNL     1       2.827   6.518  18.623  0.00  0.00    +0.000 A 
ATOM     10  C   UNL     1       3.606   6.071  17.556  0.00  0.00    +0.000 A 
ATOM     11  O   UNL     1       4.093   6.893  16.790  0.00  0.00    +0.000 OA
ATOM     12  C   UNL     1       1.895   3.183  20.180  0.00  0.00    +0.000 C 
ATOM     13  C   UNL     1       2.945   2.539  21.095  0.00  0.00    +0.000 C 
ATOM     14  C   UNL     1       4.263   2.188  20.404  0.00  0.00    +0.000 C 
ATOM     15  C   UNL     1       4.118   1.463  19.062  0.00  0.00    +0.000 C 
ATOM     16  C   UNL     1       3.403   2.277  17.952  0.00  0.00    +0.000 C 
ENDROOT
BRANCH   1  17
ATOM     17  C   UNL     1       4.670   4.334  16.199  0.00  0.00    +0.000 C 
BRANCH  17  19
ATOM     18  C   UNL     1       7.056   4.931  15.955  0.00  0.00    +0.000 C 
ATOM     19  C   UNL     1       6.115   4.234  16.599  0.00  0.00    +0.000 C 
ENDBRANCH  17  19
ENDBRANCH   1  17
TORSDOF 2
ENDMDL
MODEL 6
REMARK VINA RESULT:      -6.9      1.753      5.158
REMARK  Name = 
REMARK  2 active torsions:
REMARK  status: ('A' for Active; 'I' for Inactive)
REMARK    1  A    between atoms: C_2  and  C_3
REMARK    2  A    between atoms: C_3  and  N_4
REMARK                            x       y       z     vdW  Elec       q    Type
REMARK                         _______ _______ _______ _____ _____    ______ ____
ROOT
ATOM      1  N   UNL     1       4.306   4.392  19.142  0.00  0.00    +0.000 N 
ATOM      2  C   UNL     1       5.042   4.937  18.106  0.00  0.00    +0.000 A 
ATOM      3  N   UNL     1       4.709   6.189  17.589  0.00  0.00    +0.000 N 
ATOM      4  C   UNL     1       3.653   6.911  18.124  0.00  0.00    +0.000 A 
ATOM      5  C   UNL     1       3.260   8.193  17.642  0.00  0.00    +0.000 A 
ATOM      6  C   UNL     1       2.203   8.894  18.220  0.00  0.00    +0.000 A 
ATOM      7  C   UNL     1       1.500   8.349  19.288  0.00  0.00    +0.000 A 
ATOM      8  C   UNL     1       1.847   7.093  19.772  0.00  0.00    +0.000 A 
ATOM      9  C   UNL     1       2.916   6.367  19.200  0.00  0.00    +0.000 A 
ATOM     10  C   UNL     1       3.257   5.106  19.690  0.00  0.00    +0.000 A 
ATOM     11  O   UNL     1       2.615   4.636  20.620  0.00  0.00    +0.000 OA
ATOM     12  C   UNL     1       5.539   6.731  16.479  0.00  0.00    +0.000 C 
ATOM     13  C   UNL     1       5.243   6.029  15.146  0.00  0.00    +0.000 C 
ATOM     14  C   UNL     1       5.120   4.509  15.241  0.00  0.00    +0.000 C 
ATOM     15  C   UNL     1       6.226   3.817  16.044  0.00  0.00    +0.000 C 
ATOM     16  C   UNL     1       6.287   4.208  17.545  0.00  0.00    +0.000 C 
ENDROOT
BRANCH   1  17
ATOM     17  C   UNL     1       4.600   3.060  19.723  0.00  0.00    +0.000 C 
BRANCH  17  19
ATOM     18  C   UNL     1       3.184   2.214  17.881  0.00  0.00    +0.000 C 
ATOM     19  C   UNL     1       3.769   1.995  19.062  0.00  0.00    +0.000 C 
ENDBRANCH  17  19
ENDBRANCH   1  17
TORSDOF 2
ENDMDL
MODEL 7
REMARK VINA RESULT:      -6.8      1.752      4.189
REMARK  Name = 
REMARK  2 active torsions:
REMARK  status: ('A' for Active; 'I' for Inactive)
REMARK    1  A    between atoms: C_2  and  C_3
REMARK    2  A    between atoms: C_3  and  N_4
REMARK                            x       y       z     vdW  Elec       q    Type
REMARK                         _______ _______ _______ _____ _____    ______ ____
ROOT
ATOM      1  N   UNL     1       2.623   4.704  20.524  0.00  0.00    +0.000 N 
ATOM      2  C   UNL     1       3.578   4.360  19.584  0.00  0.00    +0.000 A 
ATOM      3  N   UNL     1       3.906   5.246  18.558  0.00  0.00    +0.000 N 
ATOM      4  C   UNL     1       3.296   6.490  18.484  0.00  0.00    +0.000 A 
ATOM      5  C   UNL     1       3.584   7.440  17.462  0.00  0.00    +0.000 A 
ATOM      6  C   UNL     1       2.961   8.687  17.433  0.00  0.00    +0.000 A 
ATOM      7  C   UNL     1       2.034   9.032  18.409  0.00  0.00    +0.000 A 
ATOM      8  C   UNL     1       1.719   8.122  19.411  0.00  0.00    +0.000 A 
ATOM      9  C   UNL     1       2.339   6.852  19.458  0.00  0.00    +0.000 A 
ATOM     10  C   UNL     1       2.016   5.943  20.466  0.00  0.00    +0.000 A 
ATOM     11  O   UNL     1       1.184   6.259  21.306  0.00  0.00    +0.000 OA
ATOM     12  C   UNL     1       4.945   4.829  17.579  0.00  0.00    +0.000 C 
ATOM     13  C   UNL     1       4.414   3.780  16.592  0.00  0.00    +0.000 C 
ATOM     14  C   UNL     1       3.578   2.671  17.230  0.00  0.00    +0.000 C 
ATOM     15  C   UNL     1       4.182   2.047  18.492  0.00  0.00    +0.000 C 
ATOM     16  C   UNL     1       4.352   3.023  19.687  0.00  0.00    +0.000 C 
ENDROOT
BRANCH   1  17
ATOM     17  C   UNL     1       2.221   3.799  21.628  0.00  0.00    +0.000 C 
BRANCH  17  19
ATOM     18  C   UNL     1       0.686   2.875  19.923  0.00  0.00    +0.000 C 
ATOM     19  C   UNL     1       1.206   2.797  21.152  0.00  0.00    +0.000 C 
ENDBRANCH  17  19
ENDBRANCH   1  17
TORSDOF 2
ENDMDL
MODEL 8
REMARK VINA RESULT:      -6.7      1.342      4.434
REMARK  Name = 
REMARK  2 active torsions:
REMARK  status: ('A' for Active; 'I' for Inactive)
REMARK    1  A    between atoms: C_2  and  C_3
REMARK    2  A    between atoms: C_3  and  N_4
REMARK                            x       y       z     vdW  Elec       q    Type
REMARK                         _______ _______ _______ _____ _____    ______ ____
ROOT
ATOM      1  N   UNL     1       4.686   4.687  16.820  0.00  0.00    +0.000 N 
ATOM      2  C   UNL     1       3.733   4.006  17.554  0.00  0.00    +0.000 A 
ATOM      3  N   UNL     1       2.759   4.707  18.265  0.00  0.00    +0.000 N 
ATOM      4  C   UNL     1       2.720   6.093  18.222  0.00  0.00    +0.000 A 
ATOM      5  C   UNL     1       1.755   6.869  18.926  0.00  0.00    +0.000 A 
ATOM      6  C   UNL     1       1.740   8.261  18.842  0.00  0.00    +0.000 A 
ATOM      7  C   UNL     1       2.680   8.927  18.066  0.00  0.00    +0.000 A 
ATOM      8  C   UNL     1       3.647   8.201  17.380  0.00  0.00    +0.000 A 
ATOM      9  C   UNL     1       3.678   6.789  17.452  0.00  0.00    +0.000 A 
ATOM     10  C   UNL     1       4.653   6.067  16.762  0.00  0.00    +0.000 A 
ATOM     11  O   UNL     1       5.482   6.674  16.098  0.00  0.00    +0.000 OA
ATOM     12  C   UNL     1       1.753   3.924  19.033  0.00  0.00    +0.000 C 
ATOM     13  C   UNL     1       2.349   3.325  20.314  0.00  0.00    +0.000 C 
ATOM     14  C   UNL     1       3.732   2.696  20.139  0.00  0.00    +0.000 C 
ATOM     15  C   UNL     1       3.874   1.769  18.927  0.00  0.00    +0.000 C 
ATOM     16  C   UNL     1       3.680   2.459  17.550  0.00  0.00    +0.000 C 
ENDROOT
BRANCH   1  17
ATOM     17  C   UNL     1       5.755   3.999  16.057  0.00  0.00    +0.000 C 
BRANCH  17  19
ATOM     18  C   UNL     1       6.388   4.017  13.667  0.00  0.00    +0.000 C 
ATOM     19  C   UNL     1       5.424   3.960  14.591  0.00  0.00    +0.000 C 
ENDBRANCH  17  19
ENDBRANCH   1  17
TORSDOF 2
ENDMDL
MODEL 9
REMARK VINA RESULT:      -6.5      1.420      4.334
REMARK  Name = 
REMARK  2 active torsions:
REMARK  status: ('A' for Active; 'I' for Inactive)
REMARK    1  A    between atoms: C_2  and  C_3
REMARK    2  A    between atoms: C_3  and  N_4
REMARK                            x       y       z     vdW  Elec       q    Type
REMARK                         _______ _______ _______ _____ _____    ______ ____
ROOT
ATOM      1  N   UNL     1       4.597   4.755  16.831  0.00  0.00    +0.000 N 
ATOM      2  C   UNL     1       3.745   4.055  17.665  0.00  0.00    +0.000 A 
ATOM      3  N   UNL     1       2.817   4.735  18.454  0.00  0.00    +0.000 N 
ATOM      4  C   UNL     1       2.724   6.118  18.393  0.00  0.00    +0.000 A 
ATOM      5  C   UNL     1       1.802   6.872  19.174  0.00  0.00    +0.000 A 
ATOM      6  C   UNL     1       1.728   8.261  19.070  0.00  0.00    +0.000 A 
ATOM      7  C   UNL     1       2.564   8.945  18.197  0.00  0.00    +0.000 A 
ATOM      8  C   UNL     1       3.487   8.240  17.433  0.00  0.00    +0.000 A 
ATOM      9  C   UNL     1       3.578   6.832  17.523  0.00  0.00    +0.000 A 
ATOM     10  C   UNL     1       4.508   6.132  16.755  0.00  0.00    +0.000 A 
ATOM     11  O   UNL     1       5.248   6.754  16.005  0.00  0.00    +0.000 OA
ATOM     12  C   UNL     1       1.919   3.932  19.327  0.00  0.00    +0.000 C 
ATOM     13  C   UNL     1       2.656   3.379  20.555  0.00  0.00    +0.000 C 
ATOM     14  C   UNL     1       4.038   2.796  20.258  0.00  0.00    +0.000 C 
ATOM     15  C   UNL     1       4.098   1.852  19.053  0.00  0.00    +0.000 C 
ATOM     16  C   UNL     1       3.749   2.507  17.690  0.00  0.00    +0.000 C 
ENDROOT
BRANCH   1  17
ATOM     17  C   UNL     1       5.614   4.091  15.981  0.00  0.00    +0.000 C 
BRANCH  17  19
ATOM     18  C   UNL     1       7.447   4.491  17.590  0.00  0.00    +0.000 C 
ATOM     19  C   UNL     1       6.997   4.563  16.334  0.00  0.00    +0.000 C 
ENDBRANCH  17  19
ENDBRANCH   1  17
TORSDOF 2
ENDMDL
