MODEL 1
REMARK VINA RESULT:      -9.1      0.000      0.000
REMARK  Name = 
REMARK  9 active torsions:
REMARK  status: ('A' for Active; 'I' for Inactive)
REMARK    1  A    between atoms: C_1  and  C_2
REMARK    2  A    between atoms: C_9  and  O_10
REMARK    3  A    between atoms: O_10  and  C_11
REMARK    4  A    between atoms: C_11  and  C_12
REMARK    5  A    between atoms: N_14  and  N_15
REMARK    6  A    between atoms: C_16  and  C_18
REMARK    7  A    between atoms: C_19  and  C_20
REMARK    8  A    between atoms: C_23  and  O_24
REMARK    9  A    between atoms: C_25  and  O_26
REMARK                            x       y       z     vdW  Elec       q    Type
REMARK                         _______ _______ _______ _____ _____    ______ ____
ROOT
ATOM      1  C   UNL     1       5.334   4.817  16.528  0.00  0.00    +0.000 C 
ATOM      2  O   UNL     1       5.200   5.297  15.400  0.00  0.00    +0.000 OA
ATOM      3  N   UNL     1       6.003   5.494  17.533  0.00  0.00    +0.000 N 
ATOM      4  H   UNL     1       6.155   5.126  18.470  0.00  0.00    +0.000 HD
ENDROOT
BRANCH   3   5
ATOM      5  N   UNL     1       6.500   6.775  17.253  0.00  0.00    +0.000 N 
ATOM      6  C   UNL     1       7.576   7.253  17.969  0.00  0.00    +0.000 C 
ATOM      7  O   UNL     1       8.130   6.628  18.865  0.00  0.00    +0.000 OA
ATOM      8  H   UNL     1       6.032   7.280  16.505  0.00  0.00    +0.000 HD
BRANCH   6   9
ATOM      9  C   UNL     1       7.998   8.617  17.542  0.00  0.00    +0.000 C 
ATOM     10  C   UNL     1       8.672   9.423  18.380  0.00  0.00    +0.000 C 
BRANCH  10  11
ATOM     11  C   UNL     1       9.140  10.784  18.050  0.00  0.00    +0.000 A 
ATOM     12  C   UNL     1       8.270  11.887  17.988  0.00  0.00    +0.000 A 
ATOM     13  C   UNL     1       8.748  13.172  17.691  0.00  0.00    +0.000 A 
ATOM     14  C   UNL     1      10.103  13.355  17.470  0.00  0.00    +0.000 A 
ATOM     15  C   UNL     1      10.978  12.277  17.551  0.00  0.00    +0.000 A 
ATOM     16  C   UNL     1      10.510  10.997  17.844  0.00  0.00    +0.000 A 
BRANCH  14  17
ATOM     17  O   UNL     1      10.631  14.583  17.175  0.00  0.00    +0.000 OA
ATOM     18  H   UNL     1      11.599  14.523  17.239  0.00  0.00    +0.000 HD
ENDBRANCH  14  17
BRANCH  15  19
ATOM     19  O   UNL     1      12.315  12.470  17.344  0.00  0.00    +0.000 OA
ATOM     20  H   UNL     1      12.745  11.727  17.812  0.00  0.00    +0.000 HD
ENDBRANCH  15  19
ENDBRANCH  10  11
ENDBRANCH   6   9
ENDBRANCH   3   5
BRANCH   1  21
ATOM     21  C   UNL     1       4.743   3.470  16.941  0.00  0.00    +0.000 C 
BRANCH  21  22
ATOM     22  O   UNL     1       3.322   3.504  16.966  0.00  0.00    +0.000 OA
BRANCH  22  31
ATOM     23  C   UNL     1       2.792   8.547  18.060  0.00  0.00    +0.000 C 
ATOM     24  C   UNL     1       2.435   7.310  18.823  0.00  0.00    +0.000 A 
ATOM     25  C   UNL     1       1.839   7.365  20.068  0.00  0.00    +0.000 A 
ATOM     26  C   UNL     1       1.524   6.168  20.697  0.00  0.00    +0.000 A 
ATOM     27  C   UNL     1       1.806   4.944  20.070  0.00  0.00    +0.000 A 
ATOM     28  C   UNL     1       1.478   3.734  20.702  0.00  0.00    +0.000 A 
ATOM     29  C   UNL     1       1.752   2.522  20.081  0.00  0.00    +0.000 A 
ATOM     30  C   UNL     1       2.363   2.516  18.831  0.00  0.00    +0.000 A 
ATOM     31  C   UNL     1       2.706   3.716  18.188  0.00  0.00    +0.000 A 
ATOM     32  C   UNL     1       2.425   4.958  18.797  0.00  0.00    +0.000 A 
ATOM     33  N   UNL     1       2.725   6.140  18.211  0.00  0.00    +0.000 NA
ENDBRANCH  22  31
ENDBRANCH  21  22
ENDBRANCH   1  21
TORSDOF 8
ENDMDL
MODEL 2
REMARK VINA RESULT:      -9.1      1.315      1.602
REMARK  Name = 
REMARK  9 active torsions:
REMARK  status: ('A' for Active; 'I' for Inactive)
REMARK    1  A    between atoms: C_1  and  C_2
REMARK    2  A    between atoms: C_9  and  O_10
REMARK    3  A    between atoms: O_10  and  C_11
REMARK    4  A    between atoms: C_11  and  C_12
REMARK    5  A    between atoms: N_14  and  N_15
REMARK    6  A    between atoms: C_16  and  C_18
REMARK    7  A    between atoms: C_19  and  C_20
REMARK    8  A    between atoms: C_23  and  O_24
REMARK    9  A    between atoms: C_25  and  O_26
REMARK                            x       y       z     vdW  Elec       q    Type
REMARK                         _______ _______ _______ _____ _____    ______ ____
ROOT
ATOM      1  C   UNL     1       5.796   5.782  16.467  0.00  0.00    +0.000 C 
ATOM      2  O   UNL     1       4.940   6.666  16.536  0.00  0.00    +0.000 OA
ATOM      3  N   UNL     1       7.148   6.068  16.549  0.00  0.00    +0.000 N 
ATOM      4  H   UNL     1       7.887   5.371  16.476  0.00  0.00    +0.000 HD
ENDROOT
BRANCH   3   5
ATOM      5  N   UNL     1       7.533   7.400  16.756  0.00  0.00    +0.000 N 
ATOM      6  C   UNL     1       8.005   7.783  17.993  0.00  0.00    +0.000 C 
ATOM      7  O   UNL     1       8.097   7.025  18.951  0.00  0.00    +0.000 OA
ATOM      8  H   UNL     1       7.454   8.016  15.950  0.00  0.00    +0.000 HD
BRANCH   6   9
ATOM      9  C   UNL     1       8.392   9.221  18.048  0.00  0.00    +0.000 C 
ATOM     10  C   UNL     1       9.237   9.670  18.990  0.00  0.00    +0.000 C 
BRANCH  10  11
ATOM     11  C   UNL     1       9.687  11.071  19.123  0.00  0.00    +0.000 A 
ATOM     12  C   UNL     1      10.008  11.645  20.366  0.00  0.00    +0.000 A 
ATOM     13  C   UNL     1      10.452  12.972  20.459  0.00  0.00    +0.000 A 
ATOM     14  C   UNL     1      10.589  13.722  19.302  0.00  0.00    +0.000 A 
ATOM     15  C   UNL     1      10.298  13.159  18.064  0.00  0.00    +0.000 A 
ATOM     16  C   UNL     1       9.854  11.842  17.965  0.00  0.00    +0.000 A 
BRANCH  14  17
ATOM     17  O   UNL     1      11.016  15.022  19.327  0.00  0.00    +0.000 OA
ATOM     18  H   UNL     1      11.175  15.274  20.253  0.00  0.00    +0.000 HD
ENDBRANCH  14  17
BRANCH  15  19
ATOM     19  O   UNL     1      10.448  13.903  16.928  0.00  0.00    +0.000 OA
ATOM     20  H   UNL     1      10.151  14.800  17.181  0.00  0.00    +0.000 HD
ENDBRANCH  15  19
ENDBRANCH  10  11
ENDBRANCH   6   9
ENDBRANCH   3   5
BRANCH   1  21
ATOM     21  C   UNL     1       5.458   4.298  16.335  0.00  0.00    +0.000 C 
BRANCH  21  22
ATOM     22  O   UNL     1       4.054   4.073  16.365  0.00  0.00    +0.000 OA
BRANCH  22  31
ATOM     23  C   UNL     1       2.105   7.958  19.194  0.00  0.00    +0.000 C 
ATOM     24  C   UNL     1       2.200   6.486  19.440  0.00  0.00    +0.000 A 
ATOM     25  C   UNL     1       1.714   5.904  20.594  0.00  0.00    +0.000 A 
ATOM     26  C   UNL     1       1.827   4.527  20.732  0.00  0.00    +0.000 A 
ATOM     27  C   UNL     1       2.417   3.761  19.716  0.00  0.00    +0.000 A 
ATOM     28  C   UNL     1       2.522   2.368  19.851  0.00  0.00    +0.000 A 
ATOM     29  C   UNL     1       3.102   1.607  18.844  0.00  0.00    +0.000 A 
ATOM     30  C   UNL     1       3.588   2.238  17.703  0.00  0.00    +0.000 A 
ATOM     31  C   UNL     1       3.500   3.631  17.554  0.00  0.00    +0.000 A 
ATOM     32  C   UNL     1       2.902   4.420  18.561  0.00  0.00    +0.000 A 
ATOM     33  N   UNL     1       2.784   5.764  18.457  0.00  0.00    +0.000 NA
ENDBRANCH  22  31
ENDBRANCH  21  22
ENDBRANCH   1  21
TORSDOF 8
ENDMDL
MODEL 3
REMARK VINA RESULT:      -8.8      1.349      1.529
REMARK  Name = 
REMARK  9 active torsions:
REMARK  status: ('A' for Active; 'I' for Inactive)
REMARK    1  A    between atoms: C_1  and  C_2
REMARK    2  A    between atoms: C_9  and  O_10
REMARK    3  A    between atoms: O_10  and  C_11
REMARK    4  A    between atoms: C_11  and  C_12
REMARK    5  A    between atoms: N_14  and  N_15
REMARK    6  A    between atoms: C_16  and  C_18
REMARK    7  A    between atoms: C_19  and  C_20
REMARK    8  A    between atoms: C_23  and  O_24
REMARK    9  A    between atoms: C_25  and  O_26
REMARK                            x       y       z     vdW  Elec       q    Type
REMARK                         _______ _______ _______ _____ _____    ______ ____
ROOT
ATOM      1  C   UNL     1       6.813   4.750  16.265  0.00  0.00    +0.000 C 
ATOM      2  O   UNL     1       7.993   4.502  16.518  0.00  0.00    +0.000 OA
ATOM      3  N   UNL     1       6.287   6.021  16.409  0.00  0.00    +0.000 N 
ATOM      4  H   UNL     1       5.314   6.264  16.232  0.00  0.00    +0.000 HD
ENDROOT
BRANCH   3   5
ATOM      5  N   UNL     1       7.145   7.052  16.818  0.00  0.00    +0.000 N 
ATOM      6  C   UNL     1       7.571   7.097  18.127  0.00  0.00    +0.000 C 
ATOM      7  O   UNL     1       7.231   6.290  18.983  0.00  0.00    +0.000 OA
ATOM      8  H   UNL     1       7.422   7.713  16.095  0.00  0.00    +0.000 HD
BRANCH   6   9
ATOM      9  C   UNL     1       8.493   8.237  18.399  0.00  0.00    +0.000 C 
ATOM     10  C   UNL     1       8.170   9.487  18.028  0.00  0.00    +0.000 C 
BRANCH  10  11
ATOM     11  C   UNL     1       9.009  10.680  18.258  0.00  0.00    +0.000 A 
ATOM     12  C   UNL     1       8.747  11.917  17.642  0.00  0.00    +0.000 A 
ATOM     13  C   UNL     1       9.550  13.039  17.897  0.00  0.00    +0.000 A 
ATOM     14  C   UNL     1      10.610  12.925  18.782  0.00  0.00    +0.000 A 
ATOM     15  C   UNL     1      10.865  11.714  19.416  0.00  0.00    +0.000 A 
ATOM     16  C   UNL     1      10.073  10.595  19.167  0.00  0.00    +0.000 A 
BRANCH  14  17
ATOM     17  O   UNL     1      11.430  13.982  19.071  0.00  0.00    +0.000 OA
ATOM     18  H   UNL     1      12.323  13.772  18.747  0.00  0.00    +0.000 HD
ENDBRANCH  14  17
BRANCH  15  19
ATOM     19  O   UNL     1      11.906  11.615  20.297  0.00  0.00    +0.000 OA
ATOM     20  H   UNL     1      12.291  12.514  20.323  0.00  0.00    +0.000 HD
ENDBRANCH  15  19
ENDBRANCH  10  11
ENDBRANCH   6   9
ENDBRANCH   3   5
BRANCH   1  21
ATOM     21  C   UNL     1       5.835   3.706  15.727  0.00  0.00    +0.000 C 
BRANCH  21  22
ATOM     22  O   UNL     1       4.483   4.099  15.925  0.00  0.00    +0.000 OA
BRANCH  22  31
ATOM     23  C   UNL     1       2.600   8.419  18.092  0.00  0.00    +0.000 C 
ATOM     24  C   UNL     1       2.670   7.003  18.571  0.00  0.00    +0.000 A 
ATOM     25  C   UNL     1       2.175   6.622  19.802  0.00  0.00    +0.000 A 
ATOM     26  C   UNL     1       2.265   5.282  20.159  0.00  0.00    +0.000 A 
ATOM     27  C   UNL     1       2.842   4.354  19.279  0.00  0.00    +0.000 A 
ATOM     28  C   UNL     1       2.923   2.999  19.636  0.00  0.00    +0.000 A 
ATOM     29  C   UNL     1       3.491   2.077  18.764  0.00  0.00    +0.000 A 
ATOM     30  C   UNL     1       3.986   2.509  17.538  0.00  0.00    +0.000 A 
ATOM     31  C   UNL     1       3.922   3.862  17.169  0.00  0.00    +0.000 A 
ATOM     32  C   UNL     1       3.338   4.812  18.035  0.00  0.00    +0.000 A 
ATOM     33  N   UNL     1       3.242   6.123  17.717  0.00  0.00    +0.000 NA
ENDBRANCH  22  31
ENDBRANCH  21  22
ENDBRANCH   1  21
TORSDOF 8
ENDMDL
MODEL 4
REMARK VINA RESULT:      -8.6      1.014      1.668
REMARK  Name = 
REMARK  9 active torsions:
REMARK  status: ('A' for Active; 'I' for Inactive)
REMARK    1  A    between atoms: C_1  and  C_2
REMARK    2  A    between atoms: C_9  and  O_10
REMARK    3  A    between atoms: O_10  and  C_11
REMARK    4  A    between atoms: C_11  and  C_12
REMARK    5  A    between atoms: N_14  and  N_15
REMARK    6  A    between atoms: C_16  and  C_18
REMARK    7  A    between atoms: C_19  and  C_20
REMARK    8  A    between atoms: C_23  and  O_24
REMARK    9  A    between atoms: C_25  and  O_26
REMARK                            x       y       z     vdW  Elec       q    Type
REMARK                         _______ _______ _______ _____ _____    ______ ____
ROOT
ATOM      1  C   UNL     1       6.520   5.046  16.249  0.00  0.00    +0.000 C 
ATOM      2  O   UNL     1       7.640   4.958  15.743  0.00  0.00    +0.000 OA
ATOM      3  N   UNL     1       6.074   6.219  16.831  0.00  0.00    +0.000 N 
ATOM      4  H   UNL     1       5.165   6.329  17.279  0.00  0.00    +0.000 HD
ENDROOT
BRANCH   3   5
ATOM      5  N   UNL     1       6.917   7.339  16.800  0.00  0.00    +0.000 N 
ATOM      6  C   UNL     1       7.817   7.536  17.824  0.00  0.00    +0.000 C 
ATOM      7  O   UNL     1       7.923   6.791  18.791  0.00  0.00    +0.000 OA
ATOM      8  H   UNL     1       6.820   7.947  15.989  0.00  0.00    +0.000 HD
BRANCH   6   9
ATOM      9  C   UNL     1       8.654   8.756  17.636  0.00  0.00    +0.000 C 
ATOM     10  C   UNL     1       8.315   9.918  18.217  0.00  0.00    +0.000 C 
BRANCH  10  11
ATOM     11  C   UNL     1       9.080  11.176  18.099  0.00  0.00    +0.000 A 
ATOM     12  C   UNL     1      10.484  11.215  18.173  0.00  0.00    +0.000 A 
ATOM     13  C   UNL     1      11.185  12.423  18.037  0.00  0.00    +0.000 A 
ATOM     14  C   UNL     1      10.478  13.593  17.812  0.00  0.00    +0.000 A 
ATOM     15  C   UNL     1       9.091  13.565  17.713  0.00  0.00    +0.000 A 
ATOM     16  C   UNL     1       8.389  12.369  17.849  0.00  0.00    +0.000 A 
BRANCH  14  17
ATOM     17  O   UNL     1      11.103  14.803  17.673  0.00  0.00    +0.000 OA
ATOM     18  H   UNL     1      12.022  14.641  17.399  0.00  0.00    +0.000 HD
ENDBRANCH  14  17
BRANCH  15  19
ATOM     19  O   UNL     1       8.404  14.722  17.479  0.00  0.00    +0.000 OA
ATOM     20  H   UNL     1       8.334  15.148  18.357  0.00  0.00    +0.000 HD
ENDBRANCH  15  19
ENDBRANCH  10  11
ENDBRANCH   6   9
ENDBRANCH   3   5
BRANCH   1  21
ATOM     21  C   UNL     1       5.506   3.903  16.243  0.00  0.00    +0.000 C 
BRANCH  21  22
ATOM     22  O   UNL     1       4.190   4.366  16.520  0.00  0.00    +0.000 OA
BRANCH  22  31
ATOM     23  C   UNL     1       2.073   8.090  19.444  0.00  0.00    +0.000 C 
ATOM     24  C   UNL     1       2.144   6.604  19.605  0.00  0.00    +0.000 A 
ATOM     25  C   UNL     1       1.577   5.958  20.686  0.00  0.00    +0.000 A 
ATOM     26  C   UNL     1       1.673   4.574  20.746  0.00  0.00    +0.000 A 
ATOM     27  C   UNL     1       2.328   3.866  19.727  0.00  0.00    +0.000 A 
ATOM     28  C   UNL     1       2.415   2.466  19.783  0.00  0.00    +0.000 A 
ATOM     29  C   UNL     1       3.059   1.763  18.773  0.00  0.00    +0.000 A 
ATOM     30  C   UNL     1       3.624   2.457  17.708  0.00  0.00    +0.000 A 
ATOM     31  C   UNL     1       3.554   3.858  17.639  0.00  0.00    +0.000 A 
ATOM     32  C   UNL     1       2.893   4.590  18.650  0.00  0.00    +0.000 A 
ATOM     33  N   UNL     1       2.789   5.938  18.621  0.00  0.00    +0.000 NA
ENDBRANCH  22  31
ENDBRANCH  21  22
ENDBRANCH   1  21
TORSDOF 8
ENDMDL
MODEL 5
REMARK VINA RESULT:      -8.5      1.323      1.607
REMARK  Name = 
REMARK  9 active torsions:
REMARK  status: ('A' for Active; 'I' for Inactive)
REMARK    1  A    between atoms: C_1  and  C_2
REMARK    2  A    between atoms: C_9  and  O_10
REMARK    3  A    between atoms: O_10  and  C_11
REMARK    4  A    between atoms: C_11  and  C_12
REMARK    5  A    between atoms: N_14  and  N_15
REMARK    6  A    between atoms: C_16  and  C_18
REMARK    7  A    between atoms: C_19  and  C_20
REMARK    8  A    between atoms: C_23  and  O_24
REMARK    9  A    between atoms: C_25  and  O_26
REMARK                            x       y       z     vdW  Elec       q    Type
REMARK                         _______ _______ _______ _____ _____    ______ ____
ROOT
ATOM      1  C   UNL     1       5.426   4.897  17.891  0.00  0.00    +0.000 C 
ATOM      2  O   UNL     1       6.025   5.010  18.962  0.00  0.00    +0.000 OA
ATOM      3  N   UNL     1       5.241   5.975  17.043  0.00  0.00    +0.000 N 
ATOM      4  H   UNL     1       4.734   5.930  16.160  0.00  0.00    +0.000 HD
ENDROOT
BRANCH   3   5
ATOM      5  N   UNL     1       5.791   7.211  17.410  0.00  0.00    +0.000 N 
ATOM      6  C   UNL     1       7.102   7.489  17.091  0.00  0.00    +0.000 C 
ATOM      7  O   UNL     1       7.842   6.705  16.509  0.00  0.00    +0.000 OA
ATOM      8  H   UNL     1       5.163   7.852  17.889  0.00  0.00    +0.000 HD
BRANCH   6   9
ATOM      9  C   UNL     1       7.532   8.848  17.529  0.00  0.00    +0.000 C 
ATOM     10  C   UNL     1       8.589   9.006  18.342  0.00  0.00    +0.000 C 
BRANCH  10  11
ATOM     11  C   UNL     1       9.097  10.306  18.824  0.00  0.00    +0.000 A 
ATOM     12  C   UNL     1       9.620  10.478  20.118  0.00  0.00    +0.000 A 
ATOM     13  C   UNL     1      10.115  11.721  20.541  0.00  0.00    +0.000 A 
ATOM     14  C   UNL     1      10.097  12.791  19.661  0.00  0.00    +0.000 A 
ATOM     15  C   UNL     1       9.605  12.628  18.370  0.00  0.00    +0.000 A 
ATOM     16  C   UNL     1       9.111  11.396  17.944  0.00  0.00    +0.000 A 
BRANCH  14  17
ATOM     17  O   UNL     1      10.564  14.028  20.014  0.00  0.00    +0.000 OA
ATOM     18  H   UNL     1      11.389  13.912  20.515  0.00  0.00    +0.000 HD
ENDBRANCH  14  17
BRANCH  15  19
ATOM     19  O   UNL     1       9.604  13.686  17.506  0.00  0.00    +0.000 OA
ATOM     20  H   UNL     1      10.453  13.611  17.027  0.00  0.00    +0.000 HD
ENDBRANCH  15  19
ENDBRANCH  10  11
ENDBRANCH   6   9
ENDBRANCH   3   5
BRANCH   1  21
ATOM     21  C   UNL     1       4.878   3.568  17.374  0.00  0.00    +0.000 C 
BRANCH  21  22
ATOM     22  O   UNL     1       3.456   3.538  17.403  0.00  0.00    +0.000 OA
BRANCH  22  31
ATOM     23  C   UNL     1       2.501   8.597  18.031  0.00  0.00    +0.000 C 
ATOM     24  C   UNL     1       2.257   7.412  18.910  0.00  0.00    +0.000 A 
ATOM     25  C   UNL     1       1.667   7.533  20.153  0.00  0.00    +0.000 A 
ATOM     26  C   UNL     1       1.460   6.377  20.896  0.00  0.00    +0.000 A 
ATOM     27  C   UNL     1       1.843   5.129  20.381  0.00  0.00    +0.000 A 
ATOM     28  C   UNL     1       1.624   3.960  21.128  0.00  0.00    +0.000 A 
ATOM     29  C   UNL     1       1.997   2.723  20.618  0.00  0.00    +0.000 A 
ATOM     30  C   UNL     1       2.598   2.651  19.365  0.00  0.00    +0.000 A 
ATOM     31  C   UNL     1       2.833   3.810  18.609  0.00  0.00    +0.000 A 
ATOM     32  C   UNL     1       2.449   5.076  19.104  0.00  0.00    +0.000 A 
ATOM     33  N   UNL     1       2.643   6.218  18.406  0.00  0.00    +0.000 NA
ENDBRANCH  22  31
ENDBRANCH  21  22
ENDBRANCH   1  21
TORSDOF 8
ENDMDL
MODEL 6
REMARK VINA RESULT:      -8.5      1.203      1.463
REMARK  Name = 
REMARK  9 active torsions:
REMARK  status: ('A' for Active; 'I' for Inactive)
REMARK    1  A    between atoms: C_1  and  C_2
REMARK    2  A    between atoms: C_9  and  O_10
REMARK    3  A    between atoms: O_10  and  C_11
REMARK    4  A    between atoms: C_11  and  C_12
REMARK    5  A    between atoms: N_14  and  N_15
REMARK    6  A    between atoms: C_16  and  C_18
REMARK    7  A    between atoms: C_19  and  C_20
REMARK    8  A    between atoms: C_23  and  O_24
REMARK    9  A    between atoms: C_25  and  O_26
REMARK                            x       y       z     vdW  Elec       q    Type
REMARK                         _______ _______ _______ _____ _____    ______ ____
ROOT
ATOM      1  C   UNL     1       5.480   5.539  16.431  0.00  0.00    +0.000 C 
ATOM      2  O   UNL     1       4.944   6.380  15.707  0.00  0.00    +0.000 OA
ATOM      3  N   UNL     1       6.601   5.835  17.186  0.00  0.00    +0.000 N 
ATOM      4  H   UNL     1       7.087   5.165  17.780  0.00  0.00    +0.000 HD
ENDROOT
BRANCH   3   5
ATOM      5  N   UNL     1       7.102   7.144  17.145  0.00  0.00    +0.000 N 
ATOM      6  C   UNL     1       7.975   7.564  18.124  0.00  0.00    +0.000 C 
ATOM      7  O   UNL     1       8.340   6.862  19.059  0.00  0.00    +0.000 OA
ATOM      8  H   UNL     1       6.793   7.714  16.361  0.00  0.00    +0.000 HD
BRANCH   6   9
ATOM      9  C   UNL     1       8.434   8.969  17.930  0.00  0.00    +0.000 C 
ATOM     10  C   UNL     1       9.036   9.640  18.926  0.00  0.00    +0.000 C 
BRANCH  10  11
ATOM     11  C   UNL     1       9.532  11.028  18.832  0.00  0.00    +0.000 A 
ATOM     12  C   UNL     1      10.248  11.499  17.716  0.00  0.00    +0.000 A 
ATOM     13  C   UNL     1      10.689  12.829  17.646  0.00  0.00    +0.000 A 
ATOM     14  C   UNL     1      10.400  13.693  18.690  0.00  0.00    +0.000 A 
ATOM     15  C   UNL     1       9.673  13.246  19.788  0.00  0.00    +0.000 A 
ATOM     16  C   UNL     1       9.233  11.926  19.865  0.00  0.00    +0.000 A 
BRANCH  14  17
ATOM     17  O   UNL     1      10.803  15.001  18.681  0.00  0.00    +0.000 OA
ATOM     18  H   UNL     1      11.258  15.185  19.521  0.00  0.00    +0.000 HD
ENDBRANCH  14  17
BRANCH  15  19
ATOM     19  O   UNL     1       9.382  14.109  20.806  0.00  0.00    +0.000 OA
ATOM     20  H   UNL     1       9.829  13.726  21.588  0.00  0.00    +0.000 HD
ENDBRANCH  15  19
ENDBRANCH  10  11
ENDBRANCH   6   9
ENDBRANCH   3   5
BRANCH   1  21
ATOM     21  C   UNL     1       4.943   4.119  16.604  0.00  0.00    +0.000 C 
BRANCH  21  22
ATOM     22  O   UNL     1       3.540   4.111  16.836  0.00  0.00    +0.000 OA
BRANCH  22  31
ATOM     23  C   UNL     1       2.144   9.005  17.836  0.00  0.00    +0.000 C 
ATOM     24  C   UNL     1       2.187   7.778  18.690  0.00  0.00    +0.000 A 
ATOM     25  C   UNL     1       1.806   7.798  20.018  0.00  0.00    +0.000 A 
ATOM     26  C   UNL     1       1.859   6.608  20.732  0.00  0.00    +0.000 A 
ATOM     27  C   UNL     1       2.286   5.426  20.107  0.00  0.00    +0.000 A 
ATOM     28  C   UNL     1       2.329   4.222  20.827  0.00  0.00    +0.000 A 
ATOM     29  C   UNL     1       2.747   3.050  20.209  0.00  0.00    +0.000 A 
ATOM     30  C   UNL     1       3.132   3.081  18.872  0.00  0.00    +0.000 A 
ATOM     31  C   UNL     1       3.103   4.278  18.139  0.00  0.00    +0.000 A 
ATOM     32  C   UNL     1       2.670   5.477  18.746  0.00  0.00    +0.000 A 
ATOM     33  N   UNL     1       2.613   6.651  18.077  0.00  0.00    +0.000 NA
ENDBRANCH  22  31
ENDBRANCH  21  22
ENDBRANCH   1  21
TORSDOF 8
ENDMDL
MODEL 7
REMARK VINA RESULT:      -8.5      1.717      1.904
REMARK  Name = 
REMARK  9 active torsions:
REMARK  status: ('A' for Active; 'I' for Inactive)
REMARK    1  A    between atoms: C_1  and  C_2
REMARK    2  A    between atoms: C_9  and  O_10
REMARK    3  A    between atoms: O_10  and  C_11
REMARK    4  A    between atoms: C_11  and  C_12
REMARK    5  A    between atoms: N_14  and  N_15
REMARK    6  A    between atoms: C_16  and  C_18
REMARK    7  A    between atoms: C_19  and  C_20
REMARK    8  A    between atoms: C_23  and  O_24
REMARK    9  A    between atoms: C_25  and  O_26
REMARK                            x       y       z     vdW  Elec       q    Type
REMARK                         _______ _______ _______ _____ _____    ______ ____
ROOT
ATOM      1  C   UNL     1       5.598   4.861  17.910  0.00  0.00    +0.000 C 
ATOM      2  O   UNL     1       6.212   4.885  18.978  0.00  0.00    +0.000 OA
ATOM      3  N   UNL     1       5.396   6.006  17.159  0.00  0.00    +0.000 N 
ATOM      4  H   UNL     1       4.877   6.034  16.283  0.00  0.00    +0.000 HD
ENDROOT
BRANCH   3   5
ATOM      5  N   UNL     1       5.949   7.209  17.621  0.00  0.00    +0.000 N 
ATOM      6  C   UNL     1       7.203   7.585  17.193  0.00  0.00    +0.000 C 
ATOM      7  O   UNL     1       7.891   6.918  16.430  0.00  0.00    +0.000 OA
ATOM      8  H   UNL     1       5.364   7.754  18.251  0.00  0.00    +0.000 HD
BRANCH   6   9
ATOM      9  C   UNL     1       7.641   8.895  17.755  0.00  0.00    +0.000 C 
ATOM     10  C   UNL     1       8.866   9.040  18.285  0.00  0.00    +0.000 C 
BRANCH  10  11
ATOM     11  C   UNL     1       9.396  10.294  18.858  0.00  0.00    +0.000 A 
ATOM     12  C   UNL     1       9.988  11.295  18.066  0.00  0.00    +0.000 A 
ATOM     13  C   UNL     1      10.464  12.484  18.637  0.00  0.00    +0.000 A 
ATOM     14  C   UNL     1      10.333  12.679  20.002  0.00  0.00    +0.000 A 
ATOM     15  C   UNL     1       9.727  11.708  20.793  0.00  0.00    +0.000 A 
ATOM     16  C   UNL     1       9.254  10.523  20.233  0.00  0.00    +0.000 A 
BRANCH  14  17
ATOM     17  O   UNL     1      10.778  13.817  20.619  0.00  0.00    +0.000 OA
ATOM     18  H   UNL     1      11.577  13.596  21.128  0.00  0.00    +0.000 HD
ENDBRANCH  14  17
BRANCH  15  19
ATOM     19  O   UNL     1       9.591  11.915  22.137  0.00  0.00    +0.000 OA
ATOM     20  H   UNL     1      10.209  12.647  22.336  0.00  0.00    +0.000 HD
ENDBRANCH  15  19
ENDBRANCH  10  11
ENDBRANCH   6   9
ENDBRANCH   3   5
BRANCH   1  21
ATOM     21  C   UNL     1       5.045   3.579  17.290  0.00  0.00    +0.000 C 
BRANCH  21  22
ATOM     22  O   UNL     1       3.623   3.559  17.301  0.00  0.00    +0.000 OA
BRANCH  22  31
ATOM     23  C   UNL     1       2.557   8.586  18.005  0.00  0.00    +0.000 C 
ATOM     24  C   UNL     1       2.333   7.382  18.864  0.00  0.00    +0.000 A 
ATOM     25  C   UNL     1       1.734   7.470  20.105  0.00  0.00    +0.000 A 
ATOM     26  C   UNL     1       1.548   6.299  20.827  0.00  0.00    +0.000 A 
ATOM     27  C   UNL     1       1.959   5.067  20.295  0.00  0.00    +0.000 A 
ATOM     28  C   UNL     1       1.761   3.882  21.022  0.00  0.00    +0.000 A 
ATOM     29  C   UNL     1       2.164   2.661  20.495  0.00  0.00    +0.000 A 
ATOM     30  C   UNL     1       2.773   2.622  19.245  0.00  0.00    +0.000 A 
ATOM     31  C   UNL     1       2.987   3.798  18.508  0.00  0.00    +0.000 A 
ATOM     32  C   UNL     1       2.574   5.047  19.021  0.00  0.00    +0.000 A 
ATOM     33  N   UNL     1       2.747   6.205  18.343  0.00  0.00    +0.000 NA
ENDBRANCH  22  31
ENDBRANCH  21  22
ENDBRANCH   1  21
TORSDOF 8
ENDMDL
MODEL 8
REMARK VINA RESULT:      -8.5      1.486      1.773
REMARK  Name = 
REMARK  9 active torsions:
REMARK  status: ('A' for Active; 'I' for Inactive)
REMARK    1  A    between atoms: C_1  and  C_2
REMARK    2  A    between atoms: C_9  and  O_10
REMARK    3  A    between atoms: O_10  and  C_11
REMARK    4  A    between atoms: C_11  and  C_12
REMARK    5  A    between atoms: N_14  and  N_15
REMARK    6  A    between atoms: C_16  and  C_18
REMARK    7  A    between atoms: C_19  and  C_20
REMARK    8  A    between atoms: C_23  and  O_24
REMARK    9  A    between atoms: C_25  and  O_26
REMARK                            x       y       z     vdW  Elec       q    Type
REMARK                         _______ _______ _______ _____ _____    ______ ____
ROOT
ATOM      1  C   UNL     1       6.880   4.779  16.211  0.00  0.00    +0.000 C 
ATOM      2  O   UNL     1       8.012   4.636  16.677  0.00  0.00    +0.000 OA
ATOM      3  N   UNL     1       6.338   6.033  15.987  0.00  0.00    +0.000 N 
ATOM      4  H   UNL     1       5.400   6.196  15.624  0.00  0.00    +0.000 HD
ENDROOT
BRANCH   3   5
ATOM      5  N   UNL     1       7.127   7.157  16.268  0.00  0.00    +0.000 N 
ATOM      6  C   UNL     1       7.322   7.537  17.577  0.00  0.00    +0.000 C 
ATOM      7  O   UNL     1       6.828   6.955  18.536  0.00  0.00    +0.000 OA
ATOM      8  H   UNL     1       7.532   7.628  15.462  0.00  0.00    +0.000 HD
BRANCH   6   9
ATOM      9  C   UNL     1       8.198   8.735  17.712  0.00  0.00    +0.000 C 
ATOM     10  C   UNL     1       8.668   9.113  18.912  0.00  0.00    +0.000 C 
BRANCH  10  11
ATOM     11  C   UNL     1       9.547  10.276  19.147  0.00  0.00    +0.000 A 
ATOM     12  C   UNL     1       9.649  10.903  20.403  0.00  0.00    +0.000 A 
ATOM     13  C   UNL     1      10.508  11.994  20.601  0.00  0.00    +0.000 A 
ATOM     14  C   UNL     1      11.276  12.450  19.543  0.00  0.00    +0.000 A 
ATOM     15  C   UNL     1      11.203  11.825  18.303  0.00  0.00    +0.000 A 
ATOM     16  C   UNL     1      10.351  10.741  18.098  0.00  0.00    +0.000 A 
BRANCH  14  17
ATOM     17  O   UNL     1      12.132  13.511  19.672  0.00  0.00    +0.000 OA
ATOM     18  H   UNL     1      13.001  13.170  19.945  0.00  0.00    +0.000 HD
ENDBRANCH  14  17
BRANCH  15  19
ATOM     19  O   UNL     1      11.975  12.274  17.269  0.00  0.00    +0.000 OA
ATOM     20  H   UNL     1      12.457  13.041  17.638  0.00  0.00    +0.000 HD
ENDBRANCH  15  19
ENDBRANCH  10  11
ENDBRANCH   6   9
ENDBRANCH   3   5
BRANCH   1  21
ATOM     21  C   UNL     1       5.992   3.609  15.792  0.00  0.00    +0.000 C 
BRANCH  21  22
ATOM     22  O   UNL     1       4.614   3.890  16.006  0.00  0.00    +0.000 OA
BRANCH  22  31
ATOM     23  C   UNL     1       2.653   8.364  17.751  0.00  0.00    +0.000 C 
ATOM     24  C   UNL     1       2.814   7.020  18.389  0.00  0.00    +0.000 A 
ATOM     25  C   UNL     1       2.402   6.772  19.684  0.00  0.00    +0.000 A 
ATOM     26  C   UNL     1       2.572   5.490  20.191  0.00  0.00    +0.000 A 
ATOM     27  C   UNL     1       3.144   4.486  19.396  0.00  0.00    +0.000 A 
ATOM     28  C   UNL     1       3.305   3.187  19.905  0.00  0.00    +0.000 A 
ATOM     29  C   UNL     1       3.867   2.190  19.118  0.00  0.00    +0.000 A 
ATOM     30  C   UNL     1       4.277   2.489  17.823  0.00  0.00    +0.000 A 
ATOM     31  C   UNL     1       4.131   3.784  17.299  0.00  0.00    +0.000 A 
ATOM     32  C   UNL     1       3.551   4.809  18.080  0.00  0.00    +0.000 A 
ATOM     33  N   UNL     1       3.379   6.067  17.614  0.00  0.00    +0.000 NA
ENDBRANCH  22  31
ENDBRANCH  21  22
ENDBRANCH   1  21
TORSDOF 8
ENDMDL
MODEL 9
REMARK VINA RESULT:      -8.2      6.345      9.621
REMARK  Name = 
REMARK  9 active torsions:
REMARK  status: ('A' for Active; 'I' for Inactive)
REMARK    1  A    between atoms: C_1  and  C_2
REMARK    2  A    between atoms: C_9  and  O_10
REMARK    3  A    between atoms: O_10  and  C_11
REMARK    4  A    between atoms: C_11  and  C_12
REMARK    5  A    between atoms: N_14  and  N_15
REMARK    6  A    between atoms: C_16  and  C_18
REMARK    7  A    between atoms: C_19  and  C_20
REMARK    8  A    between atoms: C_23  and  O_24
REMARK    9  A    between atoms: C_25  and  O_26
REMARK                            x       y       z     vdW  Elec       q    Type
REMARK                         _______ _______ _______ _____ _____    ______ ____
ROOT
ATOM      1  C   UNL     1       1.465   9.215  18.582  0.00  0.00    +0.000 C 
ATOM      2  O   UNL     1       0.814  10.111  18.043  0.00  0.00    +0.000 OA
ATOM      3  N   UNL     1       1.247   8.846  19.898  0.00  0.00    +0.000 N 
ATOM      4  H   UNL     1       1.776   8.127  20.388  0.00  0.00    +0.000 HD
ENDROOT
BRANCH   3   5
ATOM      5  N   UNL     1       0.225   9.492  20.608  0.00  0.00    +0.000 N 
ATOM      6  C   UNL     1       0.449   9.882  21.910  0.00  0.00    +0.000 C 
ATOM      7  O   UNL     1       1.499   9.683  22.510  0.00  0.00    +0.000 OA
ATOM      8  H   UNL     1      -0.640   9.653  20.096  0.00  0.00    +0.000 HD
BRANCH   6   9
ATOM      9  C   UNL     1      -0.723  10.573  22.520  0.00  0.00    +0.000 C 
ATOM     10  C   UNL     1      -0.876  11.902  22.401  0.00  0.00    +0.000 C 
BRANCH  10  11
ATOM     11  C   UNL     1      -2.003  12.676  22.960  0.00  0.00    +0.000 A 
ATOM     12  C   UNL     1      -2.162  14.053  22.726  0.00  0.00    +0.000 A 
ATOM     13  C   UNL     1      -3.254  14.758  23.254  0.00  0.00    +0.000 A 
ATOM     14  C   UNL     1      -4.197  14.078  24.008  0.00  0.00    +0.000 A 
ATOM     15  C   UNL     1      -4.064  12.711  24.228  0.00  0.00    +0.000 A 
ATOM     16  C   UNL     1      -2.981  12.005  23.707  0.00  0.00    +0.000 A 
BRANCH  14  17
ATOM     17  O   UNL     1      -5.283  14.708  24.552  0.00  0.00    +0.000 OA
ATOM     18  H   UNL     1      -5.961  14.038  24.743  0.00  0.00    +0.000 HD
ENDBRANCH  14  17
BRANCH  15  19
ATOM     19  O   UNL     1      -5.005  12.047  24.963  0.00  0.00    +0.000 OA
ATOM     20  H   UNL     1      -5.215  12.655  25.699  0.00  0.00    +0.000 HD
ENDBRANCH  15  19
ENDBRANCH  10  11
ENDBRANCH   6   9
ENDBRANCH   3   5
BRANCH   1  21
ATOM     21  C   UNL     1       2.531   8.399  17.853  0.00  0.00    +0.000 C 
BRANCH  21  22
ATOM     22  O   UNL     1       3.018   7.331  18.656  0.00  0.00    +0.000 OA
BRANCH  22  31
ATOM     23  C   UNL     1       1.095   2.900  20.545  0.00  0.00    +0.000 C 
ATOM     24  C   UNL     1       2.097   3.184  19.471  0.00  0.00    +0.000 A 
ATOM     25  C   UNL     1       2.707   2.172  18.755  0.00  0.00    +0.000 A 
ATOM     26  C   UNL     1       3.612   2.526  17.762  0.00  0.00    +0.000 A 
ATOM     27  C   UNL     1       3.884   3.878  17.503  0.00  0.00    +0.000 A 
ATOM     28  C   UNL     1       4.791   4.235  16.492  0.00  0.00    +0.000 A 
ATOM     29  C   UNL     1       5.058   5.573  16.232  0.00  0.00    +0.000 A 
ATOM     30  C   UNL     1       4.428   6.558  16.986  0.00  0.00    +0.000 A 
ATOM     31  C   UNL     1       3.525   6.219  18.007  0.00  0.00    +0.000 A 
ATOM     32  C   UNL     1       3.231   4.865  18.279  0.00  0.00    +0.000 A 
ATOM     33  N   UNL     1       2.359   4.491  19.243  0.00  0.00    +0.000 NA
ENDBRANCH  22  31
ENDBRANCH  21  22
ENDBRANCH   1  21
TORSDOF 8
ENDMDL
