MODEL 1
REMARK VINA RESULT:      -8.3      0.000      0.000
REMARK  Name = 
REMARK  3 active torsions:
REMARK  status: ('A' for Active; 'I' for Inactive)
REMARK    1  A    between atoms: C_2  and  C_3
REMARK    2  A    between atoms: C_3  and  C_4
REMARK    3  A    between atoms: N_10  and  C_11
REMARK                            x       y       z     vdW  Elec       q    Type
REMARK                         _______ _______ _______ _____ _____    ______ ____
ROOT
ATOM      1  O   UNL     1       4.034   6.831  17.791  0.00  0.00    +0.000 OA
ATOM      2  C   UNL     1       4.335   5.755  18.321  0.00  0.00    +0.000 C 
ATOM      3  N   UNL     1       5.165   4.802  17.775  0.00  0.00    +0.000 N 
ATOM      4  H   UNL     1       5.559   4.114  18.396  0.00  0.00    +0.000 HD
ENDROOT
BRANCH   3   5
ATOM      5  C   UNL     1       5.786   4.952  16.502  0.00  0.00    +0.000 A 
ATOM      6  C   UNL     1       7.081   5.426  16.293  0.00  0.00    +0.000 A 
ATOM      7  N   UNL     1       7.657   5.570  15.067  0.00  0.00    +0.000 NA
ATOM      8  C   UNL     1       7.044   4.991  14.029  0.00  0.00    +0.000 A 
ATOM      9  C   UNL     1       7.670   4.951  12.789  0.00  0.00    +0.000 A 
ATOM     10  C   UNL     1       7.245   4.065  11.799  0.00  0.00    +0.000 A 
ATOM     11  C   UNL     1       6.154   3.238  12.040  0.00  0.00    +0.000 A 
ATOM     12  C   UNL     1       5.392   3.422  13.191  0.00  0.00    +0.000 A 
ATOM     13  C   UNL     1       5.809   4.331  14.179  0.00  0.00    +0.000 A 
ATOM     14  C   UNL     1       5.101   4.502  15.378  0.00  0.00    +0.000 A 
ENDBRANCH   3   5
BRANCH   2  15
ATOM     15  C   UNL     1       3.801   5.428  19.715  0.00  0.00    +0.000 C 
BRANCH  15  16
ATOM     16  C   UNL     1       2.694   4.410  19.737  0.00  0.00    +0.000 A 
ATOM     17  C   UNL     1       2.172   3.932  20.950  0.00  0.00    +0.000 A 
ATOM     18  C   UNL     1       1.140   2.987  20.957  0.00  0.00    +0.000 A 
ATOM     19  C   UNL     1       0.613   2.526  19.759  0.00  0.00    +0.000 A 
ATOM     20  C   UNL     1       1.095   3.021  18.547  0.00  0.00    +0.000 A 
ATOM     21  C   UNL     1       2.126   3.960  18.536  0.00  0.00    +0.000 A 
ENDBRANCH  15  16
ENDBRANCH   2  15
TORSDOF 3
ENDMDL
MODEL 2
REMARK VINA RESULT:      -8.3      0.151      1.086
REMARK  Name = 
REMARK  3 active torsions:
REMARK  status: ('A' for Active; 'I' for Inactive)
REMARK    1  A    between atoms: C_2  and  C_3
REMARK    2  A    between atoms: C_3  and  C_4
REMARK    3  A    between atoms: N_10  and  C_11
REMARK                            x       y       z     vdW  Elec       q    Type
REMARK                         _______ _______ _______ _____ _____    ______ ____
ROOT
ATOM      1  O   UNL     1       4.009   7.018  17.774  0.00  0.00    +0.000 OA
ATOM      2  C   UNL     1       4.261   5.939  18.323  0.00  0.00    +0.000 C 
ATOM      3  N   UNL     1       5.065   4.950  17.805  0.00  0.00    +0.000 N 
ATOM      4  H   UNL     1       5.423   4.257  18.441  0.00  0.00    +0.000 HD
ENDROOT
BRANCH   3   5
ATOM      5  C   UNL     1       5.713   5.061  16.541  0.00  0.00    +0.000 A 
ATOM      6  C   UNL     1       7.027   5.486  16.349  0.00  0.00    +0.000 A 
ATOM      7  N   UNL     1       7.629   5.593  15.131  0.00  0.00    +0.000 NA
ATOM      8  C   UNL     1       7.015   5.020  14.091  0.00  0.00    +0.000 A 
ATOM      9  C   UNL     1       7.661   4.941  12.863  0.00  0.00    +0.000 A 
ATOM     10  C   UNL     1       7.223   4.056  11.878  0.00  0.00    +0.000 A 
ATOM     11  C   UNL     1       6.100   3.271  12.110  0.00  0.00    +0.000 A 
ATOM     12  C   UNL     1       5.324   3.497  13.245  0.00  0.00    +0.000 A 
ATOM     13  C   UNL     1       5.756   4.405  14.227  0.00  0.00    +0.000 A 
ATOM     14  C   UNL     1       5.033   4.618  15.411  0.00  0.00    +0.000 A 
ENDBRANCH   3   5
BRANCH   2  15
ATOM     15  C   UNL     1       3.691   5.651  19.712  0.00  0.00    +0.000 C 
BRANCH  15  16
ATOM     16  C   UNL     1       2.624   4.591  19.741  0.00  0.00    +0.000 A 
ATOM     17  C   UNL     1       1.994   4.165  18.560  0.00  0.00    +0.000 A 
ATOM     18  C   UNL     1       1.004   3.177  18.599  0.00  0.00    +0.000 A 
ATOM     19  C   UNL     1       0.649   2.598  19.810  0.00  0.00    +0.000 A 
ATOM     20  C   UNL     1       1.294   2.984  20.985  0.00  0.00    +0.000 A 
ATOM     21  C   UNL     1       2.279   3.972  20.950  0.00  0.00    +0.000 A 
ENDBRANCH  15  16
ENDBRANCH   2  15
TORSDOF 3
ENDMDL
MODEL 3
REMARK VINA RESULT:      -7.8      1.366      1.619
REMARK  Name = 
REMARK  3 active torsions:
REMARK  status: ('A' for Active; 'I' for Inactive)
REMARK    1  A    between atoms: C_2  and  C_3
REMARK    2  A    between atoms: C_3  and  C_4
REMARK    3  A    between atoms: N_10  and  C_11
REMARK                            x       y       z     vdW  Elec       q    Type
REMARK                         _______ _______ _______ _____ _____    ______ ____
ROOT
ATOM      1  O   UNL     1       6.270   4.597  19.275  0.00  0.00    +0.000 OA
ATOM      2  C   UNL     1       5.417   3.776  18.920  0.00  0.00    +0.000 C 
ATOM      3  N   UNL     1       5.114   3.454  17.617  0.00  0.00    +0.000 N 
ATOM      4  H   UNL     1       4.622   2.592  17.451  0.00  0.00    +0.000 HD
ENDROOT
BRANCH   3   5
ATOM      5  C   UNL     1       5.767   4.049  16.499  0.00  0.00    +0.000 A 
ATOM      6  C   UNL     1       6.973   4.747  16.554  0.00  0.00    +0.000 A 
ATOM      7  N   UNL     1       7.579   5.317  15.475  0.00  0.00    +0.000 NA
ATOM      8  C   UNL     1       7.127   4.973  14.265  0.00  0.00    +0.000 A 
ATOM      9  C   UNL     1       7.815   5.379  13.128  0.00  0.00    +0.000 A 
ATOM     10  C   UNL     1       7.597   4.759  11.898  0.00  0.00    +0.000 A 
ATOM     11  C   UNL     1       6.650   3.747  11.797  0.00  0.00    +0.000 A 
ATOM     12  C   UNL     1       5.808   3.482  12.875  0.00  0.00    +0.000 A 
ATOM     13  C   UNL     1       6.015   4.124  14.109  0.00  0.00    +0.000 A 
ATOM     14  C   UNL     1       5.227   3.842  15.234  0.00  0.00    +0.000 A 
ENDBRANCH   3   5
BRANCH   2  15
ATOM     15  C   UNL     1       4.637   2.996  19.979  0.00  0.00    +0.000 C 
BRANCH  15  16
ATOM     16  C   UNL     1       3.141   3.104  19.858  0.00  0.00    +0.000 A 
ATOM     17  C   UNL     1       2.401   2.147  19.146  0.00  0.00    +0.000 A 
ATOM     18  C   UNL     1       1.010   2.257  19.041  0.00  0.00    +0.000 A 
ATOM     19  C   UNL     1       0.349   3.310  19.660  0.00  0.00    +0.000 A 
ATOM     20  C   UNL     1       1.067   4.246  20.403  0.00  0.00    +0.000 A 
ATOM     21  C   UNL     1       2.455   4.141  20.505  0.00  0.00    +0.000 A 
ENDBRANCH  15  16
ENDBRANCH   2  15
TORSDOF 3
ENDMDL
MODEL 4
REMARK VINA RESULT:      -7.7      1.384      7.001
REMARK  Name = 
REMARK  3 active torsions:
REMARK  status: ('A' for Active; 'I' for Inactive)
REMARK    1  A    between atoms: C_2  and  C_3
REMARK    2  A    between atoms: C_3  and  C_4
REMARK    3  A    between atoms: N_10  and  C_11
REMARK                            x       y       z     vdW  Elec       q    Type
REMARK                         _______ _______ _______ _____ _____    ______ ____
ROOT
ATOM      1  O   UNL     1       5.213   6.045  15.440  0.00  0.00    +0.000 OA
ATOM      2  C   UNL     1       5.924   5.034  15.413  0.00  0.00    +0.000 C 
ATOM      3  N   UNL     1       5.922   4.032  16.357  0.00  0.00    +0.000 N 
ATOM      4  H   UNL     1       6.319   3.144  16.097  0.00  0.00    +0.000 HD
ENDROOT
BRANCH   3   5
ATOM      5  C   UNL     1       5.076   4.049  17.504  0.00  0.00    +0.000 A 
ATOM      6  C   UNL     1       5.119   5.007  18.516  0.00  0.00    +0.000 A 
ATOM      7  N   UNL     1       4.307   5.004  19.610  0.00  0.00    +0.000 NA
ATOM      8  C   UNL     1       3.249   4.187  19.587  0.00  0.00    +0.000 A 
ATOM      9  C   UNL     1       2.290   4.266  20.589  0.00  0.00    +0.000 A 
ATOM     10  C   UNL     1       1.024   3.708  20.418  0.00  0.00    +0.000 A 
ATOM     11  C   UNL     1       0.728   3.026  19.243  0.00  0.00    +0.000 A 
ATOM     12  C   UNL     1       1.743   2.758  18.328  0.00  0.00    +0.000 A 
ATOM     13  C   UNL     1       3.025   3.304  18.513  0.00  0.00    +0.000 A 
ATOM     14  C   UNL     1       4.059   3.104  17.586  0.00  0.00    +0.000 A 
ENDBRANCH   3   5
BRANCH   2  15
ATOM     15  C   UNL     1       6.870   4.811  14.233  0.00  0.00    +0.000 C 
BRANCH  15  16
ATOM     16  C   UNL     1       6.319   3.926  13.150  0.00  0.00    +0.000 A 
ATOM     17  C   UNL     1       4.945   3.908  12.857  0.00  0.00    +0.000 A 
ATOM     18  C   UNL     1       4.443   3.082  11.846  0.00  0.00    +0.000 A 
ATOM     19  C   UNL     1       5.308   2.284  11.110  0.00  0.00    +0.000 A 
ATOM     20  C   UNL     1       6.679   2.319  11.363  0.00  0.00    +0.000 A 
ATOM     21  C   UNL     1       7.181   3.139  12.374  0.00  0.00    +0.000 A 
ENDBRANCH  15  16
ENDBRANCH   2  15
TORSDOF 3
ENDMDL
MODEL 5
REMARK VINA RESULT:      -7.7      1.187      1.187
REMARK  Name = 
REMARK  3 active torsions:
REMARK  status: ('A' for Active; 'I' for Inactive)
REMARK    1  A    between atoms: C_2  and  C_3
REMARK    2  A    between atoms: C_3  and  C_4
REMARK    3  A    between atoms: N_10  and  C_11
REMARK                            x       y       z     vdW  Elec       q    Type
REMARK                         _______ _______ _______ _____ _____    ______ ____
ROOT
ATOM      1  O   UNL     1       6.036   5.354  19.277  0.00  0.00    +0.000 OA
ATOM      2  C   UNL     1       5.364   4.344  19.039  0.00  0.00    +0.000 C 
ATOM      3  N   UNL     1       5.216   3.757  17.804  0.00  0.00    +0.000 N 
ATOM      4  H   UNL     1       4.892   2.804  17.774  0.00  0.00    +0.000 HD
ENDROOT
BRANCH   3   5
ATOM      5  C   UNL     1       5.838   4.263  16.626  0.00  0.00    +0.000 A 
ATOM      6  C   UNL     1       7.061   4.930  16.589  0.00  0.00    +0.000 A 
ATOM      7  N   UNL     1       7.638   5.415  15.453  0.00  0.00    +0.000 NA
ATOM      8  C   UNL     1       7.130   5.007  14.286  0.00  0.00    +0.000 A 
ATOM      9  C   UNL     1       7.781   5.322  13.099  0.00  0.00    +0.000 A 
ATOM     10  C   UNL     1       7.499   4.631  11.921  0.00  0.00    +0.000 A 
ATOM     11  C   UNL     1       6.525   3.641  11.922  0.00  0.00    +0.000 A 
ATOM     12  C   UNL     1       5.721   3.466  13.047  0.00  0.00    +0.000 A 
ATOM     13  C   UNL     1       5.993   4.179  14.227  0.00  0.00    +0.000 A 
ATOM     14  C   UNL     1       5.243   3.990  15.398  0.00  0.00    +0.000 A 
ENDBRANCH   3   5
BRANCH   2  15
ATOM     15  C   UNL     1       4.653   3.626  20.187  0.00  0.00    +0.000 C 
BRANCH  15  16
ATOM     16  C   UNL     1       3.184   3.394  19.964  0.00  0.00    +0.000 A 
ATOM     17  C   UNL     1       2.224   4.288  20.466  0.00  0.00    +0.000 A 
ATOM     18  C   UNL     1       0.860   4.062  20.250  0.00  0.00    +0.000 A 
ATOM     19  C   UNL     1       0.447   2.957  19.520  0.00  0.00    +0.000 A 
ATOM     20  C   UNL     1       1.391   2.082  18.982  0.00  0.00    +0.000 A 
ATOM     21  C   UNL     1       2.751   2.302  19.199  0.00  0.00    +0.000 A 
ENDBRANCH  15  16
ENDBRANCH   2  15
TORSDOF 3
ENDMDL
MODEL 6
REMARK VINA RESULT:      -7.6      1.547      7.103
REMARK  Name = 
REMARK  3 active torsions:
REMARK  status: ('A' for Active; 'I' for Inactive)
REMARK    1  A    between atoms: C_2  and  C_3
REMARK    2  A    between atoms: C_3  and  C_4
REMARK    3  A    between atoms: N_10  and  C_11
REMARK                            x       y       z     vdW  Elec       q    Type
REMARK                         _______ _______ _______ _____ _____    ______ ____
ROOT
ATOM      1  O   UNL     1       7.206   4.171  16.304  0.00  0.00    +0.000 OA
ATOM      2  C   UNL     1       6.407   4.677  15.508  0.00  0.00    +0.000 C 
ATOM      3  N   UNL     1       5.110   5.034  15.798  0.00  0.00    +0.000 N 
ATOM      4  H   UNL     1       4.653   5.681  15.177  0.00  0.00    +0.000 HD
ENDROOT
BRANCH   3   5
ATOM      5  C   UNL     1       4.527   4.856  17.086  0.00  0.00    +0.000 A 
ATOM      6  C   UNL     1       4.656   5.742  18.154  0.00  0.00    +0.000 A 
ATOM      7  N   UNL     1       4.097   5.551  19.382  0.00  0.00    +0.000 NA
ATOM      8  C   UNL     1       3.169   4.595  19.491  0.00  0.00    +0.000 A 
ATOM      9  C   UNL     1       2.438   4.471  20.666  0.00  0.00    +0.000 A 
ATOM     10  C   UNL     1       1.245   3.749  20.696  0.00  0.00    +0.000 A 
ATOM     11  C   UNL     1       0.800   3.110  19.545  0.00  0.00    +0.000 A 
ATOM     12  C   UNL     1       1.629   3.049  18.427  0.00  0.00    +0.000 A 
ATOM     13  C   UNL     1       2.842   3.760  18.406  0.00  0.00    +0.000 A 
ATOM     14  C   UNL     1       3.676   3.771  17.279  0.00  0.00    +0.000 A 
ENDBRANCH   3   5
BRANCH   2  15
ATOM     15  C   UNL     1       6.861   4.989  14.082  0.00  0.00    +0.000 C 
BRANCH  15  16
ATOM     16  C   UNL     1       6.368   4.019  13.043  0.00  0.00    +0.000 A 
ATOM     17  C   UNL     1       7.255   3.163  12.371  0.00  0.00    +0.000 A 
ATOM     18  C   UNL     1       6.784   2.264  11.408  0.00  0.00    +0.000 A 
ATOM     19  C   UNL     1       5.427   2.202  11.122  0.00  0.00    +0.000 A 
ATOM     20  C   UNL     1       4.529   3.019  11.809  0.00  0.00    +0.000 A 
ATOM     21  C   UNL     1       4.997   3.919  12.767  0.00  0.00    +0.000 A 
ENDBRANCH  15  16
ENDBRANCH   2  15
TORSDOF 3
ENDMDL
MODEL 7
REMARK VINA RESULT:      -7.5      1.219      7.119
REMARK  Name = 
REMARK  3 active torsions:
REMARK  status: ('A' for Active; 'I' for Inactive)
REMARK    1  A    between atoms: C_2  and  C_3
REMARK    2  A    between atoms: C_3  and  C_4
REMARK    3  A    between atoms: N_10  and  C_11
REMARK                            x       y       z     vdW  Elec       q    Type
REMARK                         _______ _______ _______ _____ _____    ______ ____
ROOT
ATOM      1  O   UNL     1       5.070   6.045  16.076  0.00  0.00    +0.000 OA
ATOM      2  C   UNL     1       6.028   5.330  16.393  0.00  0.00    +0.000 C 
ATOM      3  N   UNL     1       6.062   4.473  17.469  0.00  0.00    +0.000 N 
ATOM      4  H   UNL     1       6.761   3.749  17.468  0.00  0.00    +0.000 HD
ENDROOT
BRANCH   3   5
ATOM      5  C   UNL     1       4.966   4.311  18.365  0.00  0.00    +0.000 A 
ATOM      6  C   UNL     1       4.556   5.253  19.308  0.00  0.00    +0.000 A 
ATOM      7  N   UNL     1       3.510   5.077  20.163  0.00  0.00    +0.000 NA
ATOM      8  C   UNL     1       2.679   4.060  19.915  0.00  0.00    +0.000 A 
ATOM      9  C   UNL     1       1.500   3.935  20.641  0.00  0.00    +0.000 A 
ATOM     10  C   UNL     1       0.459   3.128  20.185  0.00  0.00    +0.000 A 
ATOM     11  C   UNL     1       0.615   2.405  19.008  0.00  0.00    +0.000 A 
ATOM     12  C   UNL     1       1.863   2.355  18.391  0.00  0.00    +0.000 A 
ATOM     13  C   UNL     1       2.918   3.154  18.864  0.00  0.00    +0.000 A 
ATOM     14  C   UNL     1       4.173   3.176  18.236  0.00  0.00    +0.000 A 
ENDBRANCH   3   5
BRANCH   2  15
ATOM     15  C   UNL     1       7.286   5.330  15.524  0.00  0.00    +0.000 C 
BRANCH  15  16
ATOM     16  C   UNL     1       7.086   4.785  14.136  0.00  0.00    +0.000 A 
ATOM     17  C   UNL     1       6.139   3.779  13.882  0.00  0.00    +0.000 A 
ATOM     18  C   UNL     1       5.961   3.281  12.587  0.00  0.00    +0.000 A 
ATOM     19  C   UNL     1       6.711   3.793  11.538  0.00  0.00    +0.000 A 
ATOM     20  C   UNL     1       7.628   4.819  11.768  0.00  0.00    +0.000 A 
ATOM     21  C   UNL     1       7.811   5.315  13.060  0.00  0.00    +0.000 A 
ENDBRANCH  15  16
ENDBRANCH   2  15
TORSDOF 3
ENDMDL
MODEL 8
REMARK VINA RESULT:      -7.5      1.197      7.075
REMARK  Name = 
REMARK  3 active torsions:
REMARK  status: ('A' for Active; 'I' for Inactive)
REMARK    1  A    between atoms: C_2  and  C_3
REMARK    2  A    between atoms: C_3  and  C_4
REMARK    3  A    between atoms: N_10  and  C_11
REMARK                            x       y       z     vdW  Elec       q    Type
REMARK                         _______ _______ _______ _____ _____    ______ ____
ROOT
ATOM      1  O   UNL     1       5.453   6.399  16.525  0.00  0.00    +0.000 OA
ATOM      2  C   UNL     1       6.207   5.419  16.553  0.00  0.00    +0.000 C 
ATOM      3  N   UNL     1       6.058   4.322  17.369  0.00  0.00    +0.000 N 
ATOM      4  H   UNL     1       6.550   3.480  17.116  0.00  0.00    +0.000 HD
ENDROOT
BRANCH   3   5
ATOM      5  C   UNL     1       4.989   4.187  18.301  0.00  0.00    +0.000 A 
ATOM      6  C   UNL     1       4.653   5.126  19.276  0.00  0.00    +0.000 A 
ATOM      7  N   UNL     1       3.630   4.977  20.164  0.00  0.00    +0.000 NA
ATOM      8  C   UNL     1       2.747   4.002  19.926  0.00  0.00    +0.000 A 
ATOM      9  C   UNL     1       1.590   3.913  20.690  0.00  0.00    +0.000 A 
ATOM     10  C   UNL     1       0.499   3.160  20.256  0.00  0.00    +0.000 A 
ATOM     11  C   UNL     1       0.583   2.456  19.061  0.00  0.00    +0.000 A 
ATOM     12  C   UNL     1       1.805   2.367  18.399  0.00  0.00    +0.000 A 
ATOM     13  C   UNL     1       2.911   3.109  18.850  0.00  0.00    +0.000 A 
ATOM     14  C   UNL     1       4.142   3.090  18.178  0.00  0.00    +0.000 A 
ENDBRANCH   3   5
BRANCH   2  15
ATOM     15  C   UNL     1       7.394   5.356  15.591  0.00  0.00    +0.000 C 
BRANCH  15  16
ATOM     16  C   UNL     1       7.066   4.802  14.232  0.00  0.00    +0.000 A 
ATOM     17  C   UNL     1       7.826   5.152  13.104  0.00  0.00    +0.000 A 
ATOM     18  C   UNL     1       7.513   4.629  11.844  0.00  0.00    +0.000 A 
ATOM     19  C   UNL     1       6.453   3.743  11.706  0.00  0.00    +0.000 A 
ATOM     20  C   UNL     1       5.713   3.357  12.823  0.00  0.00    +0.000 A 
ATOM     21  C   UNL     1       6.021   3.880  14.079  0.00  0.00    +0.000 A 
ENDBRANCH  15  16
ENDBRANCH   2  15
TORSDOF 3
ENDMDL
MODEL 9
REMARK VINA RESULT:      -7.4      1.615      7.248
REMARK  Name = 
REMARK  3 active torsions:
REMARK  status: ('A' for Active; 'I' for Inactive)
REMARK    1  A    between atoms: C_2  and  C_3
REMARK    2  A    between atoms: C_3  and  C_4
REMARK    3  A    between atoms: N_10  and  C_11
REMARK                            x       y       z     vdW  Elec       q    Type
REMARK                         _______ _______ _______ _____ _____    ______ ____
ROOT
ATOM      1  O   UNL     1       6.768   3.698  15.884  0.00  0.00    +0.000 OA
ATOM      2  C   UNL     1       6.108   4.517  15.236  0.00  0.00    +0.000 C 
ATOM      3  N   UNL     1       4.994   5.184  15.693  0.00  0.00    +0.000 N 
ATOM      4  H   UNL     1       4.712   6.015  15.201  0.00  0.00    +0.000 HD
ENDROOT
BRANCH   3   5
ATOM      5  C   UNL     1       4.462   4.998  17.002  0.00  0.00    +0.000 A 
ATOM      6  C   UNL     1       4.689   5.844  18.086  0.00  0.00    +0.000 A 
ATOM      7  N   UNL     1       4.177   5.646  19.334  0.00  0.00    +0.000 NA
ATOM      8  C   UNL     1       3.205   4.737  19.461  0.00  0.00    +0.000 A 
ATOM      9  C   UNL     1       2.523   4.617  20.666  0.00  0.00    +0.000 A 
ATOM     10  C   UNL     1       1.295   3.959  20.733  0.00  0.00    +0.000 A 
ATOM     11  C   UNL     1       0.764   3.379  19.587  0.00  0.00    +0.000 A 
ATOM     12  C   UNL     1       1.535   3.308  18.430  0.00  0.00    +0.000 A 
ATOM     13  C   UNL     1       2.783   3.954  18.370  0.00  0.00    +0.000 A 
ATOM     14  C   UNL     1       3.564   3.955  17.205  0.00  0.00    +0.000 A 
ENDBRANCH   3   5
BRANCH   2  15
ATOM     15  C   UNL     1       6.548   4.886  13.819  0.00  0.00    +0.000 C 
BRANCH  15  16
ATOM     16  C   UNL     1       6.343   3.800  12.799  0.00  0.00    +0.000 A 
ATOM     17  C   UNL     1       5.052   3.410  12.405  0.00  0.00    +0.000 A 
ATOM     18  C   UNL     1       4.873   2.400  11.455  0.00  0.00    +0.000 A 
ATOM     19  C   UNL     1       5.977   1.785  10.879  0.00  0.00    +0.000 A 
ATOM     20  C   UNL     1       7.265   2.189  11.232  0.00  0.00    +0.000 A 
ATOM     21  C   UNL     1       7.446   3.193  12.183  0.00  0.00    +0.000 A 
ENDBRANCH  15  16
ENDBRANCH   2  15
TORSDOF 3
ENDMDL
