MODEL 1
REMARK VINA RESULT:      -8.1      0.000      0.000
REMARK  Name = 
REMARK  10 active torsions:
REMARK  status: ('A' for Active; 'I' for Inactive)
REMARK    1  A    between atoms: C_2  and  C_3
REMARK    2  A    between atoms: C_8  and  S_9
REMARK    3  A    between atoms: S_9  and  N_12
REMARK    4  A    between atoms: N_12  and  C_13
REMARK    5  A    between atoms: C_13  and  C_14
REMARK    6  A    between atoms: C_14  and  O_15
REMARK    7  A    between atoms: C_14  and  C_16
REMARK    8  A    between atoms: C_16  and  O_17
REMARK    9  A    between atoms: O_17  and  C_18
REMARK   10  A    between atoms: C_21  and  N_22
REMARK                            x       y       z     vdW  Elec       q    Type
REMARK                         _______ _______ _______ _____ _____    ______ ____
ROOT
ATOM      1  S   UNL     1       4.808   3.837  18.884  0.00  0.00    +0.000 S 
ATOM      2  O   UNL     1       5.691   3.150  19.801  0.00  0.00    +0.000 OA
ATOM      3  O   UNL     1       4.672   3.528  17.479  0.00  0.00    +0.000 OA
ENDROOT
BRANCH   1   9
ATOM      4  C   UNL     1       2.279   4.958  19.370  0.00  0.00    +0.000 A 
ATOM      5  C   UNL     1       0.972   4.815  19.867  0.00  0.00    +0.000 A 
ATOM      6  C   UNL     1       0.564   3.729  20.640  0.00  0.00    +0.000 A 
ATOM      7  C   UNL     1       1.449   2.696  20.882  0.00  0.00    +0.000 A 
ATOM      8  C   UNL     1       2.729   2.752  20.335  0.00  0.00    +0.000 A 
ATOM      9  C   UNL     1       3.151   3.860  19.565  0.00  0.00    +0.000 A 
BRANCH   4  11
ATOM     10  O   UNL     1       3.010   5.999  17.408  0.00  0.00    +0.000 OA
ATOM     11  C   UNL     1       2.623   6.181  18.559  0.00  0.00    +0.000 C 
ATOM     12  N   UNL     1       2.448   7.499  19.019  0.00  0.00    +0.000 N 
ATOM     13  C   UNL     1       2.194   8.002  20.370  0.00  0.00    +0.000 C 
ATOM     14  C   UNL     1       0.781   8.601  20.454  0.00  0.00    +0.000 C 
ATOM     15  C   UNL     1       0.533   9.634  19.351  0.00  0.00    +0.000 C 
ATOM     16  C   UNL     1       0.945   9.103  17.974  0.00  0.00    +0.000 C 
ATOM     17  C   UNL     1       2.372   8.557  18.006  0.00  0.00    +0.000 C 
ENDBRANCH   4  11
ENDBRANCH   1   9
BRANCH   1  18
ATOM     18  N   UNL     1       5.357   5.446  18.931  0.00  0.00    +0.000 NA
ATOM     19  H   UNL     1       4.698   6.125  19.316  0.00  0.00    +0.000 HD
BRANCH  18  20
ATOM     20  C   UNL     1       6.787   5.653  19.246  0.00  0.00    +0.000 C 
BRANCH  20  21
ATOM     21  C   UNL     1       7.650   5.459  17.990  0.00  0.00    +0.000 C 
BRANCH  21  22
ATOM     22  O   UNL     1       7.840   4.044  17.805  0.00  0.00    +0.000 OA
ATOM     23  H   UNL     1       8.778   3.887  17.600  0.00  0.00    +0.000 HD
ENDBRANCH  21  22
BRANCH  21  24
ATOM     24  C   UNL     1       6.939   6.105  16.786  0.00  0.00    +0.000 C 
BRANCH  24  25
ATOM     25  O   UNL     1       7.657   5.852  15.574  0.00  0.00    +0.000 OA
BRANCH  25  26
ATOM     26  C   UNL     1       6.991   5.086  14.652  0.00  0.00    +0.000 A 
ATOM     27  C   UNL     1       7.641   4.918  13.422  0.00  0.00    +0.000 A 
ATOM     28  C   UNL     1       7.065   4.140  12.410  0.00  0.00    +0.000 A 
ATOM     29  C   UNL     1       5.831   3.519  12.636  0.00  0.00    +0.000 A 
ATOM     30  C   UNL     1       5.182   3.668  13.865  0.00  0.00    +0.000 A 
ATOM     31  C   UNL     1       5.766   4.449  14.869  0.00  0.00    +0.000 A 
BRANCH  29  32
ATOM     32  N   UNL     1       5.212   2.704  11.583  0.00  0.00    +0.000 N 
ATOM     33  O   UNL     1       4.133   3.088  11.115  0.00  0.00    +0.000 OA
ATOM     34  O   UNL     1       5.812   1.680  11.221  0.00  0.00    +0.000 OA
ENDBRANCH  29  32
ENDBRANCH  25  26
ENDBRANCH  24  25
ENDBRANCH  21  24
ENDBRANCH  20  21
ENDBRANCH  18  20
ENDBRANCH   1  18
TORSDOF 10
ENDMDL
MODEL 2
REMARK VINA RESULT:      -7.9      4.158      9.623
REMARK  Name = 
REMARK  10 active torsions:
REMARK  status: ('A' for Active; 'I' for Inactive)
REMARK    1  A    between atoms: C_2  and  C_3
REMARK    2  A    between atoms: C_8  and  S_9
REMARK    3  A    between atoms: S_9  and  N_12
REMARK    4  A    between atoms: N_12  and  C_13
REMARK    5  A    between atoms: C_13  and  C_14
REMARK    6  A    between atoms: C_14  and  O_15
REMARK    7  A    between atoms: C_14  and  C_16
REMARK    8  A    between atoms: C_16  and  O_17
REMARK    9  A    between atoms: O_17  and  C_18
REMARK   10  A    between atoms: C_21  and  N_22
REMARK                            x       y       z     vdW  Elec       q    Type
REMARK                         _______ _______ _______ _____ _____    ______ ____
ROOT
ATOM      1  S   UNL     1       3.176   6.376  18.251  0.00  0.00    +0.000 S 
ATOM      2  O   UNL     1       1.888   5.814  17.911  0.00  0.00    +0.000 OA
ATOM      3  O   UNL     1       3.740   6.405  19.582  0.00  0.00    +0.000 OA
ENDROOT
BRANCH   1   9
ATOM      4  C   UNL     1       5.116   4.481  17.519  0.00  0.00    +0.000 A 
ATOM      5  C   UNL     1       6.002   3.974  16.553  0.00  0.00    +0.000 A 
ATOM      6  C   UNL     1       6.320   4.653  15.379  0.00  0.00    +0.000 A 
ATOM      7  C   UNL     1       5.693   5.851  15.095  0.00  0.00    +0.000 A 
ATOM      8  C   UNL     1       4.741   6.350  15.980  0.00  0.00    +0.000 A 
ATOM      9  C   UNL     1       4.429   5.671  17.181  0.00  0.00    +0.000 A 
BRANCH   4  11
ATOM     10  O   UNL     1       5.632   3.823  19.704  0.00  0.00    +0.000 OA
ATOM     11  C   UNL     1       4.853   3.674  18.766  0.00  0.00    +0.000 C 
ATOM     12  N   UNL     1       3.734   2.838  18.934  0.00  0.00    +0.000 N 
ATOM     13  C   UNL     1       2.775   2.334  17.949  0.00  0.00    +0.000 C 
ATOM     14  C   UNL     1       1.389   2.951  18.199  0.00  0.00    +0.000 C 
ATOM     15  C   UNL     1       0.938   2.773  19.652  0.00  0.00    +0.000 C 
ATOM     16  C   UNL     1       2.034   3.186  20.640  0.00  0.00    +0.000 C 
ATOM     17  C   UNL     1       3.356   2.494  20.309  0.00  0.00    +0.000 C 
ENDBRANCH   4  11
ENDBRANCH   1   9
BRANCH   1  18
ATOM     18  N   UNL     1       3.034   8.008  17.795  0.00  0.00    +0.000 NA
ATOM     19  H   UNL     1       3.698   8.327  17.088  0.00  0.00    +0.000 HD
BRANCH  18  20
ATOM     20  C   UNL     1       1.665   8.562  17.723  0.00  0.00    +0.000 C 
BRANCH  20  21
ATOM     21  C   UNL     1       1.629   9.989  18.288  0.00  0.00    +0.000 C 
BRANCH  21  22
ATOM     22  O   UNL     1       2.386  10.831  17.398  0.00  0.00    +0.000 OA
ATOM     23  H   UNL     1       1.848  10.997  16.605  0.00  0.00    +0.000 HD
ENDBRANCH  21  22
BRANCH  21  24
ATOM     24  C   UNL     1       0.162  10.449  18.405  0.00  0.00    +0.000 C 
BRANCH  24  25
ATOM     25  O   UNL     1      -0.459   9.879  19.561  0.00  0.00    +0.000 OA
BRANCH  25  26
ATOM     26  C   UNL     1      -0.752  10.769  20.563  0.00  0.00    +0.000 A 
ATOM     27  C   UNL     1      -1.367  11.960  20.153  0.00  0.00    +0.000 A 
ATOM     28  C   UNL     1      -1.729  12.935  21.090  0.00  0.00    +0.000 A 
ATOM     29  C   UNL     1      -1.481  12.712  22.449  0.00  0.00    +0.000 A 
ATOM     30  C   UNL     1      -0.882  11.520  22.869  0.00  0.00    +0.000 A 
ATOM     31  C   UNL     1      -0.522  10.553  21.924  0.00  0.00    +0.000 A 
BRANCH  29  32
ATOM     32  N   UNL     1      -1.850  13.727  23.443  0.00  0.00    +0.000 N 
ATOM     33  O   UNL     1      -0.939  14.276  24.075  0.00  0.00    +0.000 OA
ATOM     34  O   UNL     1      -3.057  13.979  23.586  0.00  0.00    +0.000 OA
ENDBRANCH  29  32
ENDBRANCH  25  26
ENDBRANCH  24  25
ENDBRANCH  21  24
ENDBRANCH  20  21
ENDBRANCH  18  20
ENDBRANCH   1  18
TORSDOF 10
ENDMDL
MODEL 3
REMARK VINA RESULT:      -7.8      4.274      9.743
REMARK  Name = 
REMARK  10 active torsions:
REMARK  status: ('A' for Active; 'I' for Inactive)
REMARK    1  A    between atoms: C_2  and  C_3
REMARK    2  A    between atoms: C_8  and  S_9
REMARK    3  A    between atoms: S_9  and  N_12
REMARK    4  A    between atoms: N_12  and  C_13
REMARK    5  A    between atoms: C_13  and  C_14
REMARK    6  A    between atoms: C_14  and  O_15
REMARK    7  A    between atoms: C_14  and  C_16
REMARK    8  A    between atoms: C_16  and  O_17
REMARK    9  A    between atoms: O_17  and  C_18
REMARK   10  A    between atoms: C_21  and  N_22
REMARK                            x       y       z     vdW  Elec       q    Type
REMARK                         _______ _______ _______ _____ _____    ______ ____
ROOT
ATOM      1  S   UNL     1       3.056   6.331  18.391  0.00  0.00    +0.000 S 
ATOM      2  O   UNL     1       1.826   5.677  18.003  0.00  0.00    +0.000 OA
ATOM      3  O   UNL     1       3.610   6.326  19.726  0.00  0.00    +0.000 OA
ENDROOT
BRANCH   1   9
ATOM      4  C   UNL     1       5.195   4.701  17.580  0.00  0.00    +0.000 A 
ATOM      5  C   UNL     1       6.125   4.335  16.592  0.00  0.00    +0.000 A 
ATOM      6  C   UNL     1       6.352   5.089  15.442  0.00  0.00    +0.000 A 
ATOM      7  C   UNL     1       5.589   6.216  15.206  0.00  0.00    +0.000 A 
ATOM      8  C   UNL     1       4.594   6.568  16.113  0.00  0.00    +0.000 A 
ATOM      9  C   UNL     1       4.372   5.815  17.289  0.00  0.00    +0.000 A 
BRANCH   4  11
ATOM     10  O   UNL     1       5.781   4.048  19.749  0.00  0.00    +0.000 OA
ATOM     11  C   UNL     1       5.037   3.825  18.797  0.00  0.00    +0.000 C 
ATOM     12  N   UNL     1       4.044   2.836  18.925  0.00  0.00    +0.000 N 
ATOM     13  C   UNL     1       3.171   2.237  17.914  0.00  0.00    +0.000 C 
ATOM     14  C   UNL     1       1.712   2.648  18.167  0.00  0.00    +0.000 C 
ATOM     15  C   UNL     1       1.279   2.360  19.608  0.00  0.00    +0.000 C 
ATOM     16  C   UNL     1       2.300   2.889  20.622  0.00  0.00    +0.000 C 
ATOM     17  C   UNL     1       3.707   2.398  20.284  0.00  0.00    +0.000 C 
ENDBRANCH   4  11
ENDBRANCH   1   9
BRANCH   1  18
ATOM     18  N   UNL     1       2.766   7.970  18.039  0.00  0.00    +0.000 NA
ATOM     19  H   UNL     1       2.796   8.220  17.050  0.00  0.00    +0.000 HD
BRANCH  18  20
ATOM     20  C   UNL     1       1.757   8.660  18.872  0.00  0.00    +0.000 C 
BRANCH  20  21
ATOM     21  C   UNL     1       1.337   9.987  18.222  0.00  0.00    +0.000 C 
BRANCH  21  22
ATOM     22  O   UNL     1       0.055   9.781  17.598  0.00  0.00    +0.000 OA
ATOM     23  H   UNL     1      -0.214  10.613  17.172  0.00  0.00    +0.000 HD
ENDBRANCH  21  22
BRANCH  21  24
ATOM     24  C   UNL     1       1.279  11.082  19.305  0.00  0.00    +0.000 C 
BRANCH  24  25
ATOM     25  O   UNL     1       0.802  10.548  20.544  0.00  0.00    +0.000 OA
BRANCH  25  26
ATOM     26  C   UNL     1      -0.320  11.156  21.047  0.00  0.00    +0.000 A 
ATOM     27  C   UNL     1      -0.551  10.965  22.415  0.00  0.00    +0.000 A 
ATOM     28  C   UNL     1      -1.656  11.553  23.042  0.00  0.00    +0.000 A 
ATOM     29  C   UNL     1      -2.532  12.347  22.293  0.00  0.00    +0.000 A 
ATOM     30  C   UNL     1      -2.302  12.556  20.930  0.00  0.00    +0.000 A 
ATOM     31  C   UNL     1      -1.195  11.961  20.313  0.00  0.00    +0.000 A 
BRANCH  29  32
ATOM     32  N   UNL     1      -3.698  12.967  22.934  0.00  0.00    +0.000 N 
ATOM     33  O   UNL     1      -4.613  12.225  23.313  0.00  0.00    +0.000 OA
ATOM     34  O   UNL     1      -3.694  14.202  23.065  0.00  0.00    +0.000 OA
ENDBRANCH  29  32
ENDBRANCH  25  26
ENDBRANCH  24  25
ENDBRANCH  21  24
ENDBRANCH  20  21
ENDBRANCH  18  20
ENDBRANCH   1  18
TORSDOF 10
ENDMDL
MODEL 4
REMARK VINA RESULT:      -7.7      4.520      7.495
REMARK  Name = 
REMARK  10 active torsions:
REMARK  status: ('A' for Active; 'I' for Inactive)
REMARK    1  A    between atoms: C_2  and  C_3
REMARK    2  A    between atoms: C_8  and  S_9
REMARK    3  A    between atoms: S_9  and  N_12
REMARK    4  A    between atoms: N_12  and  C_13
REMARK    5  A    between atoms: C_13  and  C_14
REMARK    6  A    between atoms: C_14  and  O_15
REMARK    7  A    between atoms: C_14  and  C_16
REMARK    8  A    between atoms: C_16  and  O_17
REMARK    9  A    between atoms: O_17  and  C_18
REMARK   10  A    between atoms: C_21  and  N_22
REMARK                            x       y       z     vdW  Elec       q    Type
REMARK                         _______ _______ _______ _____ _____    ______ ____
ROOT
ATOM      1  S   UNL     1       5.390   5.066  16.207  0.00  0.00    +0.000 S 
ATOM      2  O   UNL     1       4.976   3.685  16.320  0.00  0.00    +0.000 OA
ATOM      3  O   UNL     1       5.634   5.756  14.961  0.00  0.00    +0.000 OA
ENDROOT
BRANCH   1   9
ATOM      4  C   UNL     1       3.754   5.685  18.405  0.00  0.00    +0.000 A 
ATOM      5  C   UNL     1       2.968   6.622  19.096  0.00  0.00    +0.000 A 
ATOM      6  C   UNL     1       2.578   7.843  18.549  0.00  0.00    +0.000 A 
ATOM      7  C   UNL     1       3.033   8.202  17.295  0.00  0.00    +0.000 A 
ATOM      8  C   UNL     1       3.888   7.344  16.607  0.00  0.00    +0.000 A 
ATOM      9  C   UNL     1       4.271   6.097  17.153  0.00  0.00    +0.000 A 
BRANCH   4  11
ATOM     10  O   UNL     1       5.274   4.232  19.429  0.00  0.00    +0.000 OA
ATOM     11  C   UNL     1       4.106   4.384  19.081  0.00  0.00    +0.000 C 
ATOM     12  N   UNL     1       3.163   3.389  19.400  0.00  0.00    +0.000 N 
ATOM     13  C   UNL     1       1.781   3.218  18.950  0.00  0.00    +0.000 C 
ATOM     14  C   UNL     1       0.813   3.431  20.126  0.00  0.00    +0.000 C 
ATOM     15  C   UNL     1       1.184   2.565  21.334  0.00  0.00    +0.000 C 
ATOM     16  C   UNL     1       2.674   2.677  21.675  0.00  0.00    +0.000 C 
ATOM     17  C   UNL     1       3.536   2.423  20.439  0.00  0.00    +0.000 C 
ENDBRANCH   4  11
ENDBRANCH   1   9
BRANCH   1  18
ATOM     18  N   UNL     1       6.876   5.106  17.032  0.00  0.00    +0.000 NA
ATOM     19  H   UNL     1       7.409   4.235  17.023  0.00  0.00    +0.000 HD
BRANCH  18  20
ATOM     20  C   UNL     1       7.651   6.363  16.946  0.00  0.00    +0.000 C 
BRANCH  20  21
ATOM     21  C   UNL     1       7.446   7.212  18.209  0.00  0.00    +0.000 C 
BRANCH  21  22
ATOM     22  O   UNL     1       8.453   6.825  19.164  0.00  0.00    +0.000 OA
ATOM     23  H   UNL     1       8.470   7.488  19.875  0.00  0.00    +0.000 HD
ENDBRANCH  21  22
BRANCH  21  24
ATOM     24  C   UNL     1       7.552   8.704  17.837  0.00  0.00    +0.000 C 
BRANCH  24  25
ATOM     25  O   UNL     1       8.906   9.158  17.933  0.00  0.00    +0.000 OA
BRANCH  25  26
ATOM     26  C   UNL     1       9.075  10.347  18.595  0.00  0.00    +0.000 A 
ATOM     27  C   UNL     1       8.758  11.498  17.861  0.00  0.00    +0.000 A 
ATOM     28  C   UNL     1       8.874  12.768  18.439  0.00  0.00    +0.000 A 
ATOM     29  C   UNL     1       9.303  12.885  19.767  0.00  0.00    +0.000 A 
ATOM     30  C   UNL     1       9.605  11.741  20.512  0.00  0.00    +0.000 A 
ATOM     31  C   UNL     1       9.488  10.477  19.923  0.00  0.00    +0.000 A 
BRANCH  29  32
ATOM     32  N   UNL     1       9.434  14.209  20.386  0.00  0.00    +0.000 N 
ATOM     33  O   UNL     1       8.565  14.558  21.195  0.00  0.00    +0.000 OA
ATOM     34  O   UNL     1      10.415  14.899  20.065  0.00  0.00    +0.000 OA
ENDBRANCH  29  32
ENDBRANCH  25  26
ENDBRANCH  24  25
ENDBRANCH  21  24
ENDBRANCH  20  21
ENDBRANCH  18  20
ENDBRANCH   1  18
TORSDOF 10
ENDMDL
MODEL 5
REMARK VINA RESULT:      -7.7      4.265      9.697
REMARK  Name = 
REMARK  10 active torsions:
REMARK  status: ('A' for Active; 'I' for Inactive)
REMARK    1  A    between atoms: C_2  and  C_3
REMARK    2  A    between atoms: C_8  and  S_9
REMARK    3  A    between atoms: S_9  and  N_12
REMARK    4  A    between atoms: N_12  and  C_13
REMARK    5  A    between atoms: C_13  and  C_14
REMARK    6  A    between atoms: C_14  and  O_15
REMARK    7  A    between atoms: C_14  and  C_16
REMARK    8  A    between atoms: C_16  and  O_17
REMARK    9  A    between atoms: O_17  and  C_18
REMARK   10  A    between atoms: C_21  and  N_22
REMARK                            x       y       z     vdW  Elec       q    Type
REMARK                         _______ _______ _______ _____ _____    ______ ____
ROOT
ATOM      1  S   UNL     1       3.222   6.324  18.211  0.00  0.00    +0.000 S 
ATOM      2  O   UNL     1       1.904   5.823  17.890  0.00  0.00    +0.000 OA
ATOM      3  O   UNL     1       3.797   6.350  19.537  0.00  0.00    +0.000 OA
ENDROOT
BRANCH   1   9
ATOM      4  C   UNL     1       5.069   4.328  17.508  0.00  0.00    +0.000 A 
ATOM      5  C   UNL     1       5.920   3.757  16.546  0.00  0.00    +0.000 A 
ATOM      6  C   UNL     1       6.251   4.391  15.349  0.00  0.00    +0.000 A 
ATOM      7  C   UNL     1       5.673   5.607  15.041  0.00  0.00    +0.000 A 
ATOM      8  C   UNL     1       4.755   6.170  15.923  0.00  0.00    +0.000 A 
ATOM      9  C   UNL     1       4.429   5.538  17.145  0.00  0.00    +0.000 A 
BRANCH   4  11
ATOM     10  O   UNL     1       5.579   3.713  19.706  0.00  0.00    +0.000 OA
ATOM     11  C   UNL     1       4.787   3.567  18.779  0.00  0.00    +0.000 C 
ATOM     12  N   UNL     1       3.639   2.778  18.979  0.00  0.00    +0.000 N 
ATOM     13  C   UNL     1       2.653   2.284  18.017  0.00  0.00    +0.000 C 
ATOM     14  C   UNL     1       1.294   2.959  18.260  0.00  0.00    +0.000 C 
ATOM     15  C   UNL     1       0.850   2.838  19.721  0.00  0.00    +0.000 C 
ATOM     16  C   UNL     1       1.970   3.238  20.689  0.00  0.00    +0.000 C 
ATOM     17  C   UNL     1       3.261   2.487  20.366  0.00  0.00    +0.000 C 
ENDBRANCH   4  11
ENDBRANCH   1   9
BRANCH   1  18
ATOM     18  N   UNL     1       3.159   7.953  17.726  0.00  0.00    +0.000 NA
ATOM     19  H   UNL     1       3.809   8.217  16.983  0.00  0.00    +0.000 HD
BRANCH  18  20
ATOM     20  C   UNL     1       1.825   8.589  17.702  0.00  0.00    +0.000 C 
BRANCH  20  21
ATOM     21  C   UNL     1       1.797   9.822  18.619  0.00  0.00    +0.000 C 
BRANCH  21  22
ATOM     22  O   UNL     1       1.554  10.976  17.791  0.00  0.00    +0.000 OA
ATOM     23  H   UNL     1       1.239  10.668  16.924  0.00  0.00    +0.000 HD
ENDBRANCH  21  22
BRANCH  21  24
ATOM     24  C   UNL     1       0.697   9.635  19.682  0.00  0.00    +0.000 C 
BRANCH  24  25
ATOM     25  O   UNL     1      -0.478  10.375  19.334  0.00  0.00    +0.000 OA
BRANCH  25  26
ATOM     26  C   UNL     1      -0.905  11.269  20.283  0.00  0.00    +0.000 A 
ATOM     27  C   UNL     1      -0.404  11.064  21.575  0.00  0.00    +0.000 A 
ATOM     28  C   UNL     1      -0.757  11.925  22.622  0.00  0.00    +0.000 A 
ATOM     29  C   UNL     1      -1.611  13.004  22.369  0.00  0.00    +0.000 A 
ATOM     30  C   UNL     1      -2.103  13.226  21.079  0.00  0.00    +0.000 A 
ATOM     31  C   UNL     1      -1.746  12.357  20.041  0.00  0.00    +0.000 A 
BRANCH  29  32
ATOM     32  N   UNL     1      -1.994  13.913  23.456  0.00  0.00    +0.000 N 
ATOM     33  O   UNL     1      -3.192  14.194  23.581  0.00  0.00    +0.000 OA
ATOM     34  O   UNL     1      -1.090  14.342  24.192  0.00  0.00    +0.000 OA
ENDBRANCH  29  32
ENDBRANCH  25  26
ENDBRANCH  24  25
ENDBRANCH  21  24
ENDBRANCH  20  21
ENDBRANCH  18  20
ENDBRANCH   1  18
TORSDOF 10
ENDMDL
MODEL 6
REMARK VINA RESULT:      -7.6      4.092      6.493
REMARK  Name = 
REMARK  10 active torsions:
REMARK  status: ('A' for Active; 'I' for Inactive)
REMARK    1  A    between atoms: C_2  and  C_3
REMARK    2  A    between atoms: C_8  and  S_9
REMARK    3  A    between atoms: S_9  and  N_12
REMARK    4  A    between atoms: N_12  and  C_13
REMARK    5  A    between atoms: C_13  and  C_14
REMARK    6  A    between atoms: C_14  and  O_15
REMARK    7  A    between atoms: C_14  and  C_16
REMARK    8  A    between atoms: C_16  and  O_17
REMARK    9  A    between atoms: O_17  and  C_18
REMARK   10  A    between atoms: C_21  and  N_22
REMARK                            x       y       z     vdW  Elec       q    Type
REMARK                         _______ _______ _______ _____ _____    ______ ____
ROOT
ATOM      1  S   UNL     1       0.987  10.239  18.955  0.00  0.00    +0.000 S 
ATOM      2  O   UNL     1       1.863  11.080  18.169  0.00  0.00    +0.000 OA
ATOM      3  O   UNL     1       1.100  10.033  20.381  0.00  0.00    +0.000 OA
ENDROOT
BRANCH   1   9
ATOM      4  C   UNL     1      -1.324  11.801  19.291  0.00  0.00    +0.000 A 
ATOM      5  C   UNL     1      -2.630  12.124  18.885  0.00  0.00    +0.000 A 
ATOM      6  C   UNL     1      -3.369  11.343  17.999  0.00  0.00    +0.000 A 
ATOM      7  C   UNL     1      -2.785  10.230  17.424  0.00  0.00    +0.000 A 
ATOM      8  C   UNL     1      -1.463   9.920  17.728  0.00  0.00    +0.000 A 
ATOM      9  C   UNL     1      -0.715  10.701  18.639  0.00  0.00    +0.000 A 
BRANCH   4  11
ATOM     10  O   UNL     1       0.125  13.565  19.802  0.00  0.00    +0.000 OA
ATOM     11  C   UNL     1      -0.616  12.704  20.269  0.00  0.00    +0.000 C 
ATOM     12  N   UNL     1      -0.824  12.665  21.661  0.00  0.00    +0.000 N 
ATOM     13  C   UNL     1      -1.481  11.653  22.489  0.00  0.00    +0.000 C 
ATOM     14  C   UNL     1      -2.779  12.221  23.085  0.00  0.00    +0.000 C 
ATOM     15  C   UNL     1      -2.543  13.553  23.804  0.00  0.00    +0.000 C 
ATOM     16  C   UNL     1      -1.730  14.525  22.941  0.00  0.00    +0.000 C 
ATOM     17  C   UNL     1      -0.454  13.860  22.426  0.00  0.00    +0.000 C 
ENDBRANCH   4  11
ENDBRANCH   1   9
BRANCH   1  18
ATOM     18  N   UNL     1       1.189   8.697  18.268  0.00  0.00    +0.000 NA
ATOM     19  H   UNL     1       0.608   8.498  17.453  0.00  0.00    +0.000 HD
BRANCH  18  20
ATOM     20  C   UNL     1       2.563   8.148  18.258  0.00  0.00    +0.000 C 
BRANCH  20  21
ATOM     21  C   UNL     1       2.703   7.023  19.294  0.00  0.00    +0.000 C 
BRANCH  21  22
ATOM     22  O   UNL     1       1.668   7.205  20.279  0.00  0.00    +0.000 OA
ATOM     23  H   UNL     1       1.957   6.784  21.107  0.00  0.00    +0.000 HD
ENDBRANCH  21  22
BRANCH  21  24
ATOM     24  C   UNL     1       2.584   5.663  18.580  0.00  0.00    +0.000 C 
BRANCH  24  25
ATOM     25  O   UNL     1       3.795   4.911  18.712  0.00  0.00    +0.000 OA
BRANCH  25  26
ATOM     26  C   UNL     1       4.639   4.973  17.633  0.00  0.00    +0.000 A 
ATOM     27  C   UNL     1       4.473   3.962  16.676  0.00  0.00    +0.000 A 
ATOM     28  C   UNL     1       5.266   3.933  15.523  0.00  0.00    +0.000 A 
ATOM     29  C   UNL     1       6.227   4.931  15.322  0.00  0.00    +0.000 A 
ATOM     30  C   UNL     1       6.390   5.953  16.263  0.00  0.00    +0.000 A 
ATOM     31  C   UNL     1       5.593   5.970  17.414  0.00  0.00    +0.000 A 
BRANCH  29  32
ATOM     32  N   UNL     1       7.070   4.913  14.120  0.00  0.00    +0.000 N 
ATOM     33  O   UNL     1       6.719   4.191  13.179  0.00  0.00    +0.000 OA
ATOM     34  O   UNL     1       8.084   5.630  14.118  0.00  0.00    +0.000 OA
ENDBRANCH  29  32
ENDBRANCH  25  26
ENDBRANCH  24  25
ENDBRANCH  21  24
ENDBRANCH  20  21
ENDBRANCH  18  20
ENDBRANCH   1  18
TORSDOF 10
ENDMDL
MODEL 7
REMARK VINA RESULT:      -7.6      4.365      9.196
REMARK  Name = 
REMARK  10 active torsions:
REMARK  status: ('A' for Active; 'I' for Inactive)
REMARK    1  A    between atoms: C_2  and  C_3
REMARK    2  A    between atoms: C_8  and  S_9
REMARK    3  A    between atoms: S_9  and  N_12
REMARK    4  A    between atoms: N_12  and  C_13
REMARK    5  A    between atoms: C_13  and  C_14
REMARK    6  A    between atoms: C_14  and  O_15
REMARK    7  A    between atoms: C_14  and  C_16
REMARK    8  A    between atoms: C_16  and  O_17
REMARK    9  A    between atoms: O_17  and  C_18
REMARK   10  A    between atoms: C_21  and  N_22
REMARK                            x       y       z     vdW  Elec       q    Type
REMARK                         _______ _______ _______ _____ _____    ______ ____
ROOT
ATOM      1  S   UNL     1       3.010   6.326  18.555  0.00  0.00    +0.000 S 
ATOM      2  O   UNL     1       1.748   5.765  18.124  0.00  0.00    +0.000 OA
ATOM      3  O   UNL     1       3.577   6.167  19.875  0.00  0.00    +0.000 OA
ENDROOT
BRANCH   1   9
ATOM      4  C   UNL     1       5.120   4.738  17.599  0.00  0.00    +0.000 A 
ATOM      5  C   UNL     1       6.019   4.422  16.566  0.00  0.00    +0.000 A 
ATOM      6  C   UNL     1       6.212   5.232  15.449  0.00  0.00    +0.000 A 
ATOM      7  C   UNL     1       5.443   6.369  15.292  0.00  0.00    +0.000 A 
ATOM      8  C   UNL     1       4.477   6.676  16.246  0.00  0.00    +0.000 A 
ATOM      9  C   UNL     1       4.290   5.865  17.390  0.00  0.00    +0.000 A 
BRANCH   4  11
ATOM     10  O   UNL     1       5.780   3.971  19.708  0.00  0.00    +0.000 OA
ATOM     11  C   UNL     1       4.999   3.802  18.776  0.00  0.00    +0.000 C 
ATOM     12  N   UNL     1       4.001   2.817  18.891  0.00  0.00    +0.000 N 
ATOM     13  C   UNL     1       3.085   2.279  17.884  0.00  0.00    +0.000 C 
ATOM     14  C   UNL     1       1.640   2.688  18.213  0.00  0.00    +0.000 C 
ATOM     15  C   UNL     1       1.258   2.332  19.653  0.00  0.00    +0.000 C 
ATOM     16  C   UNL     1       2.322   2.799  20.653  0.00  0.00    +0.000 C 
ATOM     17  C   UNL     1       3.710   2.313  20.238  0.00  0.00    +0.000 C 
ENDBRANCH   4  11
ENDBRANCH   1   9
BRANCH   1  18
ATOM     18  N   UNL     1       2.787   8.002  18.369  0.00  0.00    +0.000 NA
ATOM     19  H   UNL     1       2.928   8.363  17.424  0.00  0.00    +0.000 HD
BRANCH  18  20
ATOM     20  C   UNL     1       1.705   8.622  19.165  0.00  0.00    +0.000 C 
BRANCH  20  21
ATOM     21  C   UNL     1       1.521  10.095  18.772  0.00  0.00    +0.000 C 
BRANCH  21  22
ATOM     22  O   UNL     1       1.650  10.184  17.340  0.00  0.00    +0.000 OA
ATOM     23  H   UNL     1       0.761  10.297  16.960  0.00  0.00    +0.000 HD
ENDBRANCH  21  22
BRANCH  21  24
ATOM     24  C   UNL     1       0.140  10.577  19.256  0.00  0.00    +0.000 C 
BRANCH  24  25
ATOM     25  O   UNL     1      -0.384  11.582  18.381  0.00  0.00    +0.000 OA
BRANCH  25  26
ATOM     26  C   UNL     1      -1.752  11.669  18.348  0.00  0.00    +0.000 A 
ATOM     27  C   UNL     1      -2.352  11.322  17.130  0.00  0.00    +0.000 A 
ATOM     28  C   UNL     1      -3.744  11.355  16.985  0.00  0.00    +0.000 A 
ATOM     29  C   UNL     1      -4.542  11.731  18.072  0.00  0.00    +0.000 A 
ATOM     30  C   UNL     1      -3.954  12.063  19.296  0.00  0.00    +0.000 A 
ATOM     31  C   UNL     1      -2.561  12.029  19.429  0.00  0.00    +0.000 A 
BRANCH  29  32
ATOM     32  N   UNL     1      -6.003  11.775  17.934  0.00  0.00    +0.000 N 
ATOM     33  O   UNL     1      -6.473  12.339  16.939  0.00  0.00    +0.000 OA
ATOM     34  O   UNL     1      -6.681  11.237  18.824  0.00  0.00    +0.000 OA
ENDBRANCH  29  32
ENDBRANCH  25  26
ENDBRANCH  24  25
ENDBRANCH  21  24
ENDBRANCH  20  21
ENDBRANCH  18  20
ENDBRANCH   1  18
TORSDOF 10
ENDMDL
MODEL 8
REMARK VINA RESULT:      -7.5      4.333      6.742
REMARK  Name = 
REMARK  10 active torsions:
REMARK  status: ('A' for Active; 'I' for Inactive)
REMARK    1  A    between atoms: C_2  and  C_3
REMARK    2  A    between atoms: C_8  and  S_9
REMARK    3  A    between atoms: S_9  and  N_12
REMARK    4  A    between atoms: N_12  and  C_13
REMARK    5  A    between atoms: C_13  and  C_14
REMARK    6  A    between atoms: C_14  and  O_15
REMARK    7  A    between atoms: C_14  and  C_16
REMARK    8  A    between atoms: C_16  and  O_17
REMARK    9  A    between atoms: O_17  and  C_18
REMARK   10  A    between atoms: C_21  and  N_22
REMARK                            x       y       z     vdW  Elec       q    Type
REMARK                         _______ _______ _______ _____ _____    ______ ____
ROOT
ATOM      1  S   UNL     1       1.086  10.805  19.305  0.00  0.00    +0.000 S 
ATOM      2  O   UNL     1       1.900  11.460  18.305  0.00  0.00    +0.000 OA
ATOM      3  O   UNL     1       1.193  11.021  20.730  0.00  0.00    +0.000 OA
ENDROOT
BRANCH   1   9
ATOM      4  C   UNL     1      -1.435  12.034  19.463  0.00  0.00    +0.000 A 
ATOM      5  C   UNL     1      -2.749  12.158  18.979  0.00  0.00    +0.000 A 
ATOM      6  C   UNL     1      -3.321  11.253  18.086  0.00  0.00    +0.000 A 
ATOM      7  C   UNL     1      -2.557  10.217  17.584  0.00  0.00    +0.000 A 
ATOM      8  C   UNL     1      -1.223  10.106  17.967  0.00  0.00    +0.000 A 
ATOM      9  C   UNL     1      -0.644  11.012  18.885  0.00  0.00    +0.000 A 
BRANCH   4  11
ATOM     10  O   UNL     1      -0.345  14.040  19.974  0.00  0.00    +0.000 OA
ATOM     11  C   UNL     1      -0.917  13.058  20.441  0.00  0.00    +0.000 C 
ATOM     12  N   UNL     1      -1.123  12.985  21.831  0.00  0.00    +0.000 N 
ATOM     13  C   UNL     1      -1.586  11.871  22.660  0.00  0.00    +0.000 C 
ATOM     14  C   UNL     1      -2.972  12.189  23.245  0.00  0.00    +0.000 C 
ATOM     15  C   UNL     1      -2.994  13.544  23.958  0.00  0.00    +0.000 C 
ATOM     16  C   UNL     1      -2.371  14.648  23.096  0.00  0.00    +0.000 C 
ATOM     17  C   UNL     1      -0.990  14.232  22.593  0.00  0.00    +0.000 C 
ENDBRANCH   4  11
ENDBRANCH   1   9
BRANCH   1  18
ATOM     18  N   UNL     1       1.428   9.154  19.082  0.00  0.00    +0.000 NA
ATOM     19  H   UNL     1       2.172   8.945  18.414  0.00  0.00    +0.000 HD
BRANCH  18  20
ATOM     20  C   UNL     1       1.342   8.289  20.278  0.00  0.00    +0.000 C 
BRANCH  20  21
ATOM     21  C   UNL     1       2.368   7.149  20.195  0.00  0.00    +0.000 C 
BRANCH  21  22
ATOM     22  O   UNL     1       1.819   6.017  20.896  0.00  0.00    +0.000 OA
ATOM     23  H   UNL     1       1.109   6.334  21.480  0.00  0.00    +0.000 HD
ENDBRANCH  21  22
BRANCH  21  24
ATOM     24  C   UNL     1       2.645   6.828  18.714  0.00  0.00    +0.000 C 
BRANCH  24  25
ATOM     25  O   UNL     1       3.073   5.471  18.558  0.00  0.00    +0.000 OA
BRANCH  25  26
ATOM     26  C   UNL     1       3.944   5.250  17.522  0.00  0.00    +0.000 A 
ATOM     27  C   UNL     1       4.752   6.339  17.168  0.00  0.00    +0.000 A 
ATOM     28  C   UNL     1       5.691   6.226  16.136  0.00  0.00    +0.000 A 
ATOM     29  C   UNL     1       5.828   5.008  15.459  0.00  0.00    +0.000 A 
ATOM     30  C   UNL     1       5.037   3.911  15.815  0.00  0.00    +0.000 A 
ATOM     31  C   UNL     1       4.100   4.037  16.846  0.00  0.00    +0.000 A 
BRANCH  29  32
ATOM     32  N   UNL     1       6.805   4.875  14.371  0.00  0.00    +0.000 N 
ATOM     33  O   UNL     1       6.542   4.091  13.451  0.00  0.00    +0.000 OA
ATOM     34  O   UNL     1       7.836   5.563  14.437  0.00  0.00    +0.000 OA
ENDBRANCH  29  32
ENDBRANCH  25  26
ENDBRANCH  24  25
ENDBRANCH  21  24
ENDBRANCH  20  21
ENDBRANCH  18  20
ENDBRANCH   1  18
TORSDOF 10
ENDMDL
MODEL 9
REMARK VINA RESULT:      -7.5      4.081      8.964
REMARK  Name = 
REMARK  10 active torsions:
REMARK  status: ('A' for Active; 'I' for Inactive)
REMARK    1  A    between atoms: C_2  and  C_3
REMARK    2  A    between atoms: C_8  and  S_9
REMARK    3  A    between atoms: S_9  and  N_12
REMARK    4  A    between atoms: N_12  and  C_13
REMARK    5  A    between atoms: C_13  and  C_14
REMARK    6  A    between atoms: C_14  and  O_15
REMARK    7  A    between atoms: C_14  and  C_16
REMARK    8  A    between atoms: C_16  and  O_17
REMARK    9  A    between atoms: O_17  and  C_18
REMARK   10  A    between atoms: C_21  and  N_22
REMARK                            x       y       z     vdW  Elec       q    Type
REMARK                         _______ _______ _______ _____ _____    ______ ____
ROOT
ATOM      1  S   UNL     1       3.066   6.302  18.428  0.00  0.00    +0.000 S 
ATOM      2  O   UNL     1       1.759   5.934  17.929  0.00  0.00    +0.000 OA
ATOM      3  O   UNL     1       3.544   6.042  19.766  0.00  0.00    +0.000 OA
ENDROOT
BRANCH   1   9
ATOM      4  C   UNL     1       5.012   4.474  17.556  0.00  0.00    +0.000 A 
ATOM      5  C   UNL     1       5.900   4.044  16.555  0.00  0.00    +0.000 A 
ATOM      6  C   UNL     1       6.215   4.810  15.434  0.00  0.00    +0.000 A 
ATOM      7  C   UNL     1       5.584   6.024  15.240  0.00  0.00    +0.000 A 
ATOM      8  C   UNL     1       4.630   6.451  16.161  0.00  0.00    +0.000 A 
ATOM      9  C   UNL     1       4.321   5.684  17.307  0.00  0.00    +0.000 A 
BRANCH   4  11
ATOM     10  O   UNL     1       5.552   3.630  19.669  0.00  0.00    +0.000 OA
ATOM     11  C   UNL     1       4.752   3.576  18.739  0.00  0.00    +0.000 C 
ATOM     12  N   UNL     1       3.616   2.756  18.862  0.00  0.00    +0.000 N 
ATOM     13  C   UNL     1       2.626   2.357  17.861  0.00  0.00    +0.000 C 
ATOM     14  C   UNL     1       1.261   2.985  18.189  0.00  0.00    +0.000 C 
ATOM     15  C   UNL     1       0.833   2.700  19.632  0.00  0.00    +0.000 C 
ATOM     16  C   UNL     1       1.959   3.006  20.627  0.00  0.00    +0.000 C 
ATOM     17  C   UNL     1       3.255   2.311  20.213  0.00  0.00    +0.000 C 
ENDBRANCH   4  11
ENDBRANCH   1   9
BRANCH   1  18
ATOM     18  N   UNL     1       3.092   7.996  18.272  0.00  0.00    +0.000 NA
ATOM     19  H   UNL     1       3.842   8.373  17.690  0.00  0.00    +0.000 HD
BRANCH  18  20
ATOM     20  C   UNL     1       1.781   8.677  18.196  0.00  0.00    +0.000 C 
BRANCH  20  21
ATOM     21  C   UNL     1       1.123   8.740  19.582  0.00  0.00    +0.000 C 
BRANCH  21  22
ATOM     22  O   UNL     1       2.124   8.386  20.556  0.00  0.00    +0.000 OA
ATOM     23  H   UNL     1       1.724   7.770  21.194  0.00  0.00    +0.000 HD
ENDBRANCH  21  22
BRANCH  21  24
ATOM     24  C   UNL     1       0.572  10.159  19.814  0.00  0.00    +0.000 C 
BRANCH  24  25
ATOM     25  O   UNL     1       0.081  10.721  18.593  0.00  0.00    +0.000 OA
BRANCH  25  26
ATOM     26  C   UNL     1      -1.248  11.061  18.602  0.00  0.00    +0.000 A 
ATOM     27  C   UNL     1      -2.058  10.360  17.698  0.00  0.00    +0.000 A 
ATOM     28  C   UNL     1      -3.434  10.611  17.631  0.00  0.00    +0.000 A 
ATOM     29  C   UNL     1      -4.004  11.564  18.482  0.00  0.00    +0.000 A 
ATOM     30  C   UNL     1      -3.207  12.258  19.397  0.00  0.00    +0.000 A 
ATOM     31  C   UNL     1      -1.832  12.002  19.454  0.00  0.00    +0.000 A 
BRANCH  29  32
ATOM     32  N   UNL     1      -5.444  11.841  18.420  0.00  0.00    +0.000 N 
ATOM     33  O   UNL     1      -6.168  11.017  17.848  0.00  0.00    +0.000 OA
ATOM     34  O   UNL     1      -5.852  12.886  18.953  0.00  0.00    +0.000 OA
ENDBRANCH  29  32
ENDBRANCH  25  26
ENDBRANCH  24  25
ENDBRANCH  21  24
ENDBRANCH  20  21
ENDBRANCH  18  20
ENDBRANCH   1  18
TORSDOF 10
ENDMDL
